29
Energy = -119.14339276 eV
Pd 11.884565010726927 6.6206535732147564 7.281493896003004
Pd 11.119775028559118 4.194921386210998 6.691547195561362
Pd 10.228959136097188 5.428285402534331 8.949169190728476
Pd 9.822242225505118 7.956469674935872 8.1965857408528
Pd 8.492973372127521 4.947495206280415 10.744700897366155
Pd 7.24317986477236 11.429778683839407 8.270932021831436
Pd 9.675541250487194 6.703888373898769 5.924349075405967
Pd 7.6303525477521745 6.653266619603851 9.000280783330407
Pd 7.576992000347574 8.959779096379416 7.578894658817362
Pd 7.067109291378869 3.7336078172066145 9.011480325175695
Pd 8.558751789921422 4.619473601500852 7.1208621536860734
Pd 6.923420331396733 10.882013451181217 5.752728078111901
Pd 9.86642423431568 4.543721981812645 4.442867991285468
Pd 8.03616783577069 8.58777634388161 4.909820911706944
Pd 5.313186896797761 8.06838611700947 8.523642425367212
Pd 6.8528882110265075 6.536410941458938 6.454880150197913
Pd 2.958647297969365 6.944682237414244 8.976185247587015
Pd 4.94285818737303 10.472102727033075 7.546261559354065
Pd 5.173841597945569 5.502783254705822 9.05705469613368
Pd 3.2076112168904283 9.582641399679764 9.273596433526196
Pd 5.640361803533416 4.12269810137733 6.82836604925661
Pd 7.40758164040219 3.72645933533232 4.954724489927332
Pd 5.4116798937181505 8.69538925291649 5.640546428188889
Pd 7.8745172998177795 6.152167607870007 3.924468825247329
Pd 4.094353650641542 6.29994335056712 6.687123033650207
Pd 2.9683865770291327 8.706265088160208 6.7959938486816736
Pd 5.931545827156323 7.762701090911519 3.2698761640260026
Pd 5.294299858342286 5.41843663913519 4.476464623242334
Pd 3.483475262441355 7.432188151930513 4.408219605511791
