27
Energy = -111.51630005 eV
Pd 8.228271351480856 10.780161398267786 6.103872303389199
Pd 9.924252766484514 9.000070557538834 5.002213376491304
Pd 10.294444470061423 9.814205441077435 7.5916993387446405
Pd 7.168811855827659 8.739462220078268 4.765768794883941
Pd 7.969599605423469 10.422344208494257 8.734834289668672
Pd 11.19946675394634 7.396109571606051 6.787307950569009
Pd 6.110691640124938 9.449881190327138 7.071803220494296
Pd 10.006114298262789 9.96964037272349 10.300051318312448
Pd 8.712146983254245 7.765632149360171 2.902726990454472
Pd 8.339526918482639 7.94592930550966 6.977816636591854
Pd 9.975820057456623 7.564952616441657 9.086565034235953
Pd 9.828747349841425 6.31963510103597 4.8569739788106014
Pd 7.218438213548179 7.989482918458376 9.467183351286927
Pd 8.237296836728852 5.1933247119811226 3.0461686233280147
Pd 6.117222133345633 6.85378385492823 3.337460198783036
Pd 9.272595584373708 5.50460992175185 7.452319833074219
Pd 5.44889664611009 10.241640376847194 9.51514280909649
Pd 5.169821540939924 7.229385792276125 5.936210976787769
Pd 7.369140941478774 5.784229915783669 5.429873599845719
Pd 4.662234575365557 7.7547272562866585 8.546818690160219
Pd 8.247280664802247 5.653997665073262 10.022628122260565
Pd 9.388690706736293 7.756071359508535 11.583127638713632
Pd 7.446168266925384 9.693030543422399 11.387596214490593
Pd 6.59207865473674 5.957559463605897 7.858247512886331
Pd 4.975801108660724 8.317546904472378 11.232546075297849
Pd 5.517677337086299 5.862609933544371 10.272459255990182
Pd 7.013903715431339 6.964307608242877 12.158827360685548
