29
Energy = -120.02606974 eV
Pd 6.142014202749014 4.3365461385172495 4.0454884317470725
Pd 7.226109702156003 4.25244820566963 6.470858935503614
Pd 3.871338724042786 3.5739301003556125 5.140177735601583
Pd 5.049006402920064 5.86233303272565 5.954696569562337
Pd 10.339797180277706 7.8710515505816785 8.15148450576328
Pd 7.648960667050991 7.849019793860037 3.876658249730042
Pd 3.6100124689351123 4.155792379771498 7.740395883459032
Pd 8.019388923366304 4.182044216667778 8.984402470443735
Pd 5.881943964177759 2.7840737586785917 8.189502987984085
Pd 2.1128437001725944 5.373540322691291 5.941055190055872
Pd 9.499794147043518 5.552514380555824 7.148560646143914
Pd 10.356281169393169 10.099673184378734 6.762190120626428
Pd 5.716465892794003 8.188734434122194 8.257634194149412
Pd 3.6329132620164577 9.339418002774124 7.07552951713247
Pd 7.989857402699799 6.8569855872281 9.057700924440566
Pd 8.007699224882275 9.844920880109882 5.523300164708601
Pd 5.744745053352478 5.52846433288108 8.59127466443008
Pd 8.139701839090492 9.324663740238963 8.070106084655869
Pd 3.827898285342307 1.6491813986960482 6.978366864516461
Pd 5.990994987387399 10.628835269997676 7.15127628887939
Pd 3.445029134586486 6.790129777058228 7.805363779498681
Pd 3.155879487429111 7.590972253712113 5.06247019181064
Pd 5.5795319712159115 8.710318290456073 5.386754133084369
Pd 7.39099774533188 7.072262435693331 6.46442418412307
Pd 9.811343919846662 7.788256324828481 5.514965682965212
Pd 5.178871850047986 6.82262900796569 3.476652414619832
Pd 6.020022549798194 2.0763588777171735 5.569644691106445
Pd 8.664814808226275 5.473808598111766 4.598072387933118
Pd 7.348098465194732 5.818334928907421 2.2743777537052114
