22
Energy = -88.99714477 eV
Pd 9.953001805307084 10.077317934894346 6.798927346520528
Pd 8.087059934507693 8.25656939220802 6.577666253733591
Pd 7.177902631092842 3.9412612330961743 7.053373693863576
Pd 6.442628979961143 8.462766678223574 4.483770472901734
Pd 6.587494865978605 5.34549516283313 9.435955280471148
Pd 8.528487651258574 6.7266964889746585 10.607409423531506
Pd 6.8010884110324294 7.968303681097983 9.105094057166571
Pd 4.954119567610938 4.468301240550541 5.5326983777001235
Pd 7.465788993137102 10.633853332647961 5.681583838621821
Pd 5.762619629035306 6.0725916034719996 3.647214496556002
Pd 8.742814298731767 5.971197099638603 8.04178301693381
Pd 4.682024634528891 4.1130114479117115 8.156826003354258
Pd 4.217524951140997 7.305642717359725 5.509920829450795
Pd 6.338720289243883 6.340505518861538 6.690320437721806
Pd 7.6808244530270935 10.341067251458803 8.340514381165498
Pd 5.577823934948176 9.102175550197591 7.02910818459361
Pd 10.388089871252767 7.182736736039294 6.361974274281253
Pd 4.470021651629121 6.835128410975177 8.375610535027912
Pd 8.132339116783015 6.313437305955047 4.781019447682631
Pd 2.833790738953525 5.458028608693752 6.782501460709665
Pd 9.573601826594748 4.550162136614938 5.9991683262323585
Pd 9.553437979378245 8.43227666384647 8.845171467389997
