22
Energy = -87.92070001 eV
Pd 8.562328872114342 3.387247274755887 6.635718412853421
Pd 8.529593814250296 4.487163346434944 4.134803154298323
Pd 8.00461998204988 4.823498316014447 8.697105147068774
Pd 6.34538896609538 3.8555452157273895 5.433384370300562
Pd 6.886175318313992 5.0337315808864025 2.199738244535067
Pd 6.254805608112951 5.925237760772266 7.050060434026553
Pd 8.885603634986792 5.97703605423424 6.442438379823837
Pd 3.9514875037007844 4.575631635140131 6.203670871509857
Pd 8.34744228691038 6.48661166618808 10.66401628152482
Pd 6.727368997497035 6.456060315083434 4.374128093265838
Pd 4.737108668318253 4.91547179181414 3.690712103019272
Pd 9.782395895196576 8.44869378448854 6.589999468271938
Pd 3.8058934871911383 6.3233655578190415 8.214732803437606
Pd 8.01167876751317 7.704015356219586 8.402639223454276
Pd 2.0357973002053513 6.395824828309289 6.264330841456414
Pd 5.953532876452998 6.48459353714777 9.666968415152617
Pd 7.26964139522795 8.49695646335 5.9041441672565895
Pd 4.431520617672807 7.093169659933925 5.41092253855193
Pd 9.126360717826882 7.38360872079852 4.208237417869983
Pd 5.498275487985805 8.47133360733398 7.950251616969884
Pd 2.961393571809553 8.708834222248488 7.211142636265553
Pd 4.921237705501988 9.604141536641485 5.670493448941989
