21
Energy = -83.849026 eV
Pd 8.740714535370062 4.75105002029086 7.839717547174944
Pd 4.377893218869556 8.456063960358833 5.000887037060609
Pd 6.993818335913506 2.8622939732568637 7.01979460824205
Pd 5.895655768703254 9.280198990246896 7.160093526458007
Pd 5.256841865007265 6.031547501198064 4.164174367908017
Pd 5.008234828971673 6.799509511274806 6.963558826978334
Pd 7.876317265210689 6.212294776406353 3.500246546713862
Pd 7.6454447700007835 10.850545940130988 8.171240839247739
Pd 2.9892645908440314 6.066967217413042 5.543181951502636
Pd 6.097238012711048 4.919070796474646 8.49792731581866
Pd 7.132690797091986 5.225815477891564 5.847961668793593
Pd 8.584236338816863 8.858761335771176 9.459554252408607
Pd 7.417348759555206 7.142199570893656 7.9327411699264365
Pd 9.401991858970554 6.588855595732699 5.7048192127540895
Pd 6.1057808513973715 8.155749919853045 2.8522098347764038
Pd 10.111084398048778 6.96792633095641 8.222630709964626
Pd 4.767440199110099 4.076672591260431 5.967029107018577
Pd 8.943363357363708 9.042678267829587 6.794259979726124
Pd 4.615625155818858 2.717919388130483 8.255295856730543
Pd 7.078263837530208 7.9744739207574575 5.269536275034368
Pd 3.381078794524428 5.038693333345949 8.094638756756021
