27
Energy = -111.2697473 eV
Pd 6.88530923736113 2.9314990835306323 3.5334877344422866
Pd 8.728595385001658 4.867630122768328 3.98981874621463
Pd 5.323953018072728 2.14167907868213 5.605590568278303
Pd 4.2806962860801825 3.5931314637507126 3.558098528460346
Pd 7.227949494109699 4.02604264289934 5.955732729102
Pd 9.719842043304418 4.5398730127884495 6.546233861609125
Pd 6.1179199850363055 5.494329042548266 3.8023900684580694
Pd 5.801222746794392 3.24329544048367 7.973278815671286
Pd 7.895493886858144 7.405633424512941 3.4952866961179523
Pd 9.954469910755797 6.600310206610184 8.287120179737549
Pd 4.514562488137801 4.626931702977965 6.065860833990064
Pd 3.5239602092105313 6.069673225216993 4.027460136384895
Pd 8.88549506585359 6.932306860293604 5.886622567000616
Pd 7.581613012900688 5.5178775931486665 8.045838393618041
Pd 6.223800715480067 6.893010158127248 6.125239637856704
Pd 5.32687570374303 8.077943899361152 3.838105848694678
Pd 2.8182372508696725 8.577033871214448 4.489946608313483
Pd 6.524259384778751 4.461125039295872 10.229649576863377
Pd 8.04385002666314 8.364827174860682 7.974542500117411
Pd 4.931913056627377 5.741861206240271 8.471386176590455
Pd 3.65491679743018 7.128482569306789 6.549865439485378
Pd 7.369053256587387 9.165252401186079 5.398461941672767
Pd 6.779432449956005 7.07140739826041 10.077068744362123
Pd 5.2826433517221965 8.370023783520724 8.28292772728159
Pd 4.73517687655652 9.619142935152812 5.9884934697193355
Pd 6.89692036008929 9.650793392720418 10.005129048815736
Pd 6.623219337642529 10.579435896089862 7.520178350345791
