25
Energy = -101.07653147 eV
Pd 7.77472684623955 8.13706627306431 3.678551856037229
Pd 9.57521727718985 7.779476020397862 5.8242963129071565
Pd 8.51262660526469 5.70711939145018 4.540451089012921
Pd 5.908764964830636 6.351692600715655 4.046124827946018
Pd 4.6028597857063405 4.441528235863474 5.376067297601295
Pd 5.3876737930454555 8.77797354470375 4.862351621870593
Pd 6.70890898184158 3.869311211399783 3.911562472513074
Pd 7.766206115740327 9.70337271142168 5.894958097982689
Pd 3.3687616711184427 6.724377411451102 4.495931074777443
Pd 3.1331531252078544 6.492785378554825 9.120163914321783
Pd 9.366448851108268 5.576120964838313 7.096685402625711
Pd 9.731834211788032 9.751664755935277 4.175946577520833
Pd 6.820812575635721 6.973154463057675 6.424037952690224
Pd 4.172718114337734 7.5077432842483836 6.863339039489836
Pd 7.084435376305422 4.322368017776931 6.498971381279055
Pd 2.596307861174362 5.397150543044909 6.757166900655757
Pd 5.029815324684855 5.096431572157852 7.941482228639756
Pd 9.956006260774055 7.261314757750145 11.954710384510621
Pd 5.824129465642452 9.450273915800445 7.536400729144967
Pd 7.4771656405955005 5.495410147950548 8.929172450941685
Pd 8.240685062811593 8.247824336292602 8.20431110849978
Pd 9.902877188254019 6.4955807633028115 9.46972937061047
Pd 5.617594191685262 7.388583227110901 9.19246910973472
Pd 9.85785019563206 9.072896728581656 10.121506348750861
Pd 7.684018508837115 7.611293683615802 10.71612639042134
