28
Energy = -115.75021282 eV
Pd 2.8600179170810174 5.290457132443515 9.85605270940257
Pd 2.142605545232144 6.921650483602237 7.757696976110905
Pd 5.480469683603257 4.930897295337532 9.630311909722892
Pd 4.336776880175385 7.332026410560593 9.20152520604799
Pd 3.8810238272478164 4.6555567472488075 7.5350684190052375
Pd 3.6532391285471926 9.219190085855052 7.41962551428601
Pd 8.147136661685268 4.826833922958501 9.230948343897637
Pd 6.768415717299226 6.886625438229431 8.256963694825382
Pd 5.9363543805652235 9.373001971799031 8.866558750272107
Pd 2.470936477803578 5.529525928692637 5.454599010094832
Pd 6.485493589266103 4.180309827760063 7.219468082266677
Pd 4.900726697801778 4.411363111780148 5.062710759437494
Pd 4.5206992383146645 6.94974443000887 6.38900863721444
Pd 8.451841310480491 8.928386970507743 7.814417479382302
Pd 9.987876676348362 2.9909938153110858 4.627353211549292
Pd 4.216910541443758 6.647356253048143 3.723962222119993
Pd 7.396252320209621 3.540501360952883 4.766687398390923
Pd 9.088249140440595 3.85641607797478 6.942383658283146
Pd 6.952005176380604 6.241581718785582 5.585197347603146
Pd 6.324167602599236 8.980087138823263 6.282084974605596
Pd 9.240898943692482 6.463830030834016 7.3714103055090305
Pd 4.170412264444126 9.102818157496252 4.791002754493693
Pd 9.432902118430494 5.573269528371117 4.874733379246768
Pd 6.497351084379728 5.494190514881467 3.075382499079365
Pd 6.4571535646892455 8.177414562221172 3.727172534600182
Pd 8.823099753749396 4.333252244239706 2.6055572955158532
Pd 8.760314899103525 8.191035480270838 5.247480489136111
Pd 8.676345943774573 7.039273288803802 2.815436730119459
