29
Energy = -120.25779778 eV
Pd 10.443436410408392 7.162746286048916 6.739639937757985
Pd 9.64975484338458 5.0871955961737365 5.2019321599529995
Pd 8.511733192243668 7.4812019650534145 5.030091537109163
Pd 8.77391451268547 3.0248816680712456 3.8174040150727295
Pd 8.302708840012526 8.631841864716323 7.5829878698422215
Pd 8.326646386846985 5.784097556761549 7.474783654107992
Pd 6.555717881830424 5.707621977526893 5.2550821320052705
Pd 7.732236002232137 3.4946072684199803 6.21617357958548
Pd 6.762450430387621 9.404551484293474 5.392434397721221
Pd 6.589684911770037 7.786040661978236 3.261925039521477
Pd 6.151310122088509 10.279734543003967 7.753540980394789
Pd 7.886720000051778 5.4403306863157574 3.0613738650733375
Pd 6.91401192360001 6.535236513285924 9.51021473060047
Pd 7.0652949417594915 1.2355003019809687 4.99595667854007
Pd 6.965916102500212 9.097492334706834 9.936676901501512
Pd 4.7497218075664085 9.706512194742126 3.808025147358315
Pd 6.115092047535169 3.3642788235068695 3.791458972829307
Pd 6.064404507911561 7.458592617486307 7.132865996132808
Pd 5.2420158147797915 7.507799438828408 11.269830299841548
Pd 5.237361977364812 2.587241346964655 6.318473286063449
Pd 5.9564692561345804 4.704704418403759 7.792654643913421
Pd 5.127271588058395 5.566395996370439 2.759612622002159
Pd 4.442708821725707 8.530666878678932 8.962268592376736
Pd 4.0846694010010305 9.225055177772225 6.381045465913656
Pd 4.285255419899236 7.2742524697103255 4.592051600449784
Pd 4.148598654376282 4.714501735417281 5.173416112327102
Pd 3.6005981564489073 6.627561509565419 7.053835736534366
Pd 4.256337186899949 5.85425728457038 9.503018348314816
Pd 3.3848176245434596 4.03644957093428 7.696039258609692
