26
Energy = -105.54345952 eV
Pd 8.886853360056834 2.5906579577122537 7.831511565767029
Pd 8.751750092005183 4.842104902124455 9.036632366318411
Pd 7.577424022550127 6.493714680169038 10.706065795575743
Pd 6.9326749747782515 4.098882706769186 7.072798236991946
Pd 9.452442960791041 3.6448619614332465 5.5772041404222366
Pd 6.082329736564827 4.723035412295189 9.514723528662719
Pd 4.301676532133283 4.28352437118241 7.576450764837349
Pd 9.167627378697567 5.875592142835123 6.700888009082549
Pd 4.290253617985936 6.506550108169022 8.887813332729284
Pd 7.065751441221233 6.83546253319499 8.05285991595241
Pd 9.306307404274166 5.9520506695936435 4.0841924766342546
Pd 7.2408379088669115 4.432160201991774 4.459089888517019
Pd 5.469302990927364 5.816737768775409 5.715347973557933
Pd 7.2724371308358275 9.582965050643681 8.512174826494682
Pd 7.517689395996607 7.505576862515498 5.261305027973179
Pd 5.741122890538522 8.222810731387664 10.147129536713187
Pd 9.115677751562195 8.452820021941564 7.062205278706669
Pd 3.1748484024807095 4.4094966254866135 5.253803125799595
Pd 5.112212370478594 8.513802317973 7.43413827481889
Pd 3.2137830781442456 6.856596896564486 6.438731826406981
Pd 6.292561688063744 6.516290796539095 3.16733568504596
Pd 6.832267954245377 9.922024394353953 5.938060148334225
Pd 3.6575325646320467 6.432176544902463 3.731957909928383
Pd 6.796735193230572 9.22232569334319 3.3580492151903067
Pd 4.770507482162317 8.530811786392105 4.8671820911925785
Pd 4.571975813516519 8.331550998451565 2.206933195087239
