26
Energy = -107.28985751 eV
Pd 3.84104154517979 6.926742062307842 8.578663684021906
Pd 4.974676681849767 4.79533780442702 9.71798548889528
Pd 2.5372865429645874 6.151202099713516 6.343929047655364
Pd 2.733634459096908 4.450453402269012 8.281968998299671
Pd 7.226733649911969 6.09875025946825 9.190036736856332
Pd 6.156760032139617 8.176696499011747 8.079344261625444
Pd 4.339835603348926 8.138656715567622 6.234104297811157
Pd 3.8272661565695283 3.7960401787134335 5.882918845954234
Pd 5.517267617521956 5.469885410307478 7.156112867421865
Pd 4.710007052161559 2.653357470705735 8.102959762970087
Pd 2.561910032411267 7.78851946203426 4.283532265204914
Pd 7.134821486423862 3.4255920735135597 8.858885103715513
Pd 4.528170250623876 5.98194989968833 4.587533830191326
Pd 5.0448496553933335 8.415436448716294 3.668699975848413
Pd 5.685453896144406 3.7942569184269255 3.80623537876674
Pd 6.533528283668152 3.2253274085898243 6.227009928274727
Pd 6.701148476702466 9.291538063645751 5.637379393932681
Pd 8.419295147616483 4.884094378567426 7.147281866878887
Pd 7.144947111314877 6.78294744754483 5.360182517096392
Pd 8.610131309696994 7.584082898728318 7.412495523387265
Pd 7.513663091335902 8.78598464230853 3.0571714375524013
Pd 6.5152005690233095 6.246795636729138 2.8504523883864548
Pd 8.126540377410565 4.532195039732514 4.493704486636223
Pd 9.269469175243325 8.619074781620968 5.050392627664636
Pd 10.052895383932844 6.126612760043927 5.596830987205245
Pd 9.12676741916811 6.665892997895392 3.180773636030293
