25
Energy = -101.43339499 eV
Pd 6.37946657936725 7.4577775935479345 3.0744018223500587
Pd 7.908675145340724 9.475066431966804 3.9016075141770794
Pd 8.975987886812456 6.9433445305342385 3.6847717037039724
Pd 7.0916355414116685 5.082990483201007 3.9111780708177517
Pd 7.345927965764383 7.690467914045521 5.769757719037923
Pd 5.254399285501025 3.660768358149806 5.148290308181752
Pd 4.984187458614626 6.306796267272294 5.197351532502468
Pd 5.232409106189634 8.973174392041836 4.92016303050344
Pd 7.121310028603802 5.02960613336867 6.536219127180188
Pd 7.112011008392285 10.356317384440212 6.282611571490068
Pd 9.331831710923883 4.5090192141945495 5.1805112792707115
Pd 9.768981880573506 6.84696803726279 6.182849167042999
Pd 4.610068310540373 4.777081702086701 7.419994096338003
Pd 4.701546990624393 9.86182663520294 7.345231548000116
Pd 9.3462231050754 4.768445900985178 7.999183918151188
Pd 9.244277837628635 9.192085039568367 7.340218371299786
Pd 5.43371117052515 7.330192897696251 7.670884283434164
Pd 10.655619348353357 7.170289540666144 8.59553024253912
Pd 4.641148813514202 3.455204233559315 9.672940879873861
Pd 8.06042623634431 7.043474518373087 8.383134320335449
Pd 6.901995517407727 9.379895236509938 8.774139279344634
Pd 6.767234419689645 4.9135557071402465 9.18643588053923
Pd 4.461708135514245 8.71391915440066 9.772706943143808
Pd 4.359967783909202 6.014400756552706 9.800438946616143
Pd 6.563925867214906 7.302009071069331 10.504125577962478
