26
Energy = -105.79542831 eV
Pd 5.542580178605223 9.565967614745198 5.994183019667169
Pd 7.446645485362384 10.899631226119087 7.472317316190139
Pd 8.187153295006741 9.035199276527637 5.828012739546204
Pd 10.65244059261825 8.000953453905122 6.40501756113695
Pd 6.57723471323792 8.580882727984097 8.210953686230418
Pd 4.276046321685237 7.593649789777553 7.428957706335854
Pd 6.33000272590848 6.982634992923438 5.590444294697248
Pd 3.8080123844242277 7.8569296882769 4.886848356017864
Pd 9.216574494940811 9.103742029609771 8.460933958798382
Pd 10.5200614427637 6.795230122951541 8.851573004654519
Pd 8.985334779927006 6.779607162867662 4.734960594857645
Pd 5.082142128393443 7.420832709888913 10.023915968274531
Pd 7.8830269376274655 7.040215493932463 9.937892156329863
Pd 6.010964856326995 5.077924892876731 10.659461968537139
Pd 2.2447437317326986 5.934967946064609 3.9899293755908256
Pd 10.348142481167518 5.231890990287916 6.496467411390165
Pd 8.411782288647844 6.738296293715703 7.353942085790017
Pd 7.265876118656179 5.641314856867807 3.182062515040351
Pd 3.761217395147512 5.310539573510288 8.833901661948206
Pd 6.22041314231129 5.7061772776990525 8.164282320122263
Pd 4.776061374297163 5.613659598796443 3.810482206441524
Pd 9.166645485038577 4.138333968060815 4.26417066093296
Pd 7.483048056307146 4.572601526992389 6.144638091923337
Pd 2.468937396528467 5.921761087158851 6.566479966281434
Pd 6.277090477358339 3.4304930545678203 4.163053563856904
Pd 4.739669752868915 4.708410680781287 6.226965846297555
