29
Energy = -119.35032353 eV
Pd 9.076306078499739 7.657326368618623 4.830016585944336
Pd 5.521800685386225 9.0286138573165 10.622746833639006
Pd 9.689755792648034 3.7644081389019557 7.911714810764467
Pd 7.869233700282211 9.282440679886088 6.60970999245854
Pd 7.948538499819671 5.595096435334305 8.618184983915787
Pd 4.517084678430358 3.031545518398666 6.768644014163411
Pd 5.115472378628838 7.679044803075566 8.210506168945626
Pd 10.168055488907395 5.475399507458583 3.781908659958659
Pd 4.42422485028848 8.232939371259867 5.7497766814012135
Pd 7.155097874957173 3.1256943378379227 7.355347845466637
Pd 5.983571536850312 6.411041810233775 10.33327698851263
Pd 11.722702569999527 7.439964207521911 4.874396552888238
Pd 5.673311067361738 10.554268544831451 5.715856888022168
Pd 3.9515862081365887 5.739922924829173 6.459547763021742
Pd 3.1179269821041347 8.594711471643802 9.67538464984498
Pd 10.517695513039211 9.293490595813186 6.280275477521
Pd 7.506599917471907 5.92612847583893 3.645512844309111
Pd 8.593082963275709 4.837569176364189 5.836885750033347
Pd 7.692317018261545 8.211602759797882 9.167041802266452
Pd 3.5919016742472487 9.963787970388427 7.478709005558731
Pd 3.332352861876657 6.004882746021371 9.105019052444227
Pd 6.048244949297725 10.147150425483705 8.293250081481677
Pd 5.441106343545143 4.713493852477077 8.465306049564903
Pd 4.899836841857172 6.390027084908617 3.9682996854934727
Pd 6.7725631539922215 6.76767600286686 6.410731087958839
Pd 6.051183234114311 4.4246450402914 5.2610403485168575
Pd 11.012786982112573 5.5158969954629296 6.43615816763288
Pd 9.506330574445073 7.281020414544401 7.517793105154983
Pd 6.633020408513408 8.464958170466401 4.2527533348194995
