24
Energy = -97.40174238 eV
Pd 9.59474230112737 3.452989678081892 6.554857183785507
Pd 7.216395762904494 2.2027655568165794 5.9707391696675165
Pd 9.932049834686337 5.977868018248997 5.121917362712023
Pd 8.600826731652324 5.756176177055754 7.412649237251229
Pd 7.771877223458227 4.532928376234708 4.9550198222579125
Pd 7.492815775724599 3.4552804191744055 8.243666924449117
Pd 8.722702558941085 8.188427430695356 5.985592396379485
Pd 7.760928556703598 6.8952605531410205 3.770085656692618
Pd 5.525123768704699 4.152061248130518 6.6276195479344
Pd 6.274803586053656 5.702704820791038 8.860838865054822
Pd 7.728366773561442 7.995702285185429 8.410147700681767
Pd 6.436894995912206 6.612056372650641 6.153078872824739
Pd 6.3439696284759535 9.067020460551507 4.8782417353864895
Pd 5.5323915448658125 5.190282063975013 3.886987817589227
Pd 6.907251012015019 7.396156399965776 10.816147414078102
Pd 7.309647021018682 10.205192273986224 7.05412308226726
Pd 3.2359617918763575 6.122476562524129 2.978887397718979
Pd 5.426831712648714 7.6600517754915565 2.825290418725835
Pd 4.552922454804378 7.525420965494131 9.684926417967977
Pd 3.9392130932204448 6.220166581441564 7.49755410932705
Pd 3.319137039887062 4.898234612834565 5.349753876660669
Pd 6.125936822586707 9.691927430776532 9.575648682713894
Pd 5.161328353209877 8.627707065357717 7.304211230620607
Pd 4.118005759263306 7.483625771117632 5.111281875742522
