20
Energy = -79.83797743 eV
Pd 8.829671295135304 8.15774693595867 5.702449580887551
Pd 6.130286338909436 9.845048742867611 8.783348889547131
Pd 9.288758222268891 7.02137856381892 10.10716232524803
Pd 5.378782058908752 4.525636031134378 5.141831060972862
Pd 7.63802144380914 7.715347840053155 7.981933563288683
Pd 10.252541194378288 8.417679285514192 7.923740757764533
Pd 7.113984646332426 5.511437646558066 9.450980827715384
Pd 7.148233508582196 5.327037102008286 6.810240972504877
Pd 5.126284829476097 7.403777165619676 8.641957101766097
Pd 4.877179154037991 4.869675252411379 8.01857791803139
Pd 6.78515763048922 6.9109294398286325 4.614598640993786
Pd 8.67678055349817 9.648217859428808 9.757525040786268
Pd 9.157669282740716 5.667630936289753 5.135366236210147
Pd 6.786811329241744 7.92632798971891 10.627798082267962
Pd 4.668041238966661 8.31132281582051 4.179080412779391
Pd 7.413515879747653 4.601633505661659 3.5402320199529473
Pd 4.5316732761654475 6.7531089311235375 6.224692623851589
Pd 8.295303511095758 10.276069530041584 7.1526126759234065
Pd 6.093496680347979 9.018334110396525 6.226060841500442
Pd 9.55670724209837 5.840559631976012 7.7287097442380395
