21
Energy = -84.69744022 eV
Pd 9.60570572629374 6.022846918541548 8.468113628728917
Pd 4.94151638785038 8.497779625720447 4.2566590804847495
Pd 5.66563493571212 8.999809870639131 6.822630078574042
Pd 9.270799592863698 8.93155187915027 8.717136613385742
Pd 10.204135786253797 7.358762125212301 10.652482537144715
Pd 6.593194148411232 9.13645653517055 9.32079503373759
Pd 7.173375942665543 4.855800536694587 8.621911420289013
Pd 6.826212818831303 5.179758740725982 5.962999003077075
Pd 7.339265347922353 7.488757990565619 4.6764447326283145
Pd 7.698574357307197 10.68036975718097 7.426749694735969
Pd 4.787834077764139 4.506787762585211 7.587108212684045
Pd 7.055916114224874 10.13270594699313 4.89889807490258
Pd 4.622589691734083 6.661665629809352 6.1164694713941135
Pd 9.1723547067952 8.916713074450682 6.084991212472358
Pd 7.548565073991022 7.33585024335944 7.430523886690227
Pd 9.440934980593125 6.304722971204495 5.7937482143776835
Pd 8.980879357585565 3.961727066909209 6.909748689919475
Pd 5.307162953173082 6.857172535309753 8.737004183459101
Pd 8.458235884162766 9.180067794413391 11.231240662795134
Pd 7.620550558449019 6.860425475441752 10.274261491426502
Pd 5.475650785571444 5.912438890853465 3.7576723648797947
