24
Energy = -97.28166345 eV
Pd 9.380800928890373 7.2416455275586635 3.2721146164127974
Pd 6.247109046032726 6.950440428583908 6.782866734315989
Pd 10.499139038752313 6.7227653078605645 7.03229748792926
Pd 11.244925132747712 7.989698054193888 4.9109170709342305
Pd 8.264687154245465 10.622372804340918 7.301796164779057
Pd 8.404988079017864 6.336878402222561 5.4425996936356285
Pd 10.759069037845967 9.55924906699471 6.993518365316955
Pd 10.684546326485293 8.18724989041295 11.412096117376223
Pd 4.221173715864428 8.742788742082233 7.280307990784133
Pd 11.75542578414794 8.009821557753595 8.97142559361965
Pd 8.409993345605105 8.042172167314522 7.925032454817575
Pd 5.692767014262047 11.015336152406789 7.968558225678762
Pd 9.689658214331661 6.448331121675248 9.652624433702206
Pd 9.144644556229538 10.366545733661356 11.936690621796696
Pd 4.488509711524144 6.582843527882203 8.90307749475211
Pd 8.467121201230269 5.108028987122309 7.692530943766221
Pd 6.35773016146341 9.385302266212182 5.9313752837347185
Pd 7.479663148621988 10.75915322496241 9.94347272986962
Pd 9.82500167574679 9.723766522882096 9.420240041447673
Pd 7.006014645717081 6.1609990741835325 9.660087420403864
Pd 8.004033479401887 8.1978025396587 10.964777687629528
Pd 5.896950839525176 4.5972394014306515 7.8185340797341585
Pd 8.79975744822034 8.92537758141047 5.240323885767602
Pd 6.1530300435438114 8.673580760804052 9.113362776837562
