23
Energy = -93.65170749 eV
Pd 3.3129151852390133 8.00806575221166 5.969666394095615
Pd 2.482334400075324 6.950314238078308 3.6748644737971894
Pd 3.1210616527605852 6.189856620821284 7.984586597406786
Pd 3.533312089617365 5.382212031493552 5.518182780366071
Pd 5.637844680663448 9.388330265701399 5.697610304977416
Pd 5.212483791662774 5.7467032781331 9.613591559469274
Pd 5.107222056294462 7.335239997414092 4.119573872607847
Pd 4.648695688080729 4.103079362150643 7.5478027216212915
Pd 5.283432471441341 7.7468740501163245 7.770856412501488
Pd 4.380919918438122 5.052821076026706 3.061395032159624
Pd 5.465725985075609 3.527926645724655 4.924212132649291
Pd 6.148397153201449 5.929355246242668 6.2039207087195445
Pd 6.522492998939552 2.3417399244157977 7.007158892272643
Pd 7.476838542175122 6.990085760395667 9.186357481853264
Pd 6.968549382382146 5.416275455151915 3.5714134050672635
Pd 7.684633870157674 8.912532673001863 7.278275690286923
Pd 7.221751758825075 4.520371867433916 8.290704044265707
Pd 7.586923498219459 7.78958477084175 4.861373488136494
Pd 8.071070985750705 3.9936012701338677 5.656541055871577
Pd 8.764177815805102 6.204311183383297 6.983580837505784
Pd 9.795751792671142 8.067580751529169 8.582707760693825
Pd 9.430337179402478 5.957482844977686 4.453404871914067
Pd 9.991814420360212 8.293343596931477 5.927831076379315
