28
Energy = -115.55613711 eV
Pd 5.96601864902315 3.183084124407658 8.026218879994243
Pd 8.114863355085559 4.839162948601024 7.931978889920144
Pd 4.549427457354522 2.8401618580716472 5.752087254055291
Pd 5.864071354542441 5.540064922691046 9.34977608988101
Pd 7.191434450143267 3.693378034676699 5.658956809037736
Pd 8.31459611109357 6.722815199590305 9.84281158176072
Pd 3.5899390781254064 4.614301047680431 7.672009984921172
Pd 9.977350202315305 6.78140458979413 7.821875710356121
Pd 3.4340047098970015 3.1350144453391895 3.204570021348876
Pd 8.883680080078353 5.799027441543646 5.536708747977939
Pd 5.747352064371071 5.624431006821885 6.718603932238793
Pd 2.280577469846109 4.222023358255071 5.334692031312838
Pd 7.3577662252145934 7.4610527730800165 7.169216659801707
Pd 6.060678716950308 2.796984939112213 3.4054923429380706
Pd 7.3360094660348 5.209111732988467 3.411625381532313
Pd 8.568558662954626 9.205833064308516 8.542358663654145
Pd 4.920273326660951 5.0709879379864855 4.4715369930066995
Pd 7.5515595547373415 7.6981884782534795 4.297545999313055
Pd 6.209242474541815 8.164418010818588 9.767072514834801
Pd 5.106117606966198 4.797956377768991 1.7825240568857763
Pd 3.1527617767414844 6.644391419121361 5.750135736184591
Pd 9.63253926901778 8.423297962417632 5.828670962608927
Pd 2.8546999719440724 5.880249599554176 3.124653304888236
Pd 5.688104429259996 9.638243381686538 7.752025113227812
Pd 5.292757271826237 7.183066551715205 3.05086906732761
Pd 4.278956289741583 7.338558313344319 8.055932183873884
Pd 7.411095007831931 9.86178599534343 5.826456625025414
Pd 5.228405653579412 8.184090664708405 5.510394357539432
