28
Energy = -115.90865252 eV
Pd 3.655183701596836 7.793733985801503 9.78379739426578
Pd 5.602778317014922 6.052046952681493 9.951658442149974
Pd 7.570368703092509 4.278945169715164 10.194718548007312
Pd 5.933464391993634 4.053760546579469 8.09173811838761
Pd 4.0336865452603865 5.972203222320861 7.860552720946984
Pd 2.130758862234127 7.851536678328936 7.539031739567812
Pd 4.509319263693632 4.204119988958253 5.91424261515069
Pd 2.5933091036870173 6.137506054688525 5.635003068428158
Pd 3.064557748705043 4.352164529677793 3.6987999757551346
Pd 3.895916963321358 9.857501331143435 7.979519379056744
Pd 8.6634701477047 3.821838432216336 7.810331734311966
Pd 5.91948495155978 8.171495336943831 8.377907918485505
Pd 7.801283700188865 6.279424022969308 8.43922440457115
Pd 7.133139781274595 3.717827229865014 5.691364127007215
Pd 9.776564826052477 3.326361712172978 5.492733136990065
Pd 6.038864781928373 10.044900170643059 6.482492427298219
Pd 4.289252426399126 8.158852426512347 5.9460482894189575
Pd 4.757477271543639 6.391424059300638 3.9982857008999844
Pd 5.685492766149273 3.8779042203891163 3.4692790639279827
Pd 6.246384353184931 6.263037977645247 6.249173604524737
Pd 9.106648065027978 5.852886712172458 6.152682343017975
Pd 8.23604940995247 3.3955409334222364 3.2574291096670076
Pd 7.374421858288377 5.904271826067034 3.7813470952805113
Pd 8.013039982626685 8.232425981099263 6.713772946189864
Pd 8.231314130884456 10.214600058686592 4.966000588180911
Pd 10.004079793397967 5.392302827172644 3.690447658459429
Pd 6.420943478871232 8.40021306564571 4.277911994238514
Pd 9.13083085570616 7.784866010543677 4.308984989697279
