26
Energy = -106.25906638 eV
Pd 8.717186842519416 2.234074343306553 8.979763185086554
Pd 2.9234888063678763 7.852079221830408 5.441893260444668
Pd 6.479213411385648 6.967203928361724 3.0106389856996527
Pd 3.4096064569517197 5.129275929233648 5.521501054837892
Pd 10.080600771716156 5.4459574093778835 5.670009089874804
Pd 5.018705863684415 9.014284304897751 4.061091881162287
Pd 5.898470836742642 5.697199123833686 8.377735577353532
Pd 9.134834944231388 7.1062773556268874 3.7381521054583424
Pd 5.362646988163292 4.543747346731793 3.62858048683337
Pd 5.781597681765991 3.9449584420563135 6.159278675095132
Pd 3.827062224375015 4.047832376802376 7.972110088659979
Pd 7.766593039356004 7.193663208038331 9.786941243302236
Pd 2.602717348583992 8.895702059619351 3.099069521928483
Pd 3.833574788400326 6.6172020040294495 3.249307701013471
Pd 5.030674466543269 8.971577246530805 6.705169042897466
Pd 7.334445452609416 8.421627302593917 5.140079645930442
Pd 8.11809135518431 6.362767102237645 7.197111127815914
Pd 8.220587588173471 4.7163951418547025 9.355655381026452
Pd 7.499454027986998 8.85892443748172 7.749323232080795
Pd 6.2667432058554535 3.0210037515670156 8.545537397601048
Pd 5.5554160698151644 6.609251757758685 5.615657631582363
Pd 8.375289676815932 3.674211256028171 6.8352958271516915
Pd 7.686271571577114 5.1533292515993905 4.703683654075571
Pd 5.351548367280388 8.198980841932407 9.196052480711902
Pd 3.633223037176704 6.762128800209531 7.704317298267658
Pd 9.714112269507911 8.182503149229975 6.178201516879008
