29
Energy = -120.72634769 eV
Pd 3.0422840847747477 4.265884356565517 5.765728606718527
Pd 3.3051267319097906 6.285735171949093 7.43971177332651
Pd 3.0501388887523113 6.708047809180295 4.7057514096251944
Pd 3.71942101987255 9.07314364238819 3.7821959788041366
Pd 5.271707653231759 4.419123138240306 7.32770199971156
Pd 3.7532720291825235 8.400795287171773 8.962263428452049
Pd 3.746152545046601 8.815643114064613 6.367785736923033
Pd 5.157488087160106 2.5616266654628226 5.397066166359628
Pd 4.8405863977300285 4.747165013524943 3.954017346964666
Pd 5.4640446153404385 6.700725251999562 5.857068134473253
Pd 5.568479259877641 6.493492627007421 8.938111462367745
Pd 5.4520460570352345 7.2203540733167495 3.1700756060155375
Pd 7.196143115217309 2.5957033148528215 7.15540537288137
Pd 6.161578292852954 9.161356524870072 4.935732366138999
Pd 6.068344314184313 8.873855223166752 7.614011522021025
Pd 9.283927523734382 4.18017510127076 6.7788608059746895
Pd 7.129117007775473 4.427350553550938 5.2428091540254735
Pd 7.530346956119454 4.612448564144141 8.908196249323495
Pd 7.733485425659426 6.5262505886044275 7.144960014285133
Pd 8.102731950039441 7.261156919851362 9.581744726811907
Pd 6.058674273584245 8.819728365537166 10.304458153325271
Pd 8.41456271236506 8.959622181649912 6.356862911465537
Pd 7.908955759643326 7.12827923588804 4.446460037860965
Pd 7.134192350929393 5.228807122157415 2.719190108070364
Pd 8.116090587928007 9.855028287470374 8.930058750459704
Pd 9.476337773159846 4.998824507248797 4.214396478925969
Pd 10.082362436209936 5.746276674784875 8.719559760835628
Pd 10.1947933943986 8.34876205594926 8.261779917447097
Pd 10.132328047761355 6.725264541596683 6.1331563814008705
