26
Energy = -106.6466608 eV
Pd 8.613670962561946 7.290674339494182 6.110011287422533
Pd 9.836589643951221 5.0009954387692455 6.181712399787731
Pd 8.34001073342796 5.749330402282374 8.25690882754296
Pd 5.6299399313966525 7.497223450403835 6.753699961756811
Pd 8.86599449229422 6.0170419157304895 3.828913696611989
Pd 7.570176469371115 8.442759947696441 8.271865049154103
Pd 6.6882631862259 7.442369696922072 4.221021573411459
Pd 7.603304042947761 9.592020748539761 5.707020970699902
Pd 6.966847463202553 5.0512971959928095 6.042320462077138
Pd 5.939925366672723 10.446346065971623 7.519659468142777
Pd 8.277259771130883 2.9094480756754555 6.808749827323936
Pd 8.94076263219369 3.454398647392023 4.225983655593205
Pd 5.046741029073265 8.703763869031091 9.331878285727878
Pd 6.756943767068787 2.157644209650564 4.561608052265675
Pd 5.021325301911103 9.460445370467161 5.149637299197022
Pd 3.450486310723384 9.567334394580179 7.391640274934935
Pd 5.895233685872463 6.254498757443082 9.062929671215612
Pd 6.510466569536274 4.70385353059184 3.53530026863331
Pd 4.277887721351468 7.917600673658792 3.174188557526256
Pd 5.684152027140745 2.260714123184187 6.952954720006526
Pd 3.392703178748142 6.934905142669131 8.042343341135549
Pd 6.689541086416773 3.8051783338827647 8.816043167645551
Pd 4.581864080523161 4.7049300637685 7.237012201339873
Pd 2.909516609746598 7.8041047139088295 5.522975405825337
Pd 4.4662957668541745 5.903366330848382 4.828080312205529
Pd 4.458676949814561 3.3588489330810525 4.892455421733513
