22
Energy = -89.02768725 eV
Pd 5.235030249322866 4.174181581919322 7.771063696019191
Pd 8.087412256186463 6.737412311122803 10.455464995851889
Pd 5.694086934958304 5.742998345473851 9.853946632445062
Pd 7.731530888676915 5.178387128070142 8.264269085395222
Pd 7.3579965231367614 3.7075779472626036 6.1083759061242
Pd 4.922766282757904 2.8356327605211455 5.5144401471549545
Pd 6.9066570269288885 2.2935035823179906 3.838286682229219
Pd 8.951980011165018 5.9249218623559985 5.939869146485643
Pd 9.186690548133944 7.392772632793844 8.128948163377853
Pd 4.147120793361165 6.720650268189012 7.950194958369763
Pd 6.591742836545726 7.832860862001302 8.46734157939117
Pd 8.412389772212048 4.47473873762502 3.8001977557941964
Pd 6.224921482103498 6.234520520774277 6.215945927115653
Pd 5.156859229150654 8.779945263947702 6.46408565860372
Pd 5.77974011015571 4.760586139402407 3.9093887903833684
Pd 3.728337780356988 5.1887584918264515 5.6687669955733995
Pd 2.8253225480150714 7.666382181112285 5.868444351707159
Pd 7.847150371131025 8.465742241984643 6.122972737170407
Pd 7.438201984182389 6.931439827953013 3.8404932221995836
Pd 3.6959249874310607 9.679352088874127 4.362726639071216
Pd 4.7331448418250925 7.1813328587448995 4.093167601019815
Pd 6.318610662749517 9.307425987889 4.137229562266637
