27
Energy = -110.77285393 eV
Pd 6.495724266725357 4.1022470866237715 8.835387116445808
Pd 4.994582918398348 6.335216021836327 9.036892110391385
Pd 8.592895135342324 4.369861698226417 7.178473930622857
Pd 7.420330621592386 6.53121182211139 8.092344537689572
Pd 9.589198760100416 6.974693151461594 6.581962175753375
Pd 6.281197881162504 2.5587249898782116 6.550711992422939
Pd 3.8897399220249667 3.945663497798892 7.85861800479342
Pd 6.22385803075807 8.904690210593845 8.427594551895947
Pd 3.645069732092323 8.633935397715547 8.771381768398234
Pd 10.288137662973272 4.904117907770571 5.140984322237362
Pd 2.4547410670596954 6.2290951693183 8.395883978980885
Pd 4.868092113494824 7.342222623170905 6.615519388632229
Pd 8.541904770924976 2.8472607487503914 5.081333164195907
Pd 6.3859302319293345 3.6774956235079017 3.8910546647821596
Pd 8.824416225928829 4.446095723304648 2.933073802674619
Pd 5.7024727184231745 5.004262732752005 6.443306736127535
Pd 2.2004987401292486 8.230871233499302 6.581015624344804
Pd 3.996607460547994 3.318368651714137 5.118732757843137
Pd 7.657704687510435 5.718937020445248 5.100239689383167
Pd 5.110664342660449 9.782993931966532 6.007738513182686
Pd 8.855986191937358 7.654699502171676 3.9443874112594424
Pd 2.908877000658323 5.709934626104014 5.877201906566471
Pd 7.5286386840090005 8.501351275417376 6.205447208980863
Pd 6.879518001567062 6.133193175644081 2.533286765576415
Pd 4.68887383933295 5.669241174490468 3.985140957844339
Pd 3.545830895941882 8.063116347504554 4.339355500176844
Pd 6.137865096049446 8.036829397049424 4.130023240355084
