29
Energy = -120.89742842
Pd 5.964933018662749 5.964734814525697 3.8501030778689675
Pd 7.3296614870531185 8.329027068137345 7.38319969417413
Pd 5.964933018662749 5.964734814525697 8.07936655118243
Pd 3.2352142484373023 5.964734814525697 7.3830720857120395
Pd 2.9307323120898388 8.416784105303027 5.964734814525697
Pd 5.35809356393722 9.818102248601138 5.964734814525697
Pd 4.614367835368802 8.303338848458461 8.357820464516768
Pd 6.802364502418578 4.512278068616731 1.9582944890513976
Pd 8.665544529637538 5.964734814525697 3.5715588865213426
Pd 7.3296614870531185 3.600442560914052 4.546269934877264
Pd 4.614367835368802 3.6261307805929337 3.571649164534627
Pd 4.2876546423168955 5.964734814525697 1.9585081690525292
Pd 6.802364502418578 7.4171915604346665 1.9582944890513976
Pd 7.3296614870531185 8.329027068137345 4.546269934877264
Pd 7.476609610671806 5.964734814525697 5.964734814525697
Pd 5.20909832257968 4.655154476900925 5.964734814525697
Pd 3.2352142484373023 5.964734814525697 4.5463975433393555
Pd 4.614367835368802 8.303338848458461 3.571649164534627
Pd 5.20909832257968 7.2743151521504705 5.964734814525697
Pd 4.614367835368802 3.6261307805929337 8.357820464516768
Pd 7.3296614870531185 3.600442560914052 7.38319969417413
Pd 2.9307323120898388 3.5126855237485115 5.964734814525697
Pd 5.35809356393722 2.11136738045026 5.964734814525697
Pd 9.606291717944625 7.36655797239659 5.964734814525697
Pd 9.606291717944625 4.562911656654808 5.964734814525697
Pd 8.665544529637538 5.964734814525697 8.357910742530052
Pd 6.802364502418578 7.4171915604346665 9.971175139999998
Pd 6.802364502418578 4.512278068616731 9.971175139999998
Pd 4.2876546423168955 5.964734814525697 9.970961459998867
