23
Energy = -92.98784761 eV
Pd 9.473649981447009 5.029149205689118 11.32102952409983
Pd 6.773533685217568 4.969806718991736 11.412377069510176
Pd 8.330118064747806 11.300502484662136 6.731675159929651
Pd 5.098345910244986 9.842618393033831 10.781216974783499
Pd 6.621631527983602 10.951585838909617 8.861461370604973
Pd 8.514127236176778 9.202819139084873 8.305371096772785
Pd 6.065270939933472 5.609548414017414 8.772421398238878
Pd 7.048373307465615 7.223176292521246 6.820092785153937
Pd 6.208429550760261 9.699940405932503 6.455507293924533
Pd 8.01401039563468 3.7865184648607233 9.440508749469391
Pd 8.264190873287568 6.79600550834892 9.565755191262541
Pd 10.267615344521127 5.065595589415587 8.816600821121916
Pd 7.672554232012391 9.245817267794328 10.756689625951218
Pd 8.58524850408664 8.918647798379794 5.449638710279894
Pd 5.779015738033186 7.317694465793851 11.06095027037589
Pd 8.647279967427993 6.2829747142348245 4.902236775109132
Pd 9.92257589527697 7.236633266168947 7.422237710980233
Pd 5.796925707178856 8.385530176264147 8.70298289484238
Pd 10.70051495887205 5.078942104183772 6.135648800460989
Pd 10.655496163165994 9.726795266697119 6.844363606626086
Pd 8.180597562233435 4.939640702884621 7.11734123292616
Pd 8.175662913999329 7.141910636883357 12.25218312161599
Pd 10.950177077760848 7.632947071245644 5.052092695908785
