26
Energy = -106.37708926 eV
Pd 8.012664553398011 8.27204988290265 7.5038415097865485
Pd 10.039660012473758 6.542139936525626 7.547293659646872
Pd 9.039645116250806 7.351658941055503 5.1541433413831435
Pd 5.669735203787788 9.55497792818681 7.2080169793206075
Pd 6.056542291955123 7.8500642293160805 9.30065536267696
Pd 9.398397523742885 7.168704423001817 2.5714379883858256
Pd 7.739185318009329 5.937369237141677 8.7597230023488
Pd 8.605303152348469 4.824870266913644 6.201246152356398
Pd 9.45319543631688 3.9873918515593307 8.527754408128546
Pd 7.36222343878416 9.484857509024048 5.2400835474678225
Pd 3.6238126664058057 6.950467896638567 9.894812364437113
Pd 4.008097555949323 9.488188098906454 9.264059336002795
Pd 6.568949251576207 6.595633966380797 6.065163893675669
Pd 6.840221452583764 3.531276649038571 7.797596487295837
Pd 3.825425165299901 7.721776827303188 7.308773025297502
Pd 7.024569527851356 7.822474616731556 3.2667928202587873
Pd 4.93408769263117 8.2267248520092 4.8520626075587145
Pd 5.215718312292586 5.533059690126875 8.253290144678854
Pd 6.325287682973314 3.97465092924664 5.243320357379227
Pd 7.9922940589342515 5.284032095231492 3.6610092104362573
Pd 2.6082610060212263 5.405574482288709 7.906715535381692
Pd 3.9271785044233867 5.750053089331439 5.65428335963589
Pd 5.270644143489753 5.902369394574376 3.4301007913220793
Pd 3.9911562033830794 3.6140166683274537 4.107671981131363
Pd 4.238714445078984 3.438106103112322 6.88397211356461
Pd 6.248023092426464 3.5842175132113576 2.6371480199925075
