25
Energy = -101.95707502 eV
Pd 8.97742242657461 9.453538441399784 3.801577374048681
Pd 6.526492257761051 6.0259149354021995 5.326706274151272
Pd 6.525979884243904 8.538949461165949 4.448084395819322
Pd 10.601151130286503 9.250216781606492 6.0015246118035535
Pd 7.946535973900873 10.11663483213094 6.115424863740693
Pd 6.828903173377378 3.4079432683554645 5.63648076059519
Pd 4.36418172842262 4.715447325189124 6.046154986211927
Pd 8.182283962877369 3.0375752765717934 7.892955322894906
Pd 4.2613909280353734 7.363763301803289 5.265242067287171
Pd 8.690824230527966 7.49790194507131 5.575297699039197
Pd 5.286816416920015 9.4195470811317 6.704100192415872
Pd 8.85164973094532 5.0101101587562935 6.3046638177452055
Pd 10.585998667525576 6.827898363409416 7.262722627348737
Pd 6.939211774216154 7.662211094905584 7.5731703742520065
Pd 10.443706630422405 4.4185318877596504 8.3665296988783
Pd 4.462186690737474 6.758839953996131 7.803659653488734
Pd 6.3401580922762255 4.835116871069592 7.846605162291418
Pd 6.983150246588169 10.530704437024893 8.44146284880539
Pd 9.220788530480712 8.89135831153734 8.235306956676483
Pd 5.069238362107691 8.809472753576566 9.358704833296892
Pd 8.49701682582147 6.108727728811926 8.950652441912311
Pd 5.956373074931346 6.314228066810887 9.964271420925623
Pd 8.876088125182582 10.633102691472537 10.236069544932855
Pd 7.647892505159731 8.294969651059859 10.273981257505127
Pd 6.357423847751448 10.500160597056553 10.991516031006777
