20
Energy = -80.18585911 eV
Pd 7.08658464758549 7.623445244592843 8.180244036953276
Pd 5.944543702080785 9.412801463535562 6.589036010627168
Pd 5.076239041143644 9.12686898507676 9.14510312669266
Pd 8.570405407308616 5.892360023035467 6.924468463717352
Pd 7.856486523148899 5.387920745733192 9.477417714014324
Pd 8.42760501469254 8.409228368407586 6.001520253024107
Pd 5.411436415646745 6.5642597424039515 9.87144363905208
Pd 6.32506499754988 6.902260746364243 5.595048004971465
Pd 3.3979281660559897 9.592886939445261 7.195643456870642
Pd 8.098630766429642 3.416812192464812 7.583307603850234
Pd 4.029744982499531 8.073488126511164 5.136435989194562
Pd 8.635952978846218 6.271466948943791 4.302157262379156
Pd 4.291926057979482 7.0877068940436345 7.541235296426638
Pd 6.821868313862269 4.135440705031145 5.387415345610268
Pd 5.925985284526987 4.973355018888864 7.776186500698705
Pd 9.515196091890735 3.9200531244059635 5.353262553289593
Pd 4.360663909102254 5.137138686481526 5.702058620364438
Pd 8.20471129559946 3.982747624683404 3.093628697433126
Pd 3.6615777486566006 6.198099575892892 3.4426076621270143
Pd 6.141381982187253 5.600927116876992 3.3310886107657867
