20
Energy = -80.52472239 eV
Pd 5.032889468804109 7.342594771215342 4.157416866477206
Pd 7.555078997034345 7.975464371242561 3.7527624700064854
Pd 9.264577105631243 6.743842534129166 5.30090738585607
Pd 6.9836197928773265 5.490442370270672 4.63456594977116
Pd 8.907757431565742 9.38085654287821 5.5917806331021636
Pd 4.566165957643347 5.689480946763128 6.084149144966722
Pd 6.205160810882426 9.05658097083045 5.844521317515957
Pd 3.6692703018467823 8.182517266959968 6.344578610077807
Pd 6.082129449835755 3.5955658631046306 6.39069297385381
Pd 6.861235793227421 6.857769077769696 6.857593455465465
Pd 8.428484383776208 4.630011705758512 6.853475546021675
Pd 7.6500939262642635 9.86668268467529 7.94468903748101
Pd 9.215762193787857 7.828140446922315 7.730252451823802
Pd 10.738778693936782 5.755424108031791 7.297892957985281
Pd 4.083476236242462 4.191641328907868 8.16079096439689
Pd 4.493039179483806 6.815873241103157 8.49472030923609
Pd 6.503425416037841 4.947799934634954 8.745457953492968
Pd 5.092233873585994 9.35079151945169 8.296242864765434
Pd 8.903092217265387 5.783825293846219 9.306504318369306
Pd 6.898273652432386 7.649239903665342 9.345549671496341
