27
Energy = -111.5358512 eV
Pd 9.219401479228457 9.474298211044344 4.441926475660965
Pd 10.10989717991528 7.023301558908687 4.608007971176477
Pd 7.821652332790095 7.5246839354362045 3.274010883099264
Pd 6.644572910350505 9.878085404911943 3.94759657749275
Pd 7.661954087075488 10.387481986701596 6.362787196634335
Pd 9.26165126083021 8.210557910655986 6.878112196998058
Pd 8.14533786223304 5.311021536720939 4.93572030301945
Pd 7.037075784123675 7.520699572381235 5.824826500074929
Pd 5.214542612444017 7.6246008234445135 3.9827206243798905
Pd 9.952346458835331 5.542245968807036 6.8200981763943025
Pd 5.177546453608299 9.381002874711353 6.163812008859056
Pd 6.347807652827088 5.336795540692927 3.052400249155166
Pd 6.9268028889608955 8.786062274425783 8.289743942094724
Pd 7.8217314398600095 6.280333185436002 8.197054441050355
Pd 7.996783967010671 3.8175923736678654 7.204748798814315
Pd 6.302916934329814 3.402672385151711 4.9916266339402355
Pd 3.188851817305024 7.567234020522066 5.672461690338217
Pd 4.242974804707956 5.273061489862063 4.655433671769072
Pd 6.02956661955048 6.995843004880643 10.00442240410039
Pd 5.629029806746994 5.182189992053802 6.840839083008074
Pd 4.627614841846911 7.398147845823311 7.836808042777989
Pd 5.900349760026017 2.276724153228261 7.4060836376457715
Pd 6.13776270524377 4.358757995470313 9.205414799246597
Pd 3.7974097021355093 2.966765411032993 5.915448470478112
Pd 2.976733293464279 5.300709576332127 7.0374758794534555
Pd 3.78254521075178 5.626872656310551 9.588328308383023
Pd 3.7294579685753755 3.2365761461629856 8.546408868731978
