24
Energy = -97.95800253 eV
Pd 3.776662300266227 6.00173479000347 5.55646458031094
Pd 2.2424541842439027 7.54765716205877 7.012176168738719
Pd 4.0684253706924025 8.709729335990854 5.442064937395618
Pd 3.716378783531029 5.666847833740854 8.223453051652731
Pd 5.222494797991085 4.018915608376563 6.656844677187335
Pd 6.159437644730385 6.446385415290856 7.263177569227899
Pd 6.432388409423721 9.569118337293308 3.9135295687760046
Pd 5.865338640811074 7.101494959546345 4.429498466898256
Pd 6.445353532634112 9.157168602408989 6.4828066419398205
Pd 4.466951356767566 8.35732654199001 8.097433615529276
Pd 5.529268319201619 4.505668243562396 4.118047405298398
Pd 5.788731622700691 4.293918852376852 9.196463822124763
Pd 7.822353789211221 5.500026433723151 5.066604947705734
Pd 8.91431468298512 9.448414565318922 7.394804201177366
Pd 7.907920338691035 7.0457370295847745 2.907373197464651
Pd 7.081975882010006 8.39743957502772 8.94817350749701
Pd 7.290914792582143 2.8728261813613094 5.431254265023459
Pd 5.2966951848303765 6.81703266598916 10.088038229136009
Pd 7.884180324852224 4.328437628034578 7.587268855229377
Pd 7.829315196084891 5.953171824295867 9.679510172881175
Pd 8.495948762020332 8.28497378401266 5.076172047881846
Pd 8.828686090405023 6.841551358307652 7.396793549659653
Pd 10.299479352640276 6.3856999540961805 5.295624017443921
Pd 9.737957006574096 3.852349683489133 5.840048869700226
