27
Energy = -110.8026429 eV
Pd 11.70683720443003 6.225847526817788 8.576376750621042
Pd 8.393042018331093 9.060777453302562 9.23964143133752
Pd 9.522520019373962 7.167399010912239 7.3630642240406505
Pd 10.841760379799585 4.809751775522931 10.800529741219263
Pd 7.161866381580897 6.515713812624242 8.887057619401293
Pd 10.897257465726797 8.673876664275213 5.687333981182088
Pd 5.519985413154155 5.5309554496173075 6.875790638628143
Pd 8.75403675049709 7.353038232429349 4.78410558719499
Pd 8.064205743561656 5.250596397289761 6.37821026222434
Pd 4.021809918632047 10.216785576193011 8.647365945588371
Pd 6.567756957713189 10.479449876000107 7.964103843525304
Pd 9.604622976318533 6.279049064563266 12.66298611267516
Pd 6.979082572711736 11.191883770823871 5.429116626521566
Pd 7.620563114285663 7.53729992034086 11.388371518542064
Pd 4.771915207141161 9.865220137160826 6.148738028566064
Pd 9.92139726063676 7.180213449733683 10.176880722958291
Pd 8.145803893923825 4.9506040385133465 10.917053101603903
Pd 4.672714628674004 7.759926075717783 7.9551771831857785
Pd 8.874922768820909 9.915767013620343 6.80357281115848
Pd 6.4488078371704445 8.848698304431549 4.259328508469133
Pd 8.944351851310316 9.897177705165324 4.13937773295461
Pd 10.960885036308033 9.01651135507041 8.446811077532487
Pd 6.941598183725854 7.969229079711837 6.660363802003198
Pd 9.374924931041411 4.805182283192754 8.585585653238688
Pd 5.878601710588181 8.85677003313468 9.993877289950767
Pd 6.486362809915667 6.070947651369698 4.396175287308241
Pd 4.380663954934317 7.416273228035519 5.299190660670834
