26
Energy = -107.30976992
Pd 6.025056793593534 6.02502953973611 3.6588219355278078
Pd 3.6877446377944287 7.365000423489668 3.8122970319454583
Pd 3.6877446377944287 4.68505865598255 3.8122970319454583
Pd 6.032690338587038 3.32945570490087 3.812368946883028
Pd 8.354594863959397 4.671370130576715 3.8122560310606985
Pd 8.354594863959397 7.378688948895503 3.8122560310606985
Pd 6.032690338587038 8.72060337457135 3.812368946883028
Pd 4.471775419743405 6.02502953973611 6.02502953973611
Pd 4.425547315796882 3.2537269933797983 6.02502953973611
Pd 6.801460938660703 4.679484514653207 6.02502953973611
Pd 6.801460938660703 7.370574564819013 6.02502953973611
Pd 4.425547315796882 8.79633208609242 6.02502953973611
Pd 2.158068516926254 7.368575297257879 6.02502953973611
Pd 2.158068516926254 4.681483782214338 6.02502953973611
Pd 9.122278481695979 3.3474243504535477 6.02502953973611
Pd 9.122278481695979 8.702634729018675 6.02502953973611
Pd 9.225060157069974 6.02502953973611 6.02502953973611
Pd 6.794494500807507 2.003227259472218 6.02502953973611
Pd 6.794494500807507 10.04683182 6.02502953973611
Pd 6.025056793593534 6.02502953973611 8.391237143944412
Pd 3.6877446377944287 7.365000423489668 8.23776204752676
Pd 3.6877446377944287 4.68505865598255 8.23776204752676
Pd 6.032690338587038 3.32945570490087 8.237690132589186
Pd 8.354594863959397 4.671370130576715 8.237803048411521
Pd 8.354594863959397 7.378688948895503 8.237803048411521
Pd 6.032690338587038 8.72060337457135 8.237690132589186
