26
Energy = -106.93353985 eV
Pd 5.264007534421315 3.1846246341155338 3.792464612863784
Pd 3.1141280803175286 4.672416280380681 4.702580553817691
Pd 7.126686607345449 2.592454211809293 5.61841745939772
Pd 4.759565331477528 3.4526998787956606 6.482864142375826
Pd 4.304831411040865 5.279599849376667 2.4395325680559425
Pd 7.716894918274605 4.406792785118436 3.5530656469931774
Pd 4.44503242823539 4.552806331184309 8.865831238081256
Pd 3.778584409230351 6.168151097165555 6.807786861253197
Pd 5.8105323610323465 5.386415721695505 5.099091646623336
Pd 6.907912510040024 3.632729657377966 8.106311047203029
Pd 8.32211103622957 4.909181414296107 6.090209962287534
Pd 3.99385195839419 7.2284521219260895 4.263005521184836
Pd 6.433209278887042 6.716789391767766 2.918456386495216
Pd 6.603161920018759 5.664382546419201 10.1097417157667
Pd 8.892861932457578 5.401117825222457 8.665514961746785
Pd 6.386097402227027 6.156991233079858 7.550259128801985
Pd 8.687232384187617 6.879095543359036 4.287395019262812
Pd 4.442341911289244 7.180854304568347 9.179623029352111
Pd 4.159730684131046 8.786718595265308 6.45028077083998
Pd 6.424940325964676 7.974598703105625 5.306148916228631
Pd 8.136122737064595 7.804926772443077 9.532988397243322
Pd 8.700704171178165 7.4455261526553045 6.934636835083705
Pd 6.189292371720194 8.704555339780491 8.08383775786569
Pd 8.65552015486414 9.40320577506333 5.179008962320954
Pd 6.328972986771882 10.503659459796843 6.170578087100588
Pd 8.437112882931107 9.957637175858242 7.8380738848729745
