23
Energy = -92.8355241 eV
Pd 5.36408880960994 9.930469834889827 5.710045520377279
Pd 4.647288875975263 8.083965733887712 7.428642326939175
Pd 3.6153228539396403 6.042942597893499 8.562266002383165
Pd 2.9385180017045647 6.6674869953066835 3.6453845845286397
Pd 5.3339696281733655 7.742468973772348 4.330137139228224
Pd 4.061519938936039 5.722082683528455 5.927841159313929
Pd 7.651189676168572 8.895192614834258 4.621935217870669
Pd 5.810685643495374 7.183352315387949 9.517415554581127
Pd 9.5991442588026 4.103654444162966 8.626258481297349
Pd 9.321477149935166 7.44536454984695 5.950184324497566
Pd 7.790822686789137 6.191378908262534 4.001010068647552
Pd 10.939051432960305 5.9822259887251 7.443341465579603
Pd 7.509589736562996 9.025656073845633 9.82284866748068
Pd 5.1981962986192345 5.353376654458737 3.4715237203116613
Pd 5.529341068105354 4.421948983633165 7.9031905380616
Pd 7.33132744747741 8.948394179992802 7.247520674376526
Pd 6.4217909103183475 4.157393976821022 5.383525179051685
Pd 6.6077405831905125 6.640992527451651 6.325067030444696
Pd 3.0318374002354 8.483488340101802 5.518869107049122
Pd 7.649250452832414 5.763575047069037 8.519916486286396
Pd 9.317342287999953 7.631362936363558 8.645415336529423
Pd 8.850359471035736 4.893461621108016 6.159811330661804
Pd 7.602973939213708 2.890090368502957 7.392252628606079
