27
Energy = -111.30508061 eV
Pd 8.955888527306113 9.554990079056138 7.1330501287003685
Pd 7.937514497053488 9.802526052181157 4.432438051701015
Pd 6.539119667187137 10.832887674848106 6.586010021895802
Pd 5.190547606755702 9.48555392933452 4.586961376745577
Pd 4.524890411994874 9.092404527112217 7.201997092929035
Pd 6.780373117779471 9.162338328640553 8.748460709625006
Pd 6.949576861265252 8.1652724754199 6.208294117283495
Pd 9.123272945825962 8.3592620420803 9.688316679727555
Pd 9.224439347196748 7.558631264223218 5.0559446005015625
Pd 10.91349781494657 7.783043745564854 7.139279440081445
Pd 10.256235739192018 5.361866250589046 5.851408572494759
Pd 8.718524876612122 6.641136379429112 7.834578175574421
Pd 6.68532290927979 7.293269213504813 3.759672957181013
Pd 6.849612633435896 6.901102147208809 10.297126648844351
Pd 5.828300878446924 6.756109117906896 7.908977314893783
Pd 4.59478761658011 6.962464235814939 5.498242482564722
Pd 4.435486771114238 8.193561497231485 9.776853499280252
Pd 3.0993036568220447 6.841757964666013 7.795594763385906
Pd 4.460324211798564 5.445696135144903 9.73466052411601
Pd 4.612702009201983 4.652550691858074 6.962778719218608
Pd 6.787744114187315 4.495693548532879 8.789758361546374
Pd 5.5867164172422905 4.787365490252612 4.3354270666872745
Pd 7.434621229632718 5.389254996187596 5.998353790454688
Pd 9.010198384383099 5.391025881293971 10.070004950304838
Pd 9.046052635765237 3.8782816710010173 7.689802221088093
Pd 8.488593377341731 5.358447787732625 3.651224373999501
Pd 6.627038277740424 3.0007940068217103 6.52476628522387
