22
Energy = -88.42199429 eV
Pd 5.109226906457672 5.365134334825531 6.275806331172993
Pd 4.378043114340159 3.0597799964749495 7.429256703149824
Pd 8.81522023472537 7.474058496498685 5.5769238181609015
Pd 5.258354474486431 5.172838524205034 8.896678848225505
Pd 2.77609324331728 5.21039245846213 7.795919461848861
Pd 6.905456778006583 6.976715071517649 7.448415384947455
Pd 4.172539509923891 7.46612031635152 7.938276148120716
Pd 5.238191589153322 8.131238009117912 5.671276537414041
Pd 9.192494871621447 9.982523363365825 4.912103224418481
Pd 9.43434555833922 6.65919589148483 8.023040423734177
Pd 6.9624225219586 5.962978348630762 4.461974307334528
Pd 9.683357363917487 9.231311601163902 7.4395420986906595
Pd 8.845584470205017 4.900667769019776 6.01105357715998
Pd 7.215925631967112 9.504758696411033 6.651576857180583
Pd 3.061399805048932 6.65288984552376 5.408264479200605
Pd 4.85467927860139 4.559378536263663 3.8437619324464327
Pd 7.109323692158304 8.617354800198546 3.9145746943990893
Pd 4.801220178488621 2.2162861405893857 4.9372334313528
Pd 7.754472654020041 4.605868023117514 8.409526019467547
Pd 4.860877977057535 7.120544053406665 3.292962950733241
Pd 2.7905030561998037 3.948125905409683 5.403492737180717
Pd 6.738351357981419 3.4128327514452637 6.254108227238148
