27
Energy = -110.89068537 eV
Pd 9.665681408803877 4.277575816884841 5.590055443983511
Pd 10.100081367017749 6.195865736731155 3.9446047186029105
Pd 8.253477361651552 7.6154290433269045 2.8736971833687317
Pd 7.099673488343941 8.418547437954738 5.052910596537816
Pd 9.257957644165906 6.987805311472481 6.324736354956671
Pd 6.372801379804399 9.411215143421028 2.6403589501840994
Pd 7.9686718624659285 9.109473939187886 7.51240595566405
Pd 8.363422786070375 4.773956619300206 7.799252412216997
Pd 7.516029981010243 5.603281115543451 4.578014386772054
Pd 7.162361777969044 3.2206255807626065 5.802800248737144
Pd 9.124500887924741 2.303263359372272 7.2813678637077075
Pd 5.732615458870993 6.837755107747316 2.9521706164196635
Pd 8.640645888901386 7.06426809204966 9.034797552798596
Pd 6.772060608370414 2.8433511249665906 8.51659465582154
Pd 6.730642239532254 6.632274009945852 7.093230930826061
Pd 5.160891438754926 4.341463211198842 4.40755501306637
Pd 6.222312771666157 8.133267684386837 9.365005320103492
Pd 4.780999816564006 6.741862284237107 5.3482705916521445
Pd 4.478859220992309 9.14694323618907 4.408237522500948
Pd 5.35799243028883 9.025707248721274 6.954487409777702
Pd 6.253502819282415 5.3533258743914995 9.4139851480626
Pd 5.137765714006142 4.340117639352857 7.092750799173451
Pd 2.8733155834483095 5.180715384052353 6.013427713990351
Pd 4.101912979849572 6.565755417623384 7.989808064291731
Pd 2.8528479052479008 8.321847362820353 6.411402870403383
Pd 4.338441379745075 6.83327248744461 10.58898516704846
Pd 3.6701672139363968 8.921883583000902 9.023146646108623
