27
Energy = -109.78653127 eV
Pd 9.612166026289767 6.787198683947532 2.82230419765029
Pd 5.652995068059641 9.806963419344475 7.78135483753776
Pd 11.275491999608898 6.800861812295417 4.945084335059461
Pd 5.056855155832465 7.235384745629749 7.331073944741845
Pd 8.68012949504881 8.011130023729024 11.454259378827192
Pd 5.555940046946529 10.134356383008427 10.508647759445735
Pd 4.196477192068039 8.08510251376404 9.66355863377605
Pd 9.361217829704849 6.537646243402335 9.294163374770733
Pd 9.995733790539266 4.588889621768661 4.326264020045559
Pd 7.589753134908357 5.080704069634398 3.2745983504493363
Pd 5.998487346483973 6.09811337898413 5.172010551502638
Pd 7.791137550726608 4.195340505058736 5.782186434250963
Pd 6.20758040192074 8.739751721038704 5.400036519222657
Pd 9.255926796309248 10.627380627868963 11.337298280320663
Pd 9.816294571910289 9.161554782018268 9.248160095503005
Pd 7.121284470531862 9.809494859822205 12.713095826818709
Pd 8.162517438145432 9.087404555362488 7.09531752548152
Pd 7.051433805476289 12.098294150770936 11.356147864091767
Pd 7.749562804206859 10.87496337942896 9.109967709243698
Pd 10.523024679958457 7.877735080942163 7.16469992785557
Pd 7.0196687490615375 7.6625988244566745 3.151863867163209
Pd 5.992569572294668 7.63443135298755 11.658606211793028
Pd 9.93854929600125 5.314246886777433 6.948620558981437
Pd 8.6062250521099 7.096820023804163 5.253882358937132
Pd 5.816315315685128 5.9371013333178935 9.57028137099799
Pd 7.484976984311943 6.217878366928079 7.477592531900314
Pd 7.123621522698226 8.203130921338282 9.35302465429599
