23
Energy = -93.38199027 eV
Pd 9.733195904621988 6.09378987653538 8.569698104071776
Pd 8.335300562674057 4.917210178338717 4.7031630797451225
Pd 8.92221313372783 7.094880569517984 6.181325150471777
Pd 7.891232969623269 4.797674935163808 7.300077705727752
Pd 7.962466026180328 5.717609599369263 2.1536124602540805
Pd 7.406160092582978 5.174387828472222 9.891069475346786
Pd 6.023660150797848 4.46006463463632 3.3157517769284546
Pd 7.608093821466654 7.527098385223419 8.441080499256927
Pd 7.493057676347628 7.491206440976151 3.959365223353996
Pd 6.1404898777134775 6.215185580405906 5.8863575920286015
Pd 6.799154953596861 8.762087795547057 6.239450629815222
Pd 6.145753143410268 7.438919290951715 10.59445947421246
Pd 5.470226135524251 6.799658950945454 2.239642320326985
Pd 5.795872128727136 3.485553503215591 8.331560551018159
Pd 4.936481622234876 8.308168749761618 4.31976278127648
Pd 5.161070459578728 8.596507765153397 8.48063629892733
Pd 6.21945562562518 3.5043256699848335 5.743257877846502
Pd 5.270995497587548 5.999323938290593 8.461943163303038
Pd 3.969865940849136 5.850831806814583 4.318531173316468
Pd 4.370996076545875 9.850064973607088 6.3337310505252535
Pd 3.965078711760755 3.2281364192931816 4.459189264145573
Pd 3.719796881997558 7.293965782247956 6.5911728963377705
Pd 3.8673340395730356 4.613847532673564 6.7183370226325385
