26
Energy = -107.01376922 eV
Pd 4.767029324042607 6.938653306404889 10.745186985001085
Pd 6.078393396294011 4.955297267209813 9.504648760740174
Pd 6.537692932807712 7.773718079958952 8.95495562843382
Pd 3.389889753434891 5.288057715443751 9.27698807497714
Pd 3.8946243725551084 7.702406301894831 8.285128008845147
Pd 8.166489322387603 5.966447704432378 7.918474471072589
Pd 9.675445667406363 4.07781089187482 6.9143408719417
Pd 7.100648353391671 3.612657135025457 7.3753372289705945
Pd 4.423515479541767 3.469375002995742 7.642647691784135
Pd 7.423512263547954 8.09501731834485 6.3960342025198695
Pd 5.530799358310623 5.944854733738497 7.196987660748005
Pd 5.429777402767304 9.58206253246433 7.189001491115814
Pd 2.9501414700997506 5.688736311450758 6.656522936723972
Pd 4.411296813738674 7.726021810281921 5.564551388485494
Pd 6.659988746938886 6.145878508134275 4.820016423043493
Pd 5.472520527027315 3.7595711211764553 5.189550577689389
Pd 8.076317498465588 3.8508901810327063 4.820957802580845
Pd 3.8688078157310613 5.512795303531779 4.118455939919055
Pd 9.273284222039283 6.3177433181530285 5.48702456912744
Pd 6.0601858362970935 9.519314912032291 4.577379759434364
Pd 8.037033811122757 7.994937528934966 3.6306591159217936
Pd 8.860870085917504 5.539798111660817 2.9515986481125878
Pd 2.8979701018414086 3.3728703924016257 5.391955007403438
Pd 5.312325846294165 7.458435643661214 2.9747808475749
Pd 6.233054623979113 4.711658456348775 2.741078893808136
Pd 7.251894149995043 6.776813923983608 1.3260917137259562
