24
Energy = -97.46712874 eV
Pd 7.215327215860828 7.611042654678378 2.218018034821851
Pd 5.994193108016151 5.609749541355894 3.262955469537262
Pd 7.936459247135123 8.476977390218932 4.512015145287393
Pd 9.202500385299453 6.978811464198662 6.249869472107407
Pd 4.676974437015894 3.615869344343962 4.397443471194838
Pd 5.25127087934652 8.18134916763642 3.8501674260184333
Pd 7.224914440168199 3.980869698774176 5.018284299390539
Pd 9.667521069961033 4.488865956808229 5.766489434721414
Pd 6.60308270403111 6.510813286279288 5.70145753165853
Pd 3.4092176669148646 8.52032651105745 5.715708679838076
Pd 5.921434142541491 9.113752889974865 6.340274385427194
Pd 3.959143182907673 6.086014495964186 4.9601649860294605
Pd 10.356553049789797 5.475530143710935 8.158465842821744
Pd 8.49492985066037 9.419203805768385 6.908256054045385
Pd 2.0712459705513298 6.503320760168399 6.8187215574020215
Pd 5.277076014243625 4.388136614924746 6.858866747822578
Pd 7.12615700066875 7.551971462447799 8.183309940050075
Pd 4.5728563965549345 7.1292723977910075 7.625387396574064
Pd 2.7007244624321727 4.026031214032426 6.172871384849618
Pd 7.79298450127971 4.785206429861318 7.548880363531784
Pd 9.718206351717193 7.966777984129274 8.754481145612523
Pd 3.339012477230187 4.953794816653939 8.606080837124534
Pd 5.868983151223811 5.455098890002555 9.221698422543335
Pd 8.387993543191225 5.939974327960359 9.918893220331226
