27
Energy = -111.61422172 eV
Pd 4.427227185686436 5.080223445381328 4.351496120047104
Pd 3.182862870611263 6.639093174711514 6.1296414323271335
Pd 5.3172881521933695 9.647998744232238 8.37121269011147
Pd 5.045224825857787 2.5881377108031796 5.347030944565358
Pd 6.2888143967544625 9.776392160157373 5.7831031733818214
Pd 8.904975484525714 5.254760757576451 3.2114480193931736
Pd 7.528835908756237 6.588764832487839 5.414763501179864
Pd 2.918817304130377 3.9838021853311956 6.269331661754199
Pd 3.2446565440289867 7.903598437445851 8.514251402417441
Pd 5.771762102515143 7.091322897096919 9.438754287518
Pd 6.0858791832629135 4.4266952941060485 9.367852533258551
Pd 8.722080023485692 8.958463184769784 5.556780284624631
Pd 3.7014979722446997 9.258275623304153 6.1132008876603345
Pd 7.948747174650776 7.892454285207396 3.2070492170074316
Pd 5.29829792485353 7.761790313908428 4.308206050519203
Pd 9.872167946483756 7.1254194684885075 7.133279289068264
Pd 3.7239094383162774 5.319680820685403 8.547714886111219
Pd 7.844752310866637 5.718689709346146 7.993775481894972
Pd 4.522482682281821 2.7252291294792244 8.023346290860296
Pd 5.518220018557838 7.410747161802405 6.913117257081537
Pd 7.685193931057613 8.435645207822862 7.967013618733176
Pd 6.331602541593934 5.821009189936652 2.7678919095004826
Pd 5.543994628765222 4.9075723772074795 6.7011675375184705
Pd 7.33031686927465 3.0889719041734085 7.134736090616175
Pd 10.253063530978096 7.073956202545459 4.524395560793533
Pd 9.351756111501102 4.7526141608286565 5.923581964464338
Pd 7.084153251552468 4.0423624480159575 4.6100693921689935
