24
Energy = -97.83885263 eV
Pd 8.606905924242204 5.720515047030164 10.73638055440314
Pd 10.079722335852782 5.611192288029797 8.537315913936654
Pd 7.2176898480197575 2.835670016453078 6.447769792139206
Pd 6.1506058590271895 9.837639382406554 3.3724179759158677
Pd 6.756540821767498 8.922413249431258 9.797942995342336
Pd 6.487260764284846 7.2237942499006245 3.3435917402900066
Pd 5.730866226072412 4.618062674514669 7.553915278964989
Pd 9.511470410351073 7.480460310370854 6.694478445383181
Pd 8.79940797505232 6.409368939725776 4.293705115080634
Pd 6.336300635611847 4.9253912750700515 4.842771317844749
Pd 9.306022772057071 8.040972031413032 9.359403531303448
Pd 4.629855560034675 8.472740075938054 5.009404482397072
Pd 8.186061905356222 8.984907909326221 4.860712026645648
Pd 4.155902374512315 6.111264126115961 3.8853562069289316
Pd 8.448970071213111 5.104163704738398 6.517542134881991
Pd 6.1219665168348225 10.417127131841285 5.972343745209376
Pd 6.6618820309492754 7.234650754801514 6.0977383406626755
Pd 7.264611830458224 6.598706793838079 8.56236110252345
Pd 7.943945302596684 3.9174552208166467 8.839934030403183
Pd 5.149422398416672 8.651949426869969 7.74762284891455
Pd 4.091475432311622 6.314794947606714 6.469556242491007
Pd 7.926000485435972 9.432308910399282 7.52422721786631
Pd 6.217125050507816 6.749291461811475 11.081304661131094
Pd 4.61302198691957 6.432946348375454 9.040311205592419
