21
Energy = -84.06558875 eV
Pd 6.473998928751261 3.4870723280189995 5.4377607276934805
Pd 2.919985221135648 4.988613968206701 8.17198764828662
Pd 3.350361193981186 7.613879143198537 8.267752364923028
Pd 8.46800049712404 8.186766966065116 8.727790722205102
Pd 7.746989000837401 6.547529405023304 2.9900812762485045
Pd 9.700893792674776 9.029843497554666 6.496988481810445
Pd 7.310093206103314 5.836187562312703 9.30172290882203
Pd 6.014160481230772 7.492992522641795 7.638554192517076
Pd 7.18419374708277 9.798066715244923 7.01713639593356
Pd 5.511683641443335 4.7753646156898055 7.4953704598908635
Pd 9.830492546974908 5.822891377628994 8.742659048706997
Pd 8.167023007779877 4.144354853916313 7.347708843519919
Pd 4.795351480578053 6.034138181763025 9.742342753826687
Pd 4.6029968295634935 9.799278993123128 7.563775323438384
Pd 3.8227258862551388 6.34658771048765 6.070964725113031
Pd 7.69010943297112 8.411785997247094 4.825511176305292
Pd 6.223675836860429 6.077352651951471 5.087484267538491
Pd 8.511869695220335 6.6352479964235895 6.6382244246218525
Pd 5.134342419358044 8.54729021572572 5.330219267336562
Pd 8.641475836184757 4.81071588830732 4.745679673969532
Pd 9.954863931681516 7.151832214558072 4.441118677206027
