20
Energy = -80.61272844 eV
Pd 6.856788482124802 8.030369182999237 4.442218000834038
Pd 5.616101346979082 5.675566997757196 4.679534724547372
Pd 8.264064984230554 5.666541027298148 4.675935473980315
Pd 8.216180333564115 10.283365186295034 4.662743922834986
Pd 9.401729220073983 8.006463082100709 5.375900441649197
Pd 6.979018200294636 7.064270990702054 6.894153011273961
Pd 9.323756897586494 5.953906963077906 7.0992430351417015
Pd 4.612410373239606 7.806094823123426 6.086851447131716
Pd 5.906368222753458 10.078913590121601 5.986839237825106
Pd 7.013160062263356 4.452650310832225 6.713581625268207
Pd 4.489826564961093 5.399930986134336 7.113561271575585
Pd 5.768410320693845 9.033697179077286 8.451065044776529
Pd 8.122841711108434 9.464272226633398 7.2072957316904445
Pd 10.352863223784889 8.250170001305126 7.923303200593321
Pd 7.936708449016376 5.000304921412224 9.236917537193717
Pd 3.531161078492598 7.566526772347329 8.441183851690091
Pd 5.635199142143116 3.853369461605322 8.918538188284915
Pd 8.101967813534545 7.795663053427782 9.321994331784792
Pd 5.75143261211032 6.484489445428478 9.252474442415402
Pd 10.215790334204849 6.229213171481315 9.612444852669052
