24
Energy = -98.41199508 eV
Pd 9.316226977813425 4.734588418214422 7.871674655748267
Pd 7.864360901888686 6.519566041194962 6.519515266218553
Pd 6.523652638093445 8.382966131802075 5.035078881408918
Pd 9.318468780867622 8.301035056604858 7.877567218872589
Pd 6.517011559233133 4.656981263143986 5.034123192268583
Pd 7.853345093652069 2.9063087031151245 6.515917619902285
Pd 9.318498115747097 8.303467278425076 5.169320639308454
Pd 9.317607080730415 4.735979157266635 5.163060261489969
Pd 6.519039706318182 8.381799616530165 8.004321891566976
Pd 6.520767794089536 4.658706670845602 8.004267866555704
Pd 7.904065144982916 6.519921321160123 3.74293213159119
Pd 10.74408659316804 6.518232827088975 6.520870385967053
Pd 5.179341533720671 6.521049246544301 6.5193682125249675
Pd 7.903167952541849 6.518643760064397 9.296678996021335
Pd 5.138727893110659 6.521865022572011 9.299744141592361
Pd 3.7244489079920715 8.301829013200015 7.870476161781174
Pd 3.7217637080183663 4.74340638841471 7.878928722993827
Pd 7.8567532946979 10.133025672116098 6.525270717504815
Pd 5.138745081857201 6.519802886242975 3.739782950434913
Pd 5.184549235524726 10.132675457772471 6.515880994973385
Pd 3.7232358524823583 8.299741308319259 5.161798679353463
Pd 2.2907015623005216 6.521833379954043 6.520766927186495
Pd 3.72252527537127 4.740247044797946 5.169855895894721
Pd 5.1809249576342875 2.9083439703228486 6.5248132123065705
