22
Energy = -89.37493718 eV
Pd 7.195988483765517 3.38667471288968 4.587149647177079
Pd 7.648917216500999 6.383052053637024 8.547613463482898
Pd 9.61837004343329 8.160101461028919 8.632629158499716
Pd 5.3828925875488745 5.134494987509686 7.965338766546548
Pd 8.756349683565364 8.056655287803034 6.162784791728222
Pd 6.5712860565893845 9.463099360279877 5.61663442527062
Pd 4.852132818131984 7.954372453407768 7.028710517935773
Pd 6.486745553627885 5.649567202308788 3.225888110417899
Pd 3.043823289694978 6.443120252464266 8.296771707839362
Pd 8.7534672930766 5.55471169206606 4.6892872600174655
Pd 3.767376887983119 5.825726055100751 3.168945850317887
Pd 5.655467383831731 2.7531070759951795 6.828372142631726
Pd 7.830232715230509 4.217862207668384 7.017822342700641
Pd 4.949781660301641 4.603342980624779 5.1499555378869095
Pd 5.068831395243926 7.790387939922063 4.278012782100269
Pd 3.1446415769389007 6.421951314724077 5.660966130580604
Pd 9.85760286508865 5.898372981404899 7.138662515020951
Pd 7.770876432038052 7.937936886813554 3.7228098034755526
Pd 5.341740814956027 7.278783118123943 9.526476246587212
Pd 6.674020567208748 6.460163134668339 5.954386654995726
Pd 7.0763886449776185 8.920688914049054 8.184316919070351
Pd 3.1470618350899673 4.067810896401654 7.027656798524318
