21
Energy = -84.37016099 eV
Pd 3.5924750682352182 8.064280428764688 5.474544310649603
Pd 5.654244327486077 9.272628446998109 9.4482814669917
Pd 7.875472577015207 8.078293786699025 10.552682341273897
Pd 6.02234862249844 7.883859144865113 4.423467981656661
Pd 9.548508522387795 5.010911362184526 6.988336517776855
Pd 5.755392164686605 9.027347055237552 6.752525528603545
Pd 8.462894886855317 7.275658134938288 3.693647260948858
Pd 4.554729214679428 5.166024485350099 8.59197574209794
Pd 6.444338479354112 6.958406070587416 8.584410187985215
Pd 8.49686434894094 5.547427182349868 9.461474223006586
Pd 7.779764850829466 6.7671258272604975 6.215355892041283
Pd 9.875192703014786 7.33791243218779 8.152722961337888
Pd 10.29059692647977 9.715273280128116 7.035280425449439
Pd 10.058222608194251 9.486373282094375 9.760108514085966
Pd 7.952833172174078 9.225960118983096 8.133927366973346
Pd 6.959556436455111 4.546911655117791 7.5508726134571775
Pd 8.162145085794766 9.291599932560201 5.458180644195311
Pd 5.19109990318466 6.1243290942522846 6.232364053092486
Pd 3.831880706595772 7.71626657099111 8.098781196173338
Pd 10.303926076147942 7.438670659597983 5.546466585134024
Pd 10.273474277522142 7.006119977210043 10.731752570080568
