24
Energy = -97.62409278 eV
Pd 9.263710688699335 4.868491334915165 9.286037021530055
Pd 8.792512851165549 6.403655388822581 7.223741166238501
Pd 8.940791521810118 7.028789818648553 4.615187441149131
Pd 7.188690967310531 6.39451984162319 9.65222099208813
Pd 9.062704825774018 3.242080133946522 7.270471336092602
Pd 8.128166643946349 4.602442057978596 5.235923376236039
Pd 8.48374884257036 8.492080033919105 8.811075239117384
Pd 6.853511083244906 4.5141602125242875 7.837397971123011
Pd 6.356832747144754 6.598519761367468 6.079036879695725
Pd 6.905295080884835 5.85288380393939 3.3157162188806866
Pd 7.835984915099594 8.826936585768097 6.275519210027876
Pd 6.692109017128628 2.5397931714231095 6.144905272347778
Pd 6.844428318319712 8.503442803935998 3.824756361935953
Pd 4.7881779969053575 5.8321283148310465 8.758016754002218
Pd 5.881915763906739 8.219676686040877 8.17929927876439
Pd 5.368391669234347 4.470554482340303 4.929727776656441
Pd 4.381084169059404 3.635736554275266 7.202999582016445
Pd 5.412129367704664 7.465457074017845 1.8340063705574978
Pd 5.157154180586169 9.089287151187403 5.802210566567577
Pd 3.67495537265591 7.159126266499498 6.748933741848654
Pd 4.363717740060796 6.835889691972107 4.1574976908898655
Pd 2.3760067905473887 5.196435417623936 7.9889832089049255
Pd 4.3547881906736245 9.338878229433883 3.296545139439193
Pd 2.8370789906108382 4.98093677172136 5.39696729936288
