22
Energy = -87.66281724 eV
Pd 9.964933361783665 7.024129055298569 9.45713451079878
Pd 3.875674358835528 5.207129411701491 7.816002178306562
Pd 2.320841925944814 7.2420637042461875 7.995308028026889
Pd 5.693844837868899 5.111026710691161 9.810400857533363
Pd 6.8107641890922475 8.10632519210541 5.5391404010332765
Pd 4.605632477685853 7.523882689178428 9.234413285434467
Pd 9.22404194629596 6.757446811743452 4.805663854459459
Pd 5.505899188379262 5.741341870237327 2.8316672629234096
Pd 4.3752563051700815 5.7188922417522585 5.296956377820811
Pd 8.696375475054587 9.40304760094163 9.34312729446034
Pd 8.640000795935707 7.62177846806549 7.316223357192754
Pd 6.363934629703019 6.148545825037148 7.450481903751029
Pd 4.387589953551146 8.00775662659736 6.619903985257344
Pd 8.762389360587775 4.854384220976575 6.6626223422109625
Pd 7.1740353284874825 7.346424553872019 9.938356223212695
Pd 7.315588586171444 7.727106075237699 3.0525976625012894
Pd 6.501572991097993 9.058919406103739 7.970027234900115
Pd 8.251175686155824 5.034330526876264 9.157582311814393
Pd 4.738453998254771 8.0689005540541 3.9708442579655983
Pd 6.907723119497601 5.3854939051413195 4.975989900037908
Pd 8.263465816712579 5.30123843093828 2.754790790075758
Pd 10.868986392868203 6.365026254960474 6.9385674266968875
