25
Energy = -102.33007165 eV
Pd 6.14520029455796 7.3649271644965575 4.2413082124116865
Pd 4.710896880669645 5.2469088775384 3.743058492545259
Pd 8.743823635900101 7.329277093482864 4.966849484582995
Pd 4.118843814723875 6.8249095249086515 5.958762471704727
Pd 7.259441501520234 4.980786283743699 4.553773247811436
Pd 7.15979099446016 9.49306278237624 5.462364328298146
Pd 5.431114225187948 11.287620386140667 6.47747561865403
Pd 9.628644928393888 4.903142195254312 5.721636122056317
Pd 5.198874762965289 4.431066651309361 6.1674752196062235
Pd 4.498750752666584 9.30641809110397 4.958161929718703
Pd 11.015840856521427 7.147931706853349 6.333553437650278
Pd 6.92063985586212 6.77661756680578 6.766976661273115
Pd 7.609571430179902 4.1989707339459645 7.254368225811479
Pd 9.262847562180498 6.109369185760966 8.080120870687857
Pd 9.05578164205073 8.742448439237158 7.2183447074166125
Pd 7.250605813233186 10.398837288411366 8.105118370977069
Pd 5.200164084358169 8.761552770678687 7.454760429852676
Pd 5.411173524681386 3.7465713935667226 8.687985277585577
Pd 5.046656053820975 6.361672140341682 8.585900575721551
Pd 3.083944788899891 4.947915271622059 7.547766593995377
Pd 7.272508643556208 5.368375704719696 9.70458212917167
Pd 7.087211513857003 7.97499741832407 9.222121934216807
Pd 9.165451297806236 7.030215088943965 10.565920334338836
Pd 9.111797987244952 9.65970543541822 9.768186416871451
Pd 11.019559753106597 8.015837403421104 8.862565505444927
