21
Energy = -84.37469234 eV
Pd 8.155053608171004 6.5155482120293575 3.212766803932949
Pd 6.085716716980788 7.096092690662997 4.783279992359068
Pd 6.776894805729952 4.5608321616486895 4.457058798314173
Pd 8.12821478774731 8.706932840723839 4.670873351623671
Pd 3.495980947610625 7.669446796451506 4.564277129908898
Pd 5.629737843342018 3.25863328086795 6.531303222476629
Pd 7.372760276003644 10.727757339302011 6.095964114802393
Pd 4.302716835932123 5.182450708971944 5.185228448835061
Pd 9.461838750955158 4.453276428460694 4.181299435460402
Pd 2.1259992758145687 6.304512544013888 6.332681142862101
Pd 5.2216174918276055 9.442524675872317 5.499367583883911
Pd 8.367928019151789 3.8053573485586676 6.457513097059036
Pd 4.4436126742800734 7.477665306075712 7.127235318479038
Pd 6.412765956817769 5.649022590758668 7.170152137636424
Pd 3.8088099794792876 4.982521238327754 7.809615125600737
Pd 7.107570703141056 8.382026596482516 7.203507348985698
Pd 6.012023331181772 7.32326417405008 9.306621621769077
Pd 8.65039334813497 6.386131050573763 5.8869572607773355
Pd 7.935451173519997 4.218326867698423 8.947197587390527
Pd 5.5419699749676985 4.797833661157261 9.687820544349492
Pd 8.572844331606603 6.704344270802394 8.527391206778239
