27
Energy = -111.35472039 eV
Pd 3.9328648762303224 2.966108117434951 5.533802715533877
Pd 2.4179664999976875 4.898643787195148 4.467102571947476
Pd 2.3089009248539867 4.698004559255407 7.13568366415236
Pd 4.861097167271724 4.451781412346436 7.415704445088235
Pd 3.5508449870533854 6.575745960407707 8.616602734280859
Pd 3.6644633756135585 6.924910890556051 3.305296412857891
Pd 6.627581099622641 3.2105511234738553 5.700218614090802
Pd 5.135710593187974 4.915617023391613 4.276794914165368
Pd 5.431054613890133 7.995670872081097 9.991536750929297
Pd 3.7237568853854195 6.659101956623444 5.967435579052118
Pd 5.666946395095871 5.367346869944949 9.714698757430646
Pd 7.4593139654514315 4.373307845529569 8.017240558782698
Pd 6.574351779219084 6.1908857662589485 6.243334484955546
Pd 9.192229483557776 3.918499593167242 6.137991095445137
Pd 7.839235340146102 5.122783836062274 4.174677834688084
Pd 6.280557394243286 6.631262155839964 2.637272411832885
Pd 5.6189573822633925 8.12078796251253 4.727881926128647
Pd 5.279756875528676 8.267630389548993 7.3886662580642115
Pd 7.358805409816018 9.561476858694913 8.804692471499733
Pd 9.836470241920408 5.611931030825718 8.38075615061442
Pd 7.533266944596678 6.935313655994906 8.706559852935781
Pd 9.206712815455882 6.545825927476065 6.072264389629504
Pd 8.272130075776305 7.816328233913573 3.939311337091868
Pd 7.610881586140682 8.86126991150301 6.281629575182786
Pd 9.267461491579573 10.699384271186558 7.279557684188973
Pd 10.158700182912849 8.955290805005125 5.480328556580122
Pd 9.747119235247732 8.275441643804767 8.131541830442176
