20
Energy = -79.43913054 eV
Pd 8.968962192223664 8.577108786225207 6.580850067830587
Pd 6.646423477234358 9.705722746181914 7.04698544957111
Pd 5.012479934147003 9.034087854697459 5.0684851571759815
Pd 8.805239102711274 7.128802294139238 4.363814597152586
Pd 9.430267257134753 4.66998536776445 5.179062376422175
Pd 3.069956048675874 7.864030364326026 6.444910057522978
Pd 7.288830347149283 7.315196102171586 8.597888993777248
Pd 6.723762600655552 7.225373760086645 6.061910503419831
Pd 6.323273581449854 7.405361264138444 3.3629335700926393
Pd 9.452696107675932 6.171670562350203 7.345685487481808
Pd 4.805201722217536 8.446924499158001 8.323766445310136
Pd 6.924953703583185 5.084826043151349 4.523006870719946
Pd 4.9949021100387085 5.9260058683353405 7.863313615744376
Pd 4.527874172175604 6.2712047411015535 4.954704627437406
Pd 9.550497007871366 3.5199272171090548 7.537707199446988
Pd 7.269973138989793 4.819935693656682 7.419371093611577
Pd 2.738124290841272 6.851856313738016 8.843283132102883
Pd 7.526525938194684 2.8030596346574446 5.76894279345068
Pd 5.095003542878249 3.8741300909323466 6.122000279610543
Pd 2.8028162805792873 5.152507718724852 6.643913470179984
