28
Energy = -115.35766969 eV
Pd 5.327214590145809 10.25805363124892 9.019802364790207
Pd 7.384068925974053 8.731366855207883 9.721195200606005
Pd 9.38875135039101 7.178718729059356 10.34737337066235
Pd 5.155749367532404 7.6248004515497465 8.64138085075508
Pd 7.184258959245107 6.0514802113686 9.374313091519282
Pd 9.984949891819442 3.233567583662923 7.099010141209826
Pd 4.0637459351041425 9.424702903768335 6.852767875770041
Pd 5.040954072272172 5.056049709490604 8.20620139169522
Pd 7.4424221886583375 3.9553486052117526 7.636238779578508
Pd 6.815294116519741 9.155563819300323 7.106543847860388
Pd 3.7554746310195557 6.8257072653715385 6.5765726580215365
Pd 8.918407606238768 7.641323070773323 7.765703557143674
Pd 5.054820968214542 2.54252793630903 7.55061731187119
Pd 9.605009744537549 5.218472285504251 8.641185422478129
Pd 5.544319840031073 8.452425495453266 4.9115153993354355
Pd 3.388541299620156 4.220716826338158 6.191569435615994
Pd 6.527416384934861 6.36679164567866 6.457656402435584
Pd 2.844372590479296 8.547932390732754 4.685059923301622
Pd 8.219453190961646 8.006806764922718 5.2408324378817275
Pd 2.251168183952388 5.953841463514248 4.5532750748627775
Pd 5.827722689069925 3.8130841363682704 5.446460604700238
Pd 9.175532921209758 5.582587663257283 5.997211571189935
Pd 8.303400514782737 3.1254207898018542 5.085931746716483
Pd 4.363832591609029 7.842758641794337 2.6015547900432088
Pd 4.755951846373543 5.840099483728112 4.126409051918093
Pd 9.463074666163545 6.61638656685536 3.4253084807412915
Pd 7.335610406694468 5.282185569267363 3.970941632390256
Pd 6.963830908277997 7.560203522887133 2.852795876974467
