27
Energy = -110.74419119 eV
Pd 5.274393373056773 2.2447567399680795 4.695739090803773
Pd 5.722049551222005 4.712381164550481 3.983789236433677
Pd 3.942137449718419 6.479548885111298 4.939111157680954
Pd 4.413001915006433 4.134657835693204 6.272976726410057
Pd 4.568805963146503 9.075276356636529 4.775737346014972
Pd 6.287097546103823 7.215304060776506 3.7117000517249883
Pd 8.622272003915262 8.269025140179075 3.383937584641911
Pd 7.012394339792031 3.58131060737634 6.1219218940546725
Pd 6.483877068026634 9.783045042295802 3.096067926726584
Pd 8.263496239152861 5.494482749984528 4.5904466294334405
Pd 2.7050532347709866 8.347081014948289 6.4791775248234345
Pd 3.8230163086146147 6.221364729797832 7.606180739344172
Pd 10.51506864145269 6.543803931417453 3.6484931786200416
Pd 6.2987203522954385 6.386272948607326 6.290652893124028
Pd 10.675016543724098 5.333000746834344 5.9985981892892974
Pd 3.348940066320686 8.166334409866385 9.232082377590027
Pd 8.496958457233639 5.223740015053046 7.383083399926619
Pd 6.010277382091549 4.751824630370062 8.439298686728405
Pd 3.7809436330602426 5.603796428549117 10.11205799272541
Pd 9.37065556193651 7.62374983787882 5.827981168364383
Pd 7.77768906666263 7.982911619461527 7.9007706047142
Pd 7.165978117698845 9.095204709601418 5.575557370228095
Pd 5.234338684774489 8.633621101553267 7.354123933451701
Pd 10.253382936412718 6.925219289815461 8.270756077626237
Pd 5.824962183524436 7.240540039476521 9.554635153961783
Pd 8.190618555643882 6.056453910755508 9.817150586304304
Pd 6.170252064878312 5.070951321012052 11.105816369803918
