27
Energy = -111.77551218 eV
Pd 9.170364936968026 5.063543922522245 3.845236808245056
Pd 7.000240628688278 5.581150702221458 2.3945522985536267
Pd 8.39996120208362 3.616894310025438 5.975936352752435
Pd 5.835749195674957 7.560876103372232 3.744533681347963
Pd 7.1223927123791375 3.2307587234163133 3.6744750498528758
Pd 8.491666903799718 7.613980351349747 3.391277094458561
Pd 7.202883647179155 3.397798771803571 8.353917426243534
Pd 5.066015469558731 4.919157760506325 4.067214139608857
Pd 10.73783028021402 4.824174228191412 5.9723617875009705
Pd 3.5714818575712486 6.848391356527665 4.978976431403025
Pd 7.141098245169118 5.871167187345515 5.389571795698437
Pd 5.832930028682042 3.4165774675912592 6.044735563047267
Pd 4.814561907161758 9.091210343963516 5.7009021704900515
Pd 9.420218020924606 7.094542042898302 5.84146864776079
Pd 6.371792249767511 9.983851389417753 7.685207062501539
Pd 2.316440895752154 8.711412742366484 6.4218961243711306
Pd 5.674246216069288 7.126858081252191 7.2063174724000705
Pd 8.923162736566846 5.397787991054975 7.839114327691829
Pd 3.2961156186689813 4.344833383402516 5.947087378771117
Pd 4.8148125376222755 4.614356375013455 8.13226863929195
Pd 7.420552404701968 8.780404492819345 5.544828842908406
Pd 4.043919041930202 8.867963630499087 8.431974470913348
Pd 3.1288675978541 6.481842726709298 7.540456527304991
Pd 8.101719198090294 7.944216130401472 8.0142772268254
Pd 6.221454507532564 8.391850780536213 9.877353274916057
Pd 6.797906471341376 5.8687883153993985 9.265477879025958
Pd 4.29533830165581 6.56933350299985 9.932304339722702
