24
Energy = -98.37681365 eV
Pd 6.167661627937383 8.077794701032639 3.4654994922154545
Pd 6.6461067542907655 3.816801111512916 2.1188262868239685
Pd 5.9878651890878976 9.47943336238244 5.739163378873764
Pd 7.995307212108736 7.718540560694854 5.364545949967194
Pd 4.494384795659106 7.242129685068307 5.347528246625036
Pd 3.788027600316094 8.932929808262159 7.262520083824542
Pd 8.229356127034801 9.528547398826742 7.355391013522733
Pd 5.062215676769852 5.556288235775476 3.4282265382957804
Pd 7.695814457666322 5.840329234271577 3.532714220436078
Pd 5.865379409444299 10.156037020009645 8.385790208135985
Pd 5.627729036060341 3.17327687082006 4.47109591040156
Pd 6.456818937472778 5.362513506018064 5.86465824337401
Pd 3.8078462096883166 4.658601408903711 5.734896114652622
Pd 6.250269155973852 7.448949132130827 7.466089529628738
Pd 8.863439320934617 7.022826815757565 7.8354893908477035
Pd 9.087884721137952 5.251353318211274 5.856715062408792
Pd 8.278584562466952 3.3334702962717473 4.15450707538171
Pd 4.640496787915504 8.156399971075842 9.693877007412642
Pd 3.8833211265372687 6.307925579063182 7.856172828933087
Pd 7.21836708675367 2.7710764742107337 6.507773069788793
Pd 5.335805859557878 4.080814360601571 7.877673231275217
Pd 7.422629220041036 8.344105535686365 9.707436324957547
Pd 7.915690275922224 4.633657843857133 8.209652166580925
Pd 6.156731539302928 5.982567254039567 9.590330103649162
