23
Energy = -93.75328555 eV
Pd 8.165034983660567 4.408973547727725 3.955279330931101
Pd 6.473846040845376 5.814297432937516 2.3991246809331717
Pd 5.617427181450519 3.5274085547677156 3.4464769747642534
Pd 8.820815671437343 3.3835495060066707 6.388293744396522
Pd 9.636309022600628 5.8265669226112005 5.71252050490999
Pd 7.466074531758703 6.90057252051015 4.608590021213184
Pd 6.364168355838973 4.245927749368932 5.831450626848084
Pd 4.702872368964255 5.99007169452998 4.397001540764622
Pd 3.7286851035613893 3.8076348867517473 5.421748167991324
Pd 5.584474364902237 8.235288376933967 3.3060390346517554
Pd 6.8849092153305715 3.1774309770680085 8.250112785178061
Pd 7.912825229236105 5.553356167467431 7.745744275264396
Pd 5.80063972532428 6.865144138538221 6.696370550020471
Pd 4.651023759536157 4.536127428902984 7.804025952120783
Pd 3.9625010954438826 8.44966283755195 5.4356382371151675
Pd 6.522988406518619 9.28794514222186 5.554939792321509
Pd 3.0750346554656507 6.227167566451149 6.5459160597071815
Pd 6.215191116638225 5.329829485810181 9.79583623426659
Pd 8.529977746588909 7.974426050742798 6.794815870716624
Pd 4.920077233624099 9.277042784611318 7.76322346720093
Pd 4.262737573814322 6.98471433131418 8.887532137601507
Pd 7.4460163152843215 10.086930095107835 7.921366514599424
Pd 6.903169252743529 7.758384501086324 8.996195369672185
