22
Energy = -89.14639963 eV
Pd 4.5647836361663074 5.892395082529433 8.93420788836657
Pd 8.558586178597539 7.332905005058217 7.314447158892772
Pd 5.055754178411231 5.838768705343676 4.54537640580685
Pd 6.544892174286732 3.7593517652101753 5.280860684583125
Pd 5.215749459146034 7.811791907964206 10.643190616205235
Pd 6.682695058016571 3.956829848005756 8.296551009537154
Pd 6.094066750528628 8.404050785549561 8.178340213296346
Pd 8.800919140577687 4.549812589900241 6.442727870720069
Pd 8.836616464438011 3.989441957490385 3.852858219560899
Pd 9.15079171150785 5.048323729661759 8.897416678338388
Pd 3.9394214080702907 7.051918645774495 6.562294881909879
Pd 6.566781259591582 4.686411163545426 2.7313281986270215
Pd 4.340275048833422 9.620750171059083 6.550721457769353
Pd 6.420757532341815 6.018812514297906 6.858478307077177
Pd 4.35477370384584 4.34209766342225 6.772636708431322
Pd 3.4747921624636318 8.404490716866121 8.811683815439267
Pd 8.096112155972127 6.3840919285889575 4.734324916740657
Pd 8.677749143873523 6.138517759994458 2.172361238593551
Pd 4.298051796701177 8.36855107427265 4.152798198790024
Pd 7.123649202436824 6.403732893042338 9.575915529996257
Pd 6.469533264258581 7.4252400448078015 2.940953614962374
Pd 6.541894358539413 8.366091117543327 5.573960557692801
