26
Energy = -106.49594853 eV
Pd 9.846096884719898 8.905423428346882 8.113306222709747
Pd 6.025927977789334 4.514322444451765 4.799497910800026
Pd 3.828732175604814 3.105701757537959 5.1926479618653305
Pd 6.62663836620783 5.740137390423567 8.895036725725873
Pd 4.46779852557558 4.391914312513003 2.7428576666093116
Pd 5.140443580761672 8.256974961628456 8.073346711622586
Pd 7.227889319476895 7.999844888322185 4.1850868137902575
Pd 2.58265127864727 5.258085131567232 4.4601924610564225
Pd 4.980557728520652 8.902751977250816 5.493610758467773
Pd 8.28842573347592 3.165823926757264 4.536663534772628
Pd 5.4584085133681075 7.46038232711833 10.550358187302454
Pd 6.2148564340928285 2.157564581650002 6.034092669721807
Pd 7.388666294006286 9.080650973475375 6.704087041822712
Pd 9.387888186882332 10.671766627880736 6.259372188760758
Pd 2.467548553885466 4.50017977802753 7.0936693990407145
Pd 6.412458983563337 6.627683357947546 6.397077740154819
Pd 3.914786282011368 5.976047269994219 8.917767292287587
Pd 8.536812984037143 5.7689670120795755 4.889088648232243
Pd 6.989997340093515 5.708357628590837 2.689322917072625
Pd 9.583634100225769 8.140605546010205 5.518832615463379
Pd 7.729490873137809 4.154813721489829 7.012152622667326
Pd 7.601968678587227 8.25031157648453 9.27230205933987
Pd 3.748213912445443 6.673043637299204 6.345023431727536
Pd 4.836529787115002 6.732087328559747 3.9090192978648246
Pd 5.073238340822524 4.196625495834949 7.343313273036293
Pd 8.847230912130492 6.5212019532038585 7.5083700730891305
