25
Energy = -102.87296089
Pd 6.031020222054468 4.028229687309279 6.42511111294049
Pd 8.370127038660078 7.453024785398979 5.062945831377752
Pd 6.031020222054468 8.033810756799658 6.42511111294049
Pd 3.6919134054488603 7.453024785398979 5.062945831377752
Pd 4.560443286453855 6.031020222054468 2.8458718094739193
Pd 7.50159715765508 6.031020222054468 2.8458718094739193
Pd 6.031020222054468 8.346117112676595 3.6894007733838228
Pd 6.031020222054468 1.7543248941089382 7.740965158938606
Pd 8.283864628725404 3.4153348484129444 7.5607810079697995
Pd 6.031020222054468 4.670232209755134 8.955258184874479
Pd 3.77817581538353 3.4153348484129444 7.5607810079697995
Pd 4.664867312399763 1.9835280766413466 5.345144410551221
Pd 7.397173131709175 1.9835280766413466 5.345144410551221
Pd 8.370127038660078 4.609015658709959 5.062945831377752
Pd 7.742472644002019 6.031020222054468 7.3182600294541285
Pd 4.319567800106922 6.031020222054468 7.3182600294541285
Pd 3.6919134054488603 4.609015658709959 5.062945831377752
Pd 6.031020222054468 3.7159233314323417 3.6894007733838228
Pd 6.031020222054468 6.031020222054468 4.950286413636142
Pd 3.77817581538353 8.646705595695995 7.5607810079697995
Pd 6.031020222054468 7.391808234353802 8.955258184874479
Pd 8.283864628725404 8.646705595695995 7.5607810079697995
Pd 7.397173131709175 10.078512367467594 5.345144410551221
Pd 6.031020222054468 10.307715549999998 7.740965158938606
Pd 4.664867312399763 10.078512367467594 5.345144410551221
