28
Energy = -115.95829909 eV
Pd 3.091130366657709 7.236841662317909 7.6994006353507505
Pd 4.479077525701691 4.858524627783368 6.989313497045016
Pd 5.629284375493435 4.622836355977372 9.417090147060163
Pd 2.61319192076595 9.272107481121934 5.929613491864602
Pd 6.11060755758921 2.656353722047481 7.389149132912534
Pd 2.96234983681885 4.980339201445034 4.81906519404683
Pd 7.903985449700525 6.351939583745929 9.557302362745471
Pd 7.362854543377455 8.955881206853844 8.48055617351588
Pd 4.58599403508747 2.92587385500158 5.1355258530600825
Pd 5.674513556327131 6.9739548215685145 8.159961211881836
Pd 4.949602855934428 9.295309664284044 7.194742101575723
Pd 1.9454005853801077 7.3371726552922 4.2596402174888786
Pd 7.984824381827018 3.3909430530602562 9.430832966212067
Pd 7.306200753915715 4.949007127931067 7.387683318728521
Pd 4.318955903537918 7.159953568650323 5.4553617177081435
Pd 8.88047310588945 2.8015462526115247 6.887289649590674
Pd 4.1482960251210095 7.409120256981485 2.8236330476719576
Pd 6.753965498737918 6.383080423826618 5.396560792111086
Pd 9.897530954249937 4.966784118630887 8.177804887439425
Pd 7.097895426824587 3.6669255908266005 5.008707678305093
Pd 5.2858412305341815 5.125825572311379 3.6132983329213353
Pd 8.778364860509416 7.194832539465586 7.1134368965497
Pd 7.181302309337394 8.917306584978014 5.804637015690173
Pd 4.889848680858699 9.477630642959133 4.446482148797164
Pd 9.330320688422946 5.0887657502084265 5.492001273651271
Pd 6.691192061341516 7.846221560067954 3.256958132154052
Pd 7.944734950518416 5.427617692871957 3.125427675248855
Pd 9.104630972493828 7.55856495108697 4.415128009402585
