24
Energy = -97.10551806 eV
Pd 7.462261524308356 10.075825623264206 3.346081418557148
Pd 8.971845189783924 8.160536659349326 4.137823306465773
Pd 6.344723897822147 7.764248541851403 3.6480868326707916
Pd 3.787823263238147 7.415032426278633 3.783190611123691
Pd 10.268272546206044 6.365685833861788 5.542912449205095
Pd 7.922762867835842 5.676191013915132 4.410812806256036
Pd 5.261498017177138 5.288117059081004 4.100352005247482
Pd 6.570042765107876 9.482433753521391 5.705418557029556
Pd 8.626055107023104 8.093590703634339 6.705546524830836
Pd 6.1803254105194005 6.868417729801754 6.166997509624725
Pd 3.6164583625683826 7.389883631205966 6.308457431081761
Pd 7.617628109129582 10.117045079615767 8.050696771443075
Pd 8.29180307382355 5.373354398091182 7.042581143873677
Pd 6.621605250788641 3.823947178734665 5.846649210475442
Pd 5.377631824484428 8.72577337815079 7.980633088796727
Pd 7.646797028029578 7.678669504448154 9.113772026342534
Pd 4.276080902234387 4.915096081047532 6.523279437591971
Pd 9.993432801045431 6.646172305032177 8.469120093205309
Pd 3.3032732468267123 7.2529050896544796 8.85206440963833
Pd 8.210970813905046 2.880882166179838 7.7601666414158785
Pd 5.651126153596359 6.09138437454657 8.715377816270793
Pd 7.9200056554276275 4.9662104991880005 9.547537310806538
Pd 5.7830794169835285 3.5019066082766432 8.460875186686124
Pd 3.47787935340322 4.630072942537569 8.964949992629036
