20
Energy = -80.05642626 eV
Pd 7.38149418990186 5.849330361167814 3.664811725454815
Pd 9.495055931547649 6.186545358912601 5.2291201807425365
Pd 9.108832448368437 8.828564504728662 5.256848832730319
Pd 5.85282979534513 7.97907428958161 3.9565429938447014
Pd 6.6824143074479565 9.955502747796704 5.582270805081486
Pd 5.14651080058294 3.524390190978739 6.634612507614489
Pd 5.042638980032928 5.706123188844925 5.103729700652235
Pd 4.729109464961235 8.150950175473373 6.378849416268612
Pd 7.417971011159209 4.64464656365515 6.042063059062946
Pd 10.169076674123287 7.521293589076458 7.402981782394983
Pd 5.341235523954741 5.89178216638371 7.73298980364858
Pd 7.197546165799551 7.273993480217992 6.178630467126655
Pd 9.552704857659183 4.864635796769627 7.555907978750562
Pd 8.119979861487899 9.247872940664937 7.748319916545981
Pd 7.112030597122272 4.114905942669942 8.644635699350978
Pd 4.373728846215608 7.9405673197124935 9.052970057681446
Pd 7.993240234929181 6.67626311783161 8.641722572739674
Pd 5.58787188324425 10.042146676032418 8.042390168149378
Pd 5.972949615608914 6.03369295080708 10.23776162696107
Pd 6.76752619740494 8.612466025590647 9.957588092095031
