26
Energy = -107.11488197 eV
Pd 9.741621684162505 8.675212279119103 6.018846938791152
Pd 9.62084486944052 6.48366663959507 4.419257856977874
Pd 9.461783190440725 6.200012835151928 7.140385785309118
Pd 8.274996499961075 8.706235227055018 3.6848417910984708
Pd 7.979651373689052 8.473655416185 8.055991464541727
Pd 7.231774605638101 9.885547129663728 5.928458171914765
Pd 7.3833508236524175 7.217302327592072 5.850608986124744
Pd 8.19108870785833 6.293752370493401 9.502540845551165
Pd 7.003807071767927 6.2514057181357545 3.376517127053254
Pd 8.015683479792028 4.683492705902379 5.435420693764688
Pd 5.796557521922435 7.806340504698753 9.356787056979678
Pd 5.678776306984626 8.442277840117471 4.153185653517316
Pd 8.18488490251497 3.955743031589668 8.010805681907113
Pd 6.263617513398964 5.7592627177360995 7.809409732364881
Pd 6.217675366302461 3.781144826933126 3.6963832833807984
Pd 5.188190305054869 8.398049201903765 6.834628357811176
Pd 5.685406103325259 3.47647306982834 8.986263854581688
Pd 5.13826414844642 5.752112110429424 5.476965326783094
Pd 4.148792443603916 5.696548811221451 9.446732405633774
Pd 6.068260660637307 3.2189058292714954 6.330576467162962
Pd 3.281468372978887 7.721641479425193 4.786145793150494
Pd 3.874401643398584 3.229576936747899 4.730029360362431
Pd 4.177677172772918 5.56845691654981 3.11999205452062
Pd 3.236648317680417 6.789796695237583 7.2524169326590435
Pd 3.7305733479892087 4.164081882530709 7.258688854929408
Pd 2.3365786590865936 5.274567851782518 5.208288741865702
