26
Energy = -106.27952947 eV
Pd 8.231599180374984 4.003608727220872 10.099879939995887
Pd 8.487856062449668 6.506065496941501 9.67432337653471
Pd 6.25508808716886 8.056163387253017 8.884612073172162
Pd 8.743999553957101 9.063066973921206 9.267028638029055
Pd 6.261175495443576 5.392697435701644 8.810846135328593
Pd 8.605297108698558 4.71210992422694 7.511444073762342
Pd 6.668760252581698 2.7561281429017 8.41458792337112
Pd 4.061386875175703 6.7073961341447825 7.879577013154497
Pd 8.28231457943548 7.42997450393158 7.203806471668853
Pd 5.234785357990149 8.777567608614659 6.54889777266478
Pd 4.490814409185038 3.9635145348959253 7.454037732854051
Pd 7.485140493672843 9.963515259159317 7.138712488402944
Pd 6.653706035034932 3.616294031392055 5.972092309479769
Pd 2.4601786033493975 5.146385699499316 6.324228797754174
Pd 8.458544710689294 5.943097355101008 5.100037224205923
Pd 6.067738980864443 6.227956276882184 6.245010730846103
Pd 3.51898907380081 7.298150522688497 5.218172840424734
Pd 9.070340063376523 3.430041798696256 5.080630085498085
Pd 6.992828932380604 4.4408691671903435 3.466206433633467
Pd 4.906422103344738 9.240477769702215 3.946627291492748
Pd 4.5391280550359285 4.61138082623962 4.714156994682173
Pd 7.328131801002314 8.426391120819993 4.8741548650473705
Pd 2.345757901469633 5.422813541528217 3.630154707559838
Pd 8.056855137782623 6.906812458642606 2.690159207855572
Pd 5.635148551065249 6.731414666220538 3.5459235955781154
Pd 3.3822561188114313 7.545510468211433 2.554968795119918
