20
Energy = -79.17206101 eV
Pd 3.957459697546902 9.011381024420528 8.679357051688353
Pd 10.704059292204462 6.887558547109635 4.920644872383728
Pd 8.721317549462473 8.381240742830975 5.958115922525004
Pd 4.8419647538796475 10.906784587182067 6.962459534838646
Pd 11.194861970807871 4.493861634581149 8.573280443510829
Pd 8.669816492376896 4.337142353653614 7.917067023128982
Pd 5.9099549727246625 10.53331707125818 9.530844355733716
Pd 7.838403230789512 6.851870768816162 8.024488159165914
Pd 4.172087569793337 8.516182632990205 6.033987492020155
Pd 6.194216619179339 7.872294416022426 9.87416856014533
Pd 10.353248656412628 6.729580272435018 7.526235939698142
Pd 6.408964626834576 7.174408534048812 5.440902067714133
Pd 4.95235671248216 6.709588691177009 7.875954271810562
Pd 6.285885216437252 4.752106146851057 6.734541465325884
Pd 6.617511553676885 9.065567157278085 7.5120321573070905
Pd 8.487981087628482 5.668008189549612 5.5522900536883295
Pd 6.47907296940858 9.781423670434318 5.0256218425617245
Pd 4.124519969280857 5.909754434851862 5.522472429148236
Pd 10.760386052294718 4.429685168975238 6.058656699329631
Pd 6.490174383002003 5.152487331757167 9.44112303449858
