20
Energy = -79.25667129 eV
Pd 4.162696130349362 8.574903303210457 7.506256023067303
Pd 5.102164115386091 7.821745096509354 9.829566640472835
Pd 9.100953378233726 9.74767972134979 8.508765612470706
Pd 6.959435253924941 5.640966256761888 6.654761604047914
Pd 9.830550514214941 8.173675843621487 4.522547688151178
Pd 4.92074021835856 6.868916568839195 5.484145507165075
Pd 9.203923766944376 5.679891998484853 5.276373552072873
Pd 6.837287407800285 8.265868090116907 7.666371253072944
Pd 5.789449006707219 9.633162439697315 5.586429055031227
Pd 9.661760961771229 7.311742423005489 9.625271640480376
Pd 8.304543735619424 3.4361233854825217 6.30001315643571
Pd 9.392515111772992 7.625079624304932 7.04107533157526
Pd 9.272927142863484 5.1401401726785165 8.004247998866612
Pd 4.762823689444337 5.968751960921814 7.997875739230859
Pd 8.347529674831524 9.920522704875086 5.977281428236645
Pd 7.1340435608801895 6.1372208773456975 9.319415210320058
Pd 3.378016521862489 8.897072036754773 5.049754465715887
Pd 7.513124216659646 8.680269184014561 10.296607652092339
Pd 7.327651120813655 7.61435811480317 4.876222451721959
Pd 9.099514355388761 4.963560081048895 10.578667873598835
