22
Energy = -89.22961558 eV
Pd 8.177773146830308 10.7021834314586 8.522428515550647
Pd 9.709815605766744 8.496509937177759 4.863247736032286
Pd 10.415336731539817 9.741649080839924 7.224921664169897
Pd 8.262453862358294 10.768421789065187 5.669735888213519
Pd 6.925021242179579 8.541489394843222 4.628194410287815
Pd 5.931357510313623 10.037182473070908 7.056622683516438
Pd 4.377051953666112 8.742636639209577 5.352406339507701
Pd 5.840462972408695 6.074421481836936 4.491875559151028
Pd 4.187554037460105 8.559946565952515 8.46477271274958
Pd 5.62692191198642 7.111542634062095 6.860123171517341
Pd 6.648105395211226 8.635631627897187 9.380728533981129
Pd 8.283068652368168 6.261202520261851 5.434754777684952
Pd 8.051568676572709 8.536612091256764 6.980614752651434
Pd 9.352523460460398 8.357038198574505 9.400298096708669
Pd 10.294741455802429 6.981427151793597 7.113829177394714
Pd 7.810518752229691 6.410256501914939 8.203644468716194
Pd 9.263030750633089 4.416339724001324 7.201550143614408
Pd 9.96895764208778 5.654080594577764 9.556318029756547
Pd 7.756526009478885 6.627347801427521 10.870982959666321
Pd 6.552037618452929 4.588072514719732 6.760640406819166
Pd 5.46101098497836 6.180737149542685 9.380921774704735
Pd 7.546379607767838 4.174972783895424 9.447055542562252
