23
Energy = -91.96505607 eV
Pd 3.8202490814886345 5.673071414042115 4.400693183138114
Pd 7.952409010020413 2.663631182397211 5.39876542221007
Pd 5.6617616635138655 2.7112296963191285 6.819834917645927
Pd 5.923934289434297 4.134928845998914 4.597638033401001
Pd 6.197670933746999 6.732845455642316 4.9436911226241
Pd 6.0021265410271285 9.293052204421265 4.3561031476696535
Pd 8.410299188656948 5.259450201592705 4.512523714832398
Pd 8.405406540521348 8.898313738450799 8.435959476517652
Pd 7.8009606207941875 4.72015912310797 7.022350874867522
Pd 5.160324620101012 5.341064045096146 6.935350926738968
Pd 7.838191274153061 7.884193298983628 10.76521490855598
Pd 8.481689356362029 7.1661045323533274 6.421472526537837
Pd 6.315396596384308 4.113005711437783 9.087136430099957
Pd 2.647103961021719 6.101832209824471 6.7550406259834
Pd 4.332912990899512 7.440424851956281 8.284330009166274
Pd 8.399418766623933 7.814311855383965 3.8676940058079947
Pd 6.941717182002281 6.5903107838586665 8.70336620019661
Pd 8.201824177133933 10.357267497942715 3.491044901062698
Pd 5.923140801654056 9.135131428643842 9.518332679744438
Pd 7.926388635860916 2.2277979664861576 8.071561086461797
Pd 3.988990909501116 8.07404588557245 5.5658277920812145
Pd 8.333107316158195 9.807485485734324 6.000732101455864
Pd 6.174284165254263 8.700071182011646 6.93605410863493
