29
Energy = -118.92455307 eV
Pd 8.783815383736215 9.79175985293246 7.27886189370736
Pd 10.963327744783285 8.788865442723559 6.250044154038455
Pd 8.977049820662556 8.418787906649646 9.606976185581239
Pd 9.24759538470199 7.061890830063926 7.3247342165745
Pd 11.440229532193905 6.201867522217797 5.909668336770657
Pd 9.569960558988289 7.43167861006951 4.504721847398424
Pd 6.715045245474896 8.274665378532085 8.145788488551206
Pd 5.276484512401994 9.629837852042483 6.298214512967111
Pd 7.47795288444933 8.52536989403137 5.447356121599798
Pd 6.682287473741651 7.489392141722664 10.68808898782942
Pd 9.16790432046 5.006971504313492 5.554815725296924
Pd 5.21701835990467 7.853401157434062 4.308178567127995
Pd 7.352441627468023 6.157075893066773 3.8587607838213462
Pd 6.830963678926095 6.085122611939756 6.500978882036983
Pd 5.2435458790294405 5.95330379688509 2.4315103779205978
Pd 2.8702114838951727 8.727447281370443 5.325323952043753
Pd 8.409496676370535 5.861186423547044 9.43432580204467
Pd 4.320727888907226 7.723309729607575 9.385997297601635
Pd 4.45661956764297 7.199494117590986 6.863811779111916
Pd 7.647524284976629 3.9253021505783208 7.85925199636462
Pd 4.573626240926338 5.15112684485633 4.858535486012915
Pd 5.8217097849310875 5.586076714048558 8.981927337764086
Pd 8.892401848524694 2.5044222724374405 6.135124279473893
Pd 6.8308603938197425 3.7498286402448127 5.0707661358776965
Pd 2.930440800183598 6.773172385962944 3.4379644634717375
Pd 5.1161892373478075 3.855007386662237 7.120662988610718
Pd 3.2126564709969143 5.355616976241449 8.282251238371133
Pd 2.2270348365622676 6.196045015964345 5.883936515503329
Pd 2.7107205356649646 3.687816123934333 6.21726410419803
