27
Energy = -111.61146139 eV
Pd 11.51993875893199 7.948261042257559 11.001685934262657
Pd 12.496009631054736 8.169623311550154 8.56792038519207
Pd 10.613268599013372 9.756034309612698 7.795115207553716
Pd 9.715646443907987 9.570060045241245 10.200492184556555
Pd 11.24211628859104 7.04239360811902 6.575709550627528
Pd 10.114343492938502 6.993456957950938 8.902501243183517
Pd 8.96408347483333 11.628467964811673 8.763875529103041
Pd 8.606180072681811 8.33049316870723 6.858057351248252
Pd 9.503831957914606 6.316219019306994 11.330892360673406
Pd 7.145412706282981 10.51215334584502 10.603395373373107
Pd 8.231352978544876 8.480482969243875 12.107839706637465
Pd 7.59901090638437 8.087977962054476 9.52166813051901
Pd 9.616773396182495 6.84599362636956 4.526770573204218
Pd 6.935889514682567 10.297946704151524 7.940426332666825
Pd 8.851166228882645 5.708029473560718 6.8558060964759955
Pd 5.608159277329044 8.495360337939205 11.706487626033745
Pd 10.714082647075532 9.203643568193081 5.187603347773791
Pd 4.923814807262828 9.424050393317273 9.393323170739391
Pd 6.920652440274475 6.163509189909426 11.735036030812108
Pd 7.901190419045546 5.493947774743262 9.325217212365684
Pd 8.75123850403495 10.890404853731782 6.060324258343327
Pd 5.841463689789777 7.993018945033669 7.371296433394456
Pd 6.22937052140976 5.421687105305377 7.325003661951363
Pd 5.334318160897854 6.696719052524044 9.624801274991041
Pd 7.003852122931644 7.015003787129327 5.200007950420058
Pd 6.329134696627958 9.716760496897548 5.45063591068203
Pd 8.364648081322807 9.111868416941359 3.986677713591285
