26
Energy = -106.19834105 eV
Pd 7.0148389009040635 3.8804255850409373 8.002366283470225
Pd 6.684694195960821 2.230155181186131 5.90300663886206
Pd 8.12295888037179 4.409049863531541 5.5853292114198085
Pd 8.363541626382638 5.505381417142181 3.188377709485653
Pd 5.436567234270318 4.537494247024147 5.906774044910679
Pd 5.175896315223786 5.781775531394233 8.179771038821608
Pd 8.956773245913926 5.700960199013925 7.775833923087574
Pd 7.231082961419483 5.754486390000751 9.853582016466875
Pd 6.432967227540792 3.5780786093745736 3.6464195145428406
Pd 5.936076093300428 5.265541128462409 1.7861252659754734
Pd 10.057310477516975 6.082179335738805 5.259691673283577
Pd 2.9724888696751024 5.112902232547929 6.523562636709558
Pd 4.05016125480109 5.155533308266973 3.8127994866071013
Pd 1.7312141672064847 7.360660148798954 6.077558906470993
Pd 7.402710848746099 7.942773080112754 11.3066348578768
Pd 8.405449723587584 8.030372027288346 4.602247511165829
Pd 6.2092231799398805 6.709317059852316 3.895169238322517
Pd 9.735516501517868 8.099478033460016 6.970104893490497
Pd 3.2227250154907625 7.530275961669444 8.2035022082809
Pd 4.309033821175843 7.18613269422215 5.696050173501958
Pd 7.752735221622977 8.110965583569868 8.74545404457415
Pd 6.9784913834448785 6.873627044147304 6.472904653041557
Pd 5.896437231839824 9.138468080070291 4.907156014125287
Pd 5.222231635785562 7.7864526297816425 9.921792855367773
Pd 7.721159318768182 9.784190695945584 6.670444397278384
Pd 5.397373612251176 8.87298287701502 7.5269997475185075
