25
Energy = -102.51376452 eV
Pd 3.3589676060663445 5.338567457182105 3.0902313350638115
Pd 4.990653964917294 7.140082554374241 4.235228917547895
Pd 5.934660336079317 4.908015510437109 2.908087260129843
Pd 2.7318578130732187 6.329117788706083 5.450085656928581
Pd 6.76527395027172 8.665271073388222 5.540099303869458
Pd 7.5643059244774715 6.696078145525331 3.843877829382359
Pd 4.320299753301897 8.181711945586223 6.6506943638598885
Pd 2.153998146008002 7.219099699179037 7.882015705824589
Pd 8.466945687470089 4.34127536186121 2.808287307085967
Pd 10.094792121725828 5.8672738666754745 4.151418701722815
Pd 9.371774968014547 8.411895342374292 4.693095087627904
Pd 4.659188790850111 4.383542606338218 5.157283104373526
Pd 7.480223441090859 4.1690961800568855 5.2233137650122305
Pd 4.350648023609848 7.374931891758914 9.335980764600736
Pd 6.16186216563186 6.174501383057147 6.517815202904038
Pd 3.917756832798821 5.304569951286719 7.62169916493672
Pd 8.917387154618552 8.880929294971306 7.257674217614221
Pd 8.775039600951795 6.386058018780671 6.326679011259257
Pd 5.850277266957439 3.4503338062128943 7.297768349230701
Pd 6.519002075954076 8.284109682399238 8.16823978344167
Pd 8.313689520206134 4.292879972208427 7.8344315953434505
Pd 8.437081561480559 9.18994083358714 9.828966041854445
Pd 6.227801499452919 5.406958648620484 9.079480590552375
Pd 8.611723124270247 6.696965265920806 8.969147736518984
Pd 6.59139339272361 7.460837544431028 10.70635231837442
