25
Energy = -102.62343908 eV
Pd 8.591630007185445 9.321937161858923 5.233644061495718
Pd 6.052572860112414 9.251024011521942 6.320263493221018
Pd 6.718756211352916 7.310461928867142 4.694672847105407
Pd 4.1567317394898735 7.591002477733761 5.422245625452752
Pd 9.23745416490231 6.65726083319829 4.652935616649937
Pd 5.211869267049284 5.116419728479784 5.238285036066076
Pd 11.104697224891373 8.01755784021519 5.795470969900929
Pd 8.595452160478164 7.778629316258638 7.26316609762758
Pd 6.100354562681835 6.738078564279083 7.316118049854845
Pd 7.7638792652833555 5.143075721695673 6.178021355336547
Pd 10.284234735581425 5.686431043823868 7.004600895005171
Pd 4.153255586376386 8.33211850181431 8.036933823722205
Pd 11.364592497900325 7.78224639626203 8.439672873129197
Pd 10.398661372077441 10.036256790744185 7.309967571666031
Pd 8.459986803842607 4.1118178909501575 8.48001745297359
Pd 3.610860590579758 5.7525295440834165 7.3051398005646195
Pd 7.8824861738743355 10.523730436665453 7.704961420126421
Pd 5.816091348122195 4.1627912580783075 7.790376514974773
Pd 6.580842271445782 8.421487451109561 9.221257051545557
Pd 5.367576959348713 10.718151675467892 8.447052262605977
Pd 6.761584357862433 5.779770391215444 9.753112350240494
Pd 9.389629628898325 9.124846214051674 9.579175301610768
Pd 9.268387455329739 6.43901671937506 9.379648220255383
Pd 7.361913482866361 10.65243673217099 10.31489140300847
Pd 7.955426882555609 7.739848980167706 11.30729751594913
