25
Energy = -102.70291205 eV
Pd 6.768849516745392 8.95571426550234 2.3369675904897544
Pd 8.058007547793691 9.510532850717096 4.571605674882636
Pd 5.3135677968391395 6.765753305226729 2.5574380199586697
Pd 5.504005445871592 8.56425921723959 4.6006417368227375
Pd 9.27511535093599 9.93486685420068 6.868480220594022
Pd 7.797507574091351 6.945584543953276 3.667674855090115
Pd 6.796052394604323 9.045652275690356 6.941273209382318
Pd 3.899403050617719 4.5715849240695 2.9354831407441866
Pd 4.298438616265692 8.048342729687125 6.929429371859601
Pd 9.087491913045056 7.45478109027169 5.985176364518773
Pd 4.040064699549444 6.29025021779653 4.918637806231956
Pd 6.323326288519681 4.6905649699638285 3.9630076672095202
Pd 8.69566963569802 8.0604619297036 8.611520247527574
Pd 6.5225430645308045 6.515545812637019 5.994418488499999
Pd 6.13680202591311 7.100320086249672 8.647310419182588
Pd 4.23731608494111 3.611633433224875 5.359494183683202
Pd 8.74845653274493 4.918024828552704 5.1215795878939625
Pd 4.447290634824515 5.401123333644933 7.405753009016003
Pd 8.411310847521996 5.5019504045786585 7.707929085215278
Pd 5.424459450907727 6.066119590019666 10.935266227183813
Pd 6.715097966186134 3.808478517700106 6.46880972076797
Pd 8.034857469919457 6.122419457247439 10.261731482228615
Pd 6.403585622833967 4.356498658768095 9.076608560730781
Pd 4.666783276646099 2.758107861829814 7.808055768474461
Pd 3.7917054318066437 4.425279308161376 9.731879643258786
