23
Energy = -93.00947149 eV
Pd 9.143364183047536 6.9478191920500345 8.114113913704564
Pd 9.993885438926899 6.8306203763619795 5.521593853971739
Pd 7.859510971641922 8.290507595184241 6.160624613223493
Pd 3.895341982023567 8.691839117032675 8.18924514394804
Pd 5.788989196464739 9.879403576374834 6.671160510514886
Pd 7.660057482611695 5.659571112070536 6.291280897567849
Pd 6.675793053358006 8.214342698177724 8.55515310557923
Pd 8.221630206040313 7.5205470793522995 3.606482541809271
Pd 9.031563947075307 4.242675247996328 8.219349687418458
Pd 5.85984291519445 8.457026768357307 4.435806597813302
Pd 3.494480175395348 8.368761830144578 5.476711560842261
Pd 8.794544782475024 4.955240135476897 4.05337235420175
Pd 3.6913460621805716 5.773568081713258 5.026017678995518
Pd 3.326428086322144 10.669821251208653 6.642659109931235
Pd 6.8773278473203705 5.574010866982175 8.856033591218232
Pd 8.242394550871795 3.1261265146269452 5.915266556617478
Pd 5.304212448312773 6.859960438698808 6.768585409709854
Pd 4.721054184192944 6.779898377422444 9.699603591795215
Pd 6.133260721699646 5.928186622176572 4.0101314491602125
Pd 6.7377954036607495 3.3595343370351864 3.727868310855052
Pd 5.516755513912805 4.076681916626996 5.8995510473596795
Pd 6.621219574189099 3.0509807202877974 8.009771715808341
Pd 4.366094311252962 4.704758756422091 8.119808660311348
