21
Energy = -84.03701533 eV
Pd 9.191012041353721 5.982129643899304 5.0895800217103675
Pd 10.295462260811473 9.699689547302134 7.378562484147485
Pd 10.080881044929807 8.480225883816066 5.012806366848772
Pd 6.037419179272407 8.506299632544135 5.301610562246732
Pd 10.14416959983741 8.2631577837269 9.567287884270197
Pd 5.813862854243543 10.281046014611013 7.275436107210818
Pd 4.134788312174782 5.914817033124555 7.422284224369881
Pd 6.0875125546999955 4.057153737351747 7.689613096865048
Pd 5.54389027309879 5.745858332940313 9.715845380885169
Pd 7.705552302533584 4.216195678584932 9.76176772322092
Pd 7.963306676942932 6.8483840256400725 9.492167477443369
Pd 7.935921607251322 9.471684637069828 8.708512064752572
Pd 4.175793459932751 6.651862799369722 4.857020149619522
Pd 8.087100674749406 10.107889164978719 5.8392514767000545
Pd 3.7592811459602857 8.52065247338201 6.691499297633341
Pd 8.555111528478934 5.153364661493958 7.483042572794803
Pd 5.861984066829573 7.783645779174792 8.110026282525553
Pd 8.168564553638388 7.7142223782448385 6.797525925856822
Pd 10.571447321210655 6.9353704174328 7.3078974937669265
Pd 4.5650513599717755 4.096465823500485 5.532700516258027
Pd 6.522035882350127 5.882417977407575 5.787282228670063
