20
Energy = -79.81545364 eV
Pd 8.006988565527832 7.050986052022632 4.104125886522509
Pd 5.538273813275627 7.71939280227363 4.658981179255293
Pd 8.899853229985245 4.977180541194775 5.560557002695005
Pd 5.1979707648082165 10.18286035642427 5.7778918325911475
Pd 7.612957861405167 9.070416840321291 5.8849162007724365
Pd 7.16265816077218 6.62378469577857 6.640656082441929
Pd 3.2851236588360697 8.274113745953802 5.828453692309057
Pd 4.55448374552643 6.017031546738123 6.491220734394989
Pd 9.845063699391993 7.548561886385483 5.8860313536227205
Pd 8.782025399824661 3.6831923417765298 7.854717433139006
Pd 5.253412461127078 8.290609184488355 7.590909985356217
Pd 11.377918087818184 7.80485285211276 7.965244050390323
Pd 9.232829305718127 9.22021288387352 8.017371763878241
Pd 6.492012419709095 4.0995375484771275 6.517938750250419
Pd 9.342782891094673 6.245122235845446 8.180094791746077
Pd 7.330283081730919 7.889375842555753 9.196548748223538
Pd 4.95695262699755 6.728098034225125 9.610453768352018
Pd 6.8376485141947425 10.335089053359319 8.08325893879663
Pd 4.6034676025397445 4.298565649993691 8.467276960381655
Pd 6.985278572135628 5.239000368619089 8.981335307299814
