21
Energy = -84.42976824 eV
Pd 4.657179007894225 6.952747564045198 10.062286426360949
Pd 4.30999846204933 9.436120981487795 6.515691238651431
Pd 5.933698561198009 8.053643763579935 8.039429710329717
Pd 3.5779746614794927 7.026560833034802 7.618398447272551
Pd 6.98439083922276 9.983838724468317 6.597910161306862
Pd 3.433032480315877 7.494128968571609 4.962456335431913
Pd 7.303922491139809 6.4446273579024655 9.702707277239995
Pd 5.369476936887491 5.109230500530054 8.35998547776827
Pd 8.560816155827565 8.164584762611916 8.045000077815965
Pd 6.121446721873312 7.830363454884609 5.20553597662831
Pd 4.729544762507744 5.443886343808358 5.826170559861205
Pd 5.159977631860017 6.131960472889018 3.3141534176420273
Pd 7.848853195013673 4.097293696987878 8.529513613572385
Pd 7.471497400234741 6.079748066872678 6.8236105761840005
Pd 8.713266169577995 8.398860498652288 5.438452206040282
Pd 7.803746383664999 7.068994730359558 3.3087554653070876
Pd 6.198797176300399 3.358783663471664 6.542986243951585
Pd 5.00863807916146 3.4685053029172273 4.139694539781024
Pd 7.217377735250699 4.776618004696045 4.45821156200539
Pd 8.87205504425739 3.552513645806829 6.169590320111711
Pd 9.470034529292146 5.926677105681675 5.125076050707704
