29
Energy = -119.89345246 eV
Pd 11.183014757900956 6.79950852168537 9.285487025610129
Pd 9.472724903090791 4.8808644164005806 8.810492369334984
Pd 9.895561605710455 6.852332343029973 7.024460601284285
Pd 10.023959960512332 4.304410106753156 6.279181956358158
Pd 8.73686341750995 7.624061211548188 9.401623883542758
Pd 7.757693656230885 3.409072883167775 7.425449127893491
Pd 7.521512756087817 8.191526384267409 7.06507375194002
Pd 8.90234806714537 7.829955793392236 4.830577724872737
Pd 8.242256556899768 3.3246049132599764 4.6108167118677805
Pd 6.989871320145699 5.778115912572414 8.612116083957781
Pd 7.695295868703189 5.670775735446259 6.023819417649992
Pd 6.035034371405906 2.2528111590476776 5.741009963996206
Pd 8.000657293823794 5.67782094071691 3.410655331714352
Pd 6.241118321804366 8.312205275798913 9.36147815242664
Pd 7.746834672197575 8.129280018848336 2.490329882421713
Pd 5.233937431238939 4.340841424353888 7.245499574235721
Pd 3.6902171856319175 9.003502574973844 9.289944652920763
Pd 5.009059454954028 9.142792780932508 6.9990498729504225
Pd 6.382457566061922 8.880727531557076 4.743695918086807
Pd 4.421720134104896 6.578140353716579 8.505361655819872
Pd 5.235340023686391 6.681628075133016 5.924224799000375
Pd 5.543695618640342 6.901511255191926 3.165279527198146
Pd 5.775298613839106 4.504214383687488 4.350275387900378
Pd 3.598017828503827 3.3438700870631357 5.263512705481987
Pd 2.538216913976593 8.096218348020498 7.098071822828544
Pd 3.7196742704271304 8.358207104496831 4.6084894455251675
Pd 2.900873491233772 5.518032854892312 6.5916349635568
Pd 3.368459613484571 5.68210494846834 3.9584869017850064
Pd 1.3928659003982895 7.086633719300011 5.017656397629651
