23
Energy = -93.27839267 eV
Pd 4.236017237505846 7.599206550229319 2.7157889337236436
Pd 8.666694584789553 9.002391128071558 4.549397741424371
Pd 3.79588895706658 9.638609725798409 4.258199950364248
Pd 3.807228264376197 7.203703825281578 5.31307715834301
Pd 6.087967365092847 8.292685986186587 4.496996290585198
Pd 7.280147900627209 8.95700149817946 6.759774605114708
Pd 4.707313230360053 9.445514527427294 6.7069630281087065
Pd 5.622077625843589 5.65416793996176 3.799055937586529
Pd 8.04250743254417 6.466396369000772 4.572025310668703
Pd 5.671587173556743 2.6090668613512835 6.934575822705424
Pd 9.576252818425617 7.566830961453351 6.609961643300707
Pd 7.690200532878887 4.382272277718306 10.33792898007907
Pd 4.80975146342805 4.967056076392537 6.208912573261781
Pd 7.171874302601524 4.059880407358299 5.228975474449108
Pd 9.31088965193009 5.802630860832193 8.73359000532068
Pd 5.961289168158784 9.082230042074606 8.994028232842377
Pd 8.641374744073035 8.387295070051744 8.984668492592341
Pd 9.582985504246372 4.962958554916515 6.175433075745425
Pd 4.67293043154501 7.033345233662387 7.853373275463108
Pd 7.1347703171829995 6.326122434360437 7.045992373303693
Pd 6.759210106389979 6.686826888287676 9.64572644984703
Pd 7.794513985266278 3.8257230278077663 7.792991306894051
Pd 5.4165911406643055 4.583782312629429 8.769289360368935
