22
Energy = -87.63996686 eV
Pd 9.02535158257938 4.77265619966849 8.585569304960048
Pd 6.163504968117243 9.023699554753764 9.019145863824379
Pd 4.872205404210915 6.653314945242512 9.44928203152416
Pd 7.638000920631788 6.910618204665149 9.276743296835951
Pd 5.360306016397661 3.039341214280201 6.63531983673347
Pd 3.8729911156557706 5.007516890315662 7.472643667765081
Pd 6.486062939399737 4.9106767925688795 8.10794066975083
Pd 9.770524364140247 7.175250834757586 7.686378352441369
Pd 7.479918726698756 8.105498623013798 6.8627152188981455
Pd 8.326945016650685 5.626090951924349 6.144591853761719
Pd 4.961455205820276 7.742194325132499 7.122014851060301
Pd 5.818303870145398 5.392059226722671 5.6038962535575045
Pd 3.5695596708745474 4.063218853377187 4.950234357324366
Pd 2.60270797717649 7.2049417166379275 7.937907688280124
Pd 10.056170140565072 5.820284572976378 4.203395580329969
Pd 10.955228450624675 7.87004966446468 5.558343274901762
Pd 3.3866064538542204 6.809726475180793 5.330204333272851
Pd 7.399282743370514 5.8223982190872725 3.5674860171199936
Pd 8.592007046578003 7.992542993249399 4.561262487060169
Pd 5.893030013011988 7.872118352541925 4.660769418591968
Pd 4.797064207814763 5.852910398938329 3.169348657106268
Pd 2.2361458905984355 5.58525505751456 3.36603407952932
