20
Energy = -80.45709054 eV
Pd 8.593993330629877 7.515414967317814 8.032764835550136
Pd 6.8313877235180325 5.788425859960008 9.344924069567123
Pd 6.942190091892998 8.339620880790225 9.929897579746951
Pd 8.430980074852489 4.8642702350222455 7.437812974998814
Pd 5.890414724151249 3.870207348353679 7.836115526835224
Pd 8.002058500948358 8.106031213401858 5.366137413775792
Pd 4.712450284820504 7.3018662598186825 8.86963676609782
Pd 6.408291885540567 9.046174204237824 7.467390650273452
Pd 6.355792007158711 6.419874125768707 6.778198738667161
Pd 9.97696010057088 6.541018510614699 5.9971224675489445
Pd 4.190664913278757 7.9795195869251225 6.3697984308506355
Pd 3.844515394543347 5.383329461502166 7.2727083680252465
Pd 5.884134878779324 9.58691592534493 4.941368400416159
Pd 9.877813517458474 3.925688796254734 5.417804074704645
Pd 7.867594418570534 5.456103292670518 4.632779111912277
Pd 7.429298553735837 3.0273707238467455 5.774471874085355
Pd 5.336110720015313 4.499248820929737 5.165614005149923
Pd 5.803663835825803 7.014492587391429 4.196605531587882
Pd 3.6692757626715276 8.574592304749174 3.8088697472341533
Pd 3.3101763180250843 6.109966118852295 4.7115579776693775
