26
Energy = -106.28674304 eV
Pd 6.674966429039462 8.491024177449258 3.259689753869929
Pd 6.280203897177168 4.13909045362211 2.9706759053587533
Pd 7.993882720960153 6.187023122145738 3.3547374323748698
Pd 10.002015479685511 7.168974619461019 4.696225629264895
Pd 7.56247880387153 7.659813497752311 5.558855806443577
Pd 5.471499225667642 6.272072619837279 4.317355187496067
Pd 8.411168370697943 4.015314107911195 4.5907746391286315
Pd 4.6700038559341435 8.7357440455868 4.90026265745653
Pd 3.871319500259833 4.179365478838527 4.219196319190584
Pd 5.044398809658196 10.203166488892698 7.023186863192154
Pd 7.430744728558108 9.345151876027234 7.469300686904982
Pd 9.35854406346296 5.458950462495917 6.549114802585807
Pd 3.1131440781398085 6.4607884737646275 5.479715808548385
Pd 9.782745963790083 8.047668897922728 7.226970571403675
Pd 2.929299504354016 8.69673214841552 6.992229623612713
Pd 5.942409356280296 2.8934893379282127 5.346319152353272
Pd 8.2503700174252 2.605719461524308 6.744882376059011
Pd 1.047640029082264 6.937117632995691 6.970031512693124
Pd 6.733178304845292 5.139862923116069 6.386181251049605
Pd 4.217321071084748 4.487863257859447 6.804562363711924
Pd 5.296606768612338 7.441450531722885 7.173556017429493
Pd 7.683657170328424 6.909329219622031 8.309306559147979
Pd 3.118027377086482 6.295091435891638 8.358485450102581
Pd 5.920884508503167 2.847561662727531 8.045850216296367
Pd 5.550632562181412 5.399645312675467 8.942246160365569
Pd 8.036385106275103 4.375516456775479 8.703814956920121
