21
Energy = -85.2374432 eV
Pd 9.641641610561948 5.827760706190329 8.97546239369375
Pd 9.781594115817963 6.718898770670099 6.524013496988531
Pd 8.092154000157526 4.700744369291486 7.122502544232315
Pd 9.997225749089699 7.658746220275793 4.09193086764599
Pd 7.115858857141553 5.379910896025685 9.539712966390478
Pd 7.833061555262388 7.598609521785987 8.184092187472611
Pd 8.215365340919917 5.685534874740721 4.5979259317427426
Pd 5.46812410223457 4.293424421448341 7.691746749263096
Pd 6.433907232174201 3.801010420104176 5.236526572528302
Pd 7.536034668667308 7.777312461200781 3.139210081612734
Pd 4.612711462484068 4.910655657510949 10.168797331071806
Pd 7.96616185639075 8.507979049018672 5.642670384179535
Pd 5.701696211500032 5.937394797547529 3.6736641950105113
Pd 6.2755612417848825 6.491804326804047 6.318687737161455
Pd 5.215365314101849 7.120130158028373 8.737588504145219
Pd 5.472228002527365 8.51357086797054 4.644539117188568
Pd 5.946562041417465 9.227219825837711 7.249392319753057
Pd 4.038996651522698 5.10907551650693 5.567031756843018
Pd 3.1868818595437114 5.583647813157875 8.042046479312877
Pd 3.3475332450556086 7.109028058630141 3.9745024324151035
Pd 3.7958349399801223 7.68118453200908 6.522529273913714
