25
Energy = -101.95197673 eV
Pd 7.973931255192723 9.8490108857017 8.129804466097447
Pd 9.207616723786687 4.947503602740609 6.306674590099578
Pd 8.865712311695905 7.4732769661333 7.118568852093852
Pd 4.403145819521949 7.216574589591054 9.738796631368116
Pd 6.730365079283776 6.04173521319145 7.000617434597489
Pd 5.369634779418586 6.414024024192795 4.651139844922584
Pd 3.4117950282603635 5.036595070202601 8.647786995680779
Pd 8.785429996716804 9.297155730353204 5.04125197483856
Pd 8.623288200003422 5.454954938383022 8.97646455233365
Pd 6.992535255233743 7.592746947303287 9.254258442455797
Pd 9.062481977441864 11.474032643087261 6.410564484975635
Pd 6.465577836713562 8.723517174170006 6.287964638154516
Pd 4.731819930138684 4.438706335033192 6.396177963241999
Pd 10.575675733891241 7.264708800117666 5.192474154496357
Pd 9.62413824641044 7.999533557954639 9.496432489462364
Pd 5.9614159324703255 5.052332750494879 9.298946421056115
Pd 6.941137931769336 4.201571312716183 4.919015029564889
Pd 7.277847246939726 3.45586315001528 7.555492586850694
Pd 6.593408123331024 8.656566360541968 3.6140637880280053
Pd 5.269217164787593 9.41574580936862 8.504496568483901
Pd 8.030101981804835 6.693800640957871 4.640089505430957
Pd 4.822541831924489 2.783823616673349 8.427263494532703
Pd 4.348044372425952 7.123898307025933 7.121956118724374
Pd 4.228557303868612 8.748052504657693 4.947171131887636
Pd 10.54403320109795 9.483722333521296 7.161981104751931
