27
Energy = -111.65865823 eV
Pd 7.630053345049543 6.892226788000737 3.1075607367149054
Pd 7.872547064817371 4.2310295248437475 3.558685399166873
Pd 5.429390194315108 5.3321819063496125 3.299315434312108
Pd 9.196870792062983 6.080077146005415 5.056834224728799
Pd 3.170658405275969 6.759454803124053 3.497590252370334
Pd 5.471614228121139 7.889466087797651 4.247077672628402
Pd 5.846915930649662 3.2433921557920566 5.105913818902565
Pd 6.575716894164915 5.706720258800315 5.676355670607464
Pd 8.324926248883118 3.7632256774120005 6.181483874288042
Pd 7.866699283780229 8.505105771703732 5.255074285351845
Pd 3.4313854101571732 4.412499846545244 4.766262840551804
Pd 3.702818093585819 6.696067510130468 6.09247007938861
Pd 10.27894297057109 5.105765535991469 7.335383822876568
Pd 3.281439226444179 9.165421370516768 4.7828386646739816
Pd 4.651729155618984 4.534257307547739 7.185525333597483
Pd 6.456489092996824 2.612124320823896 7.6650726257804696
Pd 8.66308839965245 7.174770770148674 7.441947976237436
Pd 5.589625811498821 10.097339059914496 5.875161584722858
Pd 7.629045079808369 9.684276637241902 7.7046907626199195
Pd 8.86043637146815 3.3327227054342483 8.737673537509476
Pd 6.011119471311609 7.782691451466795 7.052404915757836
Pd 4.556437511278197 6.71594528746289 8.853232215474407
Pd 3.565440737020502 8.957132537553093 7.384787699230681
Pd 6.913267665335804 5.150289952530266 8.374649820814934
Pd 9.188760565898802 5.858071616402677 9.674436316512393
Pd 7.141735640765147 7.53268029940308 9.610059970869468
Pd 5.343690460901697 9.394891215394386 9.242159261760097
