28
Energy = -115.19797382 eV
Pd 9.083280812659996 4.112534447246351 4.397652688409627
Pd 6.6976725675886835 3.2575857103448915 5.386952982129854
Pd 4.861603552686367 3.3791168836527 7.321710833461299
Pd 9.141558222182471 7.7411312178921685 9.89585525619131
Pd 10.29664042817999 8.990358430572737 5.5912222602405866
Pd 5.716421848969407 10.122623043287366 7.242116431159438
Pd 10.542644600610783 9.277729957571921 8.347226055709354
Pd 9.454339884766759 7.102825984381545 7.300923258240936
Pd 4.707925268523514 6.80373380265987 3.4578675014032982
Pd 3.4548491106524652 5.572886493657081 8.168813268727252
Pd 6.884991060422102 7.532683786078522 6.052656863144072
Pd 4.667568189493629 7.226635304176358 9.976896415884683
Pd 7.086581894963545 8.084424396553722 3.450657696106252
Pd 7.365224995606163 3.133123245708411 8.1132006205724
Pd 8.028524852456295 5.113344754549822 6.525587043195085
Pd 4.556635903676971 7.8146290781729775 7.46480794606171
Pd 7.004804185253409 10.255628745677956 4.931259146980816
Pd 8.321432381615852 9.660240424316315 7.087436013733465
Pd 6.140361031171371 5.544625345965927 8.376460137609207
Pd 6.967627236089371 5.48148882077152 3.782195055283747
Pd 2.7790807428108826 4.309593524571703 5.978976625280717
Pd 2.96621132854396 6.945006846115761 5.5358797020654205
Pd 8.734588096719659 5.250465084984311 9.101362774610108
Pd 6.881920775948647 8.201014793691856 8.74141103462305
Pd 7.073001065268872 6.356106373299942 10.80060425951774
Pd 5.1191638822102865 5.458390636736787 5.687222732543728
Pd 9.142469706311378 6.858126476419096 4.6596043822314686
Pd 4.75336354537144 8.89669483327233 5.04727989145504
