21
Energy = -83.96186787 eV
Pd 7.033284216880066 4.6358169560133575 3.3238431531134016
Pd 5.0461378750323735 6.944083689266611 2.8365401407397313
Pd 7.9954556439753945 7.036206243827816 3.2221106839053664
Pd 4.538133252282817 4.452738715188777 4.105394814736068
Pd 6.714837988715239 9.061174487524662 4.021584336762381
Pd 3.194262543525941 6.565740838873806 4.979621997980159
Pd 8.537133920712822 5.587727398550613 5.392667625877563
Pd 6.549228346677478 3.796967039076901 5.77265042527828
Pd 4.34246161269934 8.921277985419366 5.053637438956681
Pd 6.0013047091693785 6.593493387130459 5.1335439838889405
Pd 4.234610856472773 7.507215435405673 7.276027824847564
Pd 6.8320441390289455 6.171638856347121 7.440589112678568
Pd 6.53988552445476 8.781765810696802 6.67068198615005
Pd 4.325411162057893 4.891827108866176 6.762132265940051
Pd 8.529159741038333 3.8695291745477953 7.511729157850299
Pd 9.6077818470726 6.210114978160915 7.7632535609726965
Pd 8.34585405132225 8.24809584908829 8.564186968175798
Pd 4.746464558782882 5.786565686883587 9.276267339671604
Pd 5.853860275720223 8.161546560854813 9.249884587496876
Pd 6.075380219298382 3.660036689276075 8.412785199953708
Pd 7.532569931504436 5.6916995254245375 9.806129811447951
