29
Energy = -120.69577239 eV
Pd 6.96788870033282 2.698037576502539 4.477970182560656
Pd 9.378177088049544 3.8669127448760765 4.622806248756591
Pd 10.15566640083574 4.760579128690441 6.937095254187393
Pd 7.375007675831601 4.917810573094316 3.051132374829052
Pd 7.855745086701757 3.3412397200037107 6.9141532854568535
Pd 4.874149651184435 4.053934890842014 3.392505986568568
Pd 9.842429904856854 5.861532201167654 2.9626157014293018
Pd 5.373079944669704 4.190464558547744 5.986589056734928
Pd 7.600492844393587 5.617904758055737 5.591030169018496
Pd 5.468523720685122 6.556941950572539 4.110376774463587
Pd 9.853569347633721 6.908596685854272 5.374387737451862
Pd 7.909684918966111 7.555107103842339 3.5697001556061525
Pd 8.750980705659432 4.477002944257992 9.197183896848896
Pd 6.267057559365884 5.029953830792172 8.30759224231237
Pd 8.618512737020424 6.763033612166114 7.7791978147696845
Pd 3.727520808551464 5.644746002970558 7.5902186089530845
Pd 7.468879744748993 6.584174876675864 10.189829984844657
Pd 3.2059924487608025 5.438518182200358 4.92581748067395
Pd 7.773354461686598 8.61423709370137 6.048456385283326
Pd 5.853663075361035 9.169635863568686 4.213217428772401
Pd 5.689456926156903 7.150561327141388 6.77965049423712
Pd 3.614424348366487 8.150990697988476 5.238972214559212
Pd 4.947280983448917 7.126106043482474 9.45379521950742
Pd 7.063563149011015 8.774599343983637 8.612501660162525
Pd 1.6522613090265539 6.901739211406461 6.458008726434583
Pd 5.373070790671512 9.791394122034248 6.724340043610307
Pd 6.278390230987941 8.68461149946903 11.161800744400445
Pd 3.2339531312825613 8.378871805108501 7.892413870462635
Pd 4.745147836034782 9.899722475095546 9.313268396908875
