23
Energy = -93.18594481 eV
Pd 3.8050955139091847 6.66627982953054 1.872451582177858
Pd 6.348780568476751 5.823360682191511 2.4166988639415465
Pd 4.086101188613296 4.599019545347907 3.4047152016691107
Pd 4.950008903430892 3.697895003580805 8.357228931779053
Pd 3.6912567526702946 6.991016477746806 4.596299634725696
Pd 8.477985333281659 5.003026764819307 4.8805856430338865
Pd 5.468816132271891 8.317947259107196 2.9970615039093658
Pd 7.746185766133934 7.545188846731484 4.026781342591406
Pd 4.517607071680015 3.6525374618953363 5.743511324037178
Pd 3.8846634753323506 5.893835471807523 6.94894172680416
Pd 4.631520209375078 8.25221008777607 7.991821636977327
Pd 5.752367161631977 8.509537546461045 5.614557522832895
Pd 4.6459521205433605 6.011915437784078 9.529924867492252
Pd 6.49303091672615 3.439470188819716 3.8929475423508255
Pd 5.978410630897411 5.854975881901738 5.001458539800571
Pd 6.944013038298091 3.881794421971997 6.717848715963743
Pd 6.500159814593943 6.404803621896414 7.444780638929799
Pd 6.469691144147666 7.820411749958109 10.014146466364519
Pd 7.26480139430707 9.004466610859017 7.707134143712671
Pd 8.724806942924351 7.253852204259952 6.352454593489
Pd 9.145323424296153 4.8838016657471215 7.564263682211282
Pd 7.146532133702154 4.93536003587281 9.491432715766233
Pd 8.792484208087279 7.0924767719105954 8.996175916100638
