25
Energy = -102.00894484 eV
Pd 7.2345237427158615 5.842593097057049 3.0143382331005606
Pd 5.145064618999348 7.425070755512906 3.4206776489168473
Pd 5.056064170264955 4.83787897703145 4.33544414254058
Pd 9.489309623280251 6.227326092319726 4.4140166986614
Pd 7.293295738039897 7.5212020473489405 5.152818678191492
Pd 5.340767047513763 9.352960452107357 5.189169990899026
Pd 7.455773122520039 4.746410137324998 5.417924269029027
Pd 9.757592893644192 8.259982816645701 6.105667278601352
Pd 4.632112090373061 6.848991516824047 5.935595733549905
Pd 7.644486552927138 9.82822208732379 6.464503013700558
Pd 9.375292904422695 5.785165095478232 7.034289116058712
Pd 5.204800580488801 4.312723149096856 7.012771582009043
Pd 5.482823473290666 11.212658431439683 7.060689160573482
Pd 6.7781196319766766 6.340732274384395 7.55355328287674
Pd 5.435752536025282 8.66895444067475 7.81000037260897
Pd 7.805613926870491 3.784631043211803 7.8793722751034005
Pd 4.184728873413155 6.391975723315075 8.506351202803259
Pd 8.270298345402262 8.151948195018212 8.58803976829304
Pd 9.80823704246661 10.13140443499513 7.998629155536563
Pd 10.793482260580317 7.529188894064087 8.489317353636126
Pd 7.071050464644724 10.412352012980984 9.064617609240774
Pd 8.670603813684234 5.750331564127639 9.550734084949555
Pd 5.961159900793216 4.694939190767851 9.608820070811673
Pd 6.1949538447923125 7.486711499025771 10.034866585695935
Pd 7.200714647674973 5.742267918727588 11.644414539416134
