23
Energy = -93.11214574 eV
Pd 9.177656740524599 4.276396611316848 7.423588147861008
Pd 6.35439247986165 6.590132863701458 9.929409559334305
Pd 7.859464255416925 6.533905989686431 7.801084047551509
Pd 6.7705205673374 4.247145048674599 8.547429645751764
Pd 7.437527226160844 2.4090349517534135 6.700902075581091
Pd 9.621975613344866 6.388816435403645 5.8890224566920395
Pd 4.7425919989011 6.19064619744312 7.823366708911655
Pd 5.290075234188539 3.8766792341330203 6.376712714156355
Pd 9.988865202186517 8.50960081534663 4.371258659648582
Pd 4.5368871300529 4.54916084918171 9.808827538703019
Pd 7.513827944177647 4.648620573970175 5.2915719151687455
Pd 8.256322665990371 8.776558680246701 6.351032167195926
Pd 7.424319259800345 9.088206114378131 3.8067350175067833
Pd 6.37771950150121 7.032492763674668 5.676420822642363
Pd 6.092268369560691 8.530300374550572 7.979126522208133
Pd 3.1341680031363017 3.8610461035129937 7.741350173589332
Pd 8.254250906154875 6.654232428527043 3.646895975033692
Pd 4.111573841139686 5.7100540997653395 5.018904419857075
Pd 2.303808452194501 6.12193704388879 6.790363992410281
Pd 5.796918655910335 9.90511521826416 5.722205178323752
Pd 4.9772284125561175 8.052700379133935 3.7190437099047773
Pd 3.8857824915857377 8.171336327996919 6.25209712658511
Pd 5.951938051305655 5.550026169005797 3.2634304485991406
