23
Energy = -93.10245417 eV
Pd 7.7753950781575965 4.412435074344949 3.1270939963489908
Pd 7.576550839067595 2.903064759272845 5.297650068853103
Pd 7.40356401226427 1.8753314003449235 7.6739462706517685
Pd 5.658040571700263 4.682084874188802 4.622996654346627
Pd 6.146226940439706 4.124767991760244 7.18527724877886
Pd 8.422708599187256 5.346573923526211 5.574528844658677
Pd 8.683080439806723 4.093160513112293 7.934155147878196
Pd 7.364378958387922 6.949841600919927 3.66067713746347
Pd 4.769335323955458 6.9492914784426025 3.9107848715028424
Pd 6.22394426309927 6.774520161076346 6.261946473961638
Pd 3.886231562105674 5.638750054097956 6.598306553735791
Pd 4.884051863455768 4.963121871170262 9.222803538532208
Pd 2.4358954976278997 7.202512359203286 4.95129495010914
Pd 8.498216835332094 8.03185604980106 5.87073911791398
Pd 9.817598701701188 6.3842203194955545 7.564230347478689
Pd 7.264353288996234 6.2466956641859275 8.670496920372088
Pd 8.721784921001783 8.542181412879149 8.499003935677488
Pd 4.703281309318042 7.3899153791869745 8.493800745636188
Pd 3.7183170767858384 9.320873355092424 3.869845031222094
Pd 6.316849565945034 9.168088925377267 4.719060990801099
Pd 6.439906433721699 9.236011169735463 7.380817264470267
Pd 4.115849582093855 8.615094151592807 6.325759168134274
Pd 6.525582873072771 8.510474811111816 9.948380622106797
