20
Energy = -79.87842556 eV
Pd 3.5810444996682977 5.580447224232414 1.6399969114664332
Pd 1.7322019614304638 6.448581692505603 3.3248313568474925
Pd 7.0898768130607985 6.926492516026508 4.695667528581332
Pd 4.410041617911141 7.072554947494376 3.6544369690516825
Pd 5.889953475643658 5.156928350199193 2.826676928134169
Pd 3.2856561353670686 4.3842261214411336 3.9824874914099735
Pd 7.570256193222297 1.5964571040566091 4.588171041693846
Pd 5.305330711745054 2.925253299266388 4.271569054552293
Pd 2.5353725790276522 8.610970950409094 4.675481766441361
Pd 7.718924807384184 4.219835373291255 4.323380041012714
Pd 5.381479268666106 5.35619532560156 5.687778487024724
Pd 6.4574601683449755 2.865842232161912 6.627861443975552
Pd 2.6662154007575625 6.198583558161116 5.787071264355637
Pd 7.97783507307309 5.208119414458087 6.780036780401412
Pd 4.7259235045409955 8.1063836745922 6.002377949290748
Pd 3.729279166617241 3.7267924340385776 6.67368749297355
Pd 6.578714521806064 7.225151210810058 7.507314773145053
Pd 9.10207524953699 2.912454194588084 6.200505232965064
Pd 5.859880814802246 4.675071479352159 8.35571925431023
Pd 3.9768070540872738 6.377987914006863 7.969277249060364
