22
Energy = -88.19361964 eV
Pd 9.897203460135746 8.156473723950164 6.202218662747804
Pd 4.687884165743074 4.864338835177781 8.886920231566876
Pd 5.400884858114654 5.512122334341552 6.380080070643298
Pd 3.5333862307753368 6.917654018221878 7.655817052781646
Pd 6.313397823123879 3.1710011993814633 10.00345558754777
Pd 7.990922263111076 11.687600593841307 7.192242094794265
Pd 4.4598324043761535 9.34718885612155 8.343152532506194
Pd 9.929944682100492 10.740794116853266 5.718249967070964
Pd 5.273629610362051 8.199530733125608 6.062213715708538
Pd 7.092751970701493 9.386571241963066 8.13305522387857
Pd 7.8303230044358285 4.380874283296667 5.957821375250809
Pd 5.598079277950767 10.87196996354587 6.419761930553664
Pd 11.212620233870483 7.659382750374954 8.438377644340468
Pd 7.561142964507488 4.978835369705614 8.61834792579457
Pd 9.826632004769175 5.646601988747187 7.276090757279754
Pd 9.67044092811503 9.846245776385377 8.221721187433708
Pd 9.276957034069106 6.116863958081896 4.662771511789626
Pd 8.673736408254824 7.390705102459742 9.041667462855061
Pd 7.630602236790526 9.440378691047156 5.479772467995767
Pd 6.066831844485068 3.099425058422573 7.415007242852178
Pd 5.992383092527408 7.147473559593212 8.766677694087287
Pd 7.56026964865269 6.973829769863193 6.527911777865197
