20
Energy = -80.49099625 eV
Pd 3.2763907188982584 6.880362374470882 7.221609656827992
Pd 4.821884757426611 4.67486111289017 7.0808837309301245
Pd 6.374530374684467 4.599344433632322 4.662142613712821
Pd 7.138540785192532 3.0982269954749717 6.879907160996994
Pd 9.060925980516288 4.6247670506868195 5.336936841958158
Pd 9.291258459221963 4.608617696793609 8.119426500892217
Pd 6.750626126038306 4.570865210212433 9.21550305476159
Pd 7.236211232300133 5.684558568597153 6.891934387565943
Pd 7.821515171971657 6.960898702725271 4.551369867972512
Pd 5.481530747489215 6.898214189466022 8.614485585749515
Pd 5.227591469406356 6.917499075219521 5.489965750997809
Pd 4.767548737404273 9.125244664106866 7.108250920295238
Pd 6.319669035252795 9.280729969509025 4.697307134195476
Pd 7.20575679357771 8.184742957519898 6.908077041389555
Pd 9.007861210152706 9.317808208464896 5.367806550197879
Pd 6.682594655597593 9.255325882952121 9.242677227450057
Pd 7.055079962384023 10.769302397160718 6.930782394960548
Pd 9.232346390677362 9.30194773250042 8.154035306658407
Pd 8.192371183916746 6.934227819717551 9.121674797571282
Pd 9.656658327965495 6.97211220615607 6.702734749961272
