22
Energy = -89.01457314 eV
Pd 4.283445333224592 2.819821667022481 5.778616080143769
Pd 3.6460124386467667 4.446402578295457 7.831109963015942
Pd 3.062249605325504 5.169706218055157 5.3440219923106485
Pd 6.143805363685982 3.878396498287046 7.280777783388455
Pd 5.592168327080931 4.797807529815291 4.629543444835771
Pd 8.650949995783847 3.2152556554497638 7.125967292727689
Pd 5.426728819789431 5.909731607264722 9.11797680673762
Pd 3.917898608257708 6.993002897633237 7.157713161946863
Pd 4.47755808331487 7.262709196027578 4.5968174828920745
Pd 8.151158719445657 4.905271661789177 5.221897408358165
Pd 7.98354929399322 5.145371622405938 8.780914500670168
Pd 6.495806292041401 6.404720249303807 6.57857487245125
Pd 9.98326367359562 5.595349713056019 7.07908951394883
Pd 7.301182949797318 7.350567131947477 10.15686531922243
Pd 7.021326817296131 6.892581101511853 3.791564363570315
Pd 5.857493319183997 8.578716109635348 8.27768702584289
Pd 4.462560371107289 9.407772293416434 6.163042282720099
Pd 9.219398764471594 7.391636028170995 5.332556028152973
Pd 8.383233831317995 9.151079694144777 3.610022599350617
Pd 8.440466820495738 7.6684224382533115 7.851768550200936
Pd 7.067599808673679 8.916707517828568 5.915831523660642
Pd 5.705687712069929 9.358281057171954 3.685029752895932
