24
Energy = -97.90267294 eV
Pd 4.951757147627386 7.423436844388827 9.52198523474503
Pd 6.288029377169854 5.1596112278438495 9.115345200716453
Pd 3.593473817598013 5.185688432969955 8.718963190840126
Pd 6.296387160876255 9.70824624668581 8.99137825103696
Pd 4.531030502175922 8.852003688606123 7.280129603793899
Pd 7.165719565585291 7.414020919648679 8.023933890839094
Pd 7.462762867384111 2.9378927002400834 8.416310720325495
Pd 5.036849896294378 6.294401209256821 6.875785378400703
Pd 3.071653035537368 4.796313804633482 5.957273804401159
Pd 5.177787140156659 3.596078284248379 7.2044418544040765
Pd 7.0635513094124205 9.444079102696264 6.4301756998777515
Pd 8.60494971294366 5.228417104531419 7.602387316230814
Pd 9.247381875967568 7.587876956384233 6.362030960189596
Pd 7.273483969881419 6.153365621815129 5.395963335018307
Pd 2.9183008327691704 7.461561948706757 5.662756202169574
Pd 7.579190009390062 3.4263118842492566 5.855934569764081
Pd 9.60687500041282 5.081206934077112 5.080282308354615
Pd 5.370941961519288 8.053404965225647 4.825234984988291
Pd 5.3946295727800795 4.395748304799477 4.684951507657264
Pd 7.925680710331961 8.442101910555076 4.150311389019581
Pd 3.894408056292506 6.167315330762984 3.564072297896265
Pd 7.687801570551005 4.184098472303249 3.3241111299897597
Pd 6.528336561254434 6.571603556014684 2.87531093751239
Pd 5.322542610431522 4.42600519183559 2.054084302091561
