26
Energy = -106.6581333 eV
Pd 8.32011461259756 7.077659677470118 2.7865795425647804
Pd 10.966816863279572 5.655487981129755 7.092881666892477
Pd 9.62594919820614 6.184756099830509 4.882658482099429
Pd 9.266545360180936 7.61141891768774 7.3210446500422455
Pd 7.994001263042526 8.363046201455225 5.090330300055711
Pd 7.483562885691589 9.559271436082335 7.450514516259016
Pd 5.953891999859625 8.22706600591777 3.3093201827052483
Pd 9.337628252817572 5.7335787437571755 9.317598926833016
Pd 5.442365989047423 8.924453898570176 5.813431032799443
Pd 7.5478315424322915 7.668644453546387 9.459424979743304
Pd 6.798358094632461 6.017912015330105 4.613563770958084
Pd 8.42485291820782 5.088287489461744 6.976850112825441
Pd 5.176154000502884 8.795244475817146 8.568247910804994
Pd 6.44588500424277 6.929441497246132 7.208445904986682
Pd 4.4761156646484554 6.102007042542966 2.9201775876987006
Pd 7.864543148920461 3.604580310761732 4.930374832789202
Pd 2.9331485661557863 7.771564278334957 9.481031730281975
Pd 5.246813762370589 6.81531805255794 10.413853445081498
Pd 7.719723026499433 2.703298138534651 7.548000525041279
Pd 3.430412958401075 8.273775555092028 4.227014084216356
Pd 5.265667092883194 3.8938431258272614 4.187749123468274
Pd 4.222648233057444 5.824812149137468 8.20332625552175
Pd 3.161299111312544 8.00808725414672 6.879037156935824
Pd 4.260070764468482 6.042381961541989 5.532539288202332
Pd 6.736123515165209 4.93668472855184 9.12840126355434
Pd 5.782044633524757 4.231152270727237 6.737047255044142
