21
Energy = -84.60576836 eV
Pd 8.795681647912792 5.742454178636614 3.7188129793802176
Pd 8.530832047505697 5.7995528327410915 6.349865430978162
Pd 8.713061260699495 6.40715531746886 8.839097815958622
Pd 8.431560301383472 3.37103706494711 5.300435368928326
Pd 7.5299785084131265 7.727929177982683 4.952400664539632
Pd 6.836496839073695 8.1654324516706 8.361503661687731
Pd 8.575154136170031 3.702025968143631 7.98432642550667
Pd 6.557954581152891 6.74161693979739 2.5327404390111132
Pd 6.441334260716964 4.896295242233406 4.492068387753457
Pd 6.557720377885283 5.030702450519182 9.034254012264595
Pd 4.3720138323125886 9.245999262705048 8.36006604943451
Pd 5.997650062452485 6.31985675602143 6.785682906438443
Pd 5.886421268995079 9.122699649031345 3.4310856960669414
Pd 4.768319306045872 6.865839369687139 9.378593930082825
Pd 5.530898054960574 9.021842654361942 6.052870985441758
Pd 4.097117834238318 4.570236791900116 8.140210467001829
Pd 4.37356272136625 5.061438960440759 2.9019253412091763
Pd 6.1830727297740955 3.557263731966463 6.762715028562296
Pd 4.624603704610634 7.10271899910817 4.49316869584347
Pd 3.9605719411752953 4.7507153522822305 5.5233565555199915
Pd 3.528845749398578 7.076119390293339 6.978810736020496
