29
Energy = -120.5870644 eV
Pd 6.806900868882392 9.411594919839022 9.485588565712817
Pd 5.269215263742642 7.149089863422883 9.474022282394504
Pd 9.443076365707196 9.18540411540962 9.401062032471325
Pd 6.647982457295397 4.791858581030318 9.402040152882634
Pd 10.927410178638564 6.972628569059618 9.135342076954233
Pd 9.29014396696525 4.874255867329246 9.365062629500631
Pd 8.23061428688799 9.930488606820944 7.087212605684281
Pd 6.088433214965073 8.419699638195205 7.186099932857304
Pd 10.325852923011443 8.387701032230174 6.941334904431259
Pd 5.996270294821504 5.9173504234206185 7.140535761226075
Pd 10.238903996541064 5.655315747973523 6.918781939890427
Pd 8.033963852307073 4.265315385321992 7.016743134299767
Pd 6.556141233180794 9.513529773755515 4.865677685360323
Pd 9.169960135420277 9.237173847924097 4.613747308277039
Pd 5.03198378922011 7.246923605497043 4.950109666592999
Pd 10.685091635601289 7.038126207687178 4.662677828852174
Pd 6.410299464258578 4.88697802849696 4.780426722804855
Pd 9.050841246339038 4.917664306939175 4.583598827472775
Pd 7.56694479655257 7.035109556080039 10.802548436739276
Pd 8.24259135597674 7.078839633396443 8.348334639093517
Pd 8.098783839010615 7.098114074748849 5.742565441047059
Pd 7.169493657320191 7.240057804021177 3.3766116136712014
Pd 5.8583227511621985 11.06649048752468 7.272251096916414
Pd 3.9881557210924528 9.567976961501587 5.9422646767746246
Pd 4.131184685805943 9.508321508257213 8.700239421532848
Pd 3.57472528224978 7.252436963447492 7.296332715363785
Pd 3.9734944348652332 4.904391375903346 8.602463328189971
Pd 3.8287221263396938 4.968588328475518 5.847334192432442
Pd 5.587497291635914 3.288974644035907 7.087418751522754
