23
Energy = -93.09127031 eV
Pd 2.945673891066042 6.8958268714271265 6.047724987952398
Pd 6.811308664040836 7.85162321168477 3.63634672524458
Pd 4.852374425022843 5.797297998097273 4.342122415477892
Pd 3.213515536961103 4.23740946298405 6.1722815017973165
Pd 5.2864765614231715 8.144033622728967 5.77758357890273
Pd 7.91891858462412 3.6109187653861485 4.41860273197556
Pd 3.010326197874691 5.587001157337987 8.574256193075334
Pd 7.043649009265809 5.426866532361735 2.8067099658325345
Pd 6.545136911418745 10.243015250598129 4.8115239666666465
Pd 5.174944184998697 5.830781354423855 7.074781061816274
Pd 6.38586311789425 9.827523913350129 7.512010401562122
Pd 8.942761348636942 9.136576845210262 8.206268678022328
Pd 4.418146685977501 8.023076765232451 8.328628211962226
Pd 9.357319307886362 6.388298182669347 4.334311795942266
Pd 7.250010332508563 5.9558239954851135 5.619252362442307
Pd 5.806480854588803 3.5631725536737378 5.850644767564516
Pd 4.803987956848388 3.501411379147115 8.35106371346724
Pd 5.614903429046181 5.662371306379994 9.706150554265143
Pd 8.21511724062457 8.499727871333917 5.790600878974682
Pd 7.021975088931944 7.347657852143747 8.215125406636542
Pd 7.475869961060182 4.590641696835368 7.945377276708775
Pd 9.57446732504563 4.304085040599291 6.277012086829453
Pd 9.392631104584945 6.65701231602029 7.293713287906484
