23
Energy = -93.66123018 eV
Pd 6.986028795013654 3.554914595649799 5.124811080403662
Pd 4.454586024105031 2.9756909397056233 5.876001344026016
Pd 6.457005232048772 2.6675427062344057 7.56520719284311
Pd 5.008305193307932 4.86463168529017 3.9571804226172596
Pd 7.5785664808789335 5.174861643179209 3.0355459695382656
Pd 9.355360426033743 4.718483835023996 4.911392348040915
Pd 5.408884600126231 5.26865139445032 6.90197626929915
Pd 8.233817192102027 4.614541835698752 7.307235003173574
Pd 2.8649404628453827 5.055651458060294 5.655711880195948
Pd 3.3510978598768806 4.75008075407163 8.344971058773242
Pd 5.924605910323899 7.181720840737903 2.82495342000982
Pd 7.064169669790822 6.4284786225206965 5.40104929163721
Pd 8.358166541198484 7.9994120566496205 3.866938455802674
Pd 4.301677103679381 7.140500507821232 4.90730068069898
Pd 6.4188806251090496 4.644177335211865 9.312226065232922
Pd 9.546593397489364 6.8213305766198635 6.473870724845952
Pd 3.117020668175798 7.20066493524915 7.288918485044586
Pd 6.0416539547697 9.148806236440311 4.66081570859997
Pd 7.485547942251646 6.959158020976047 8.278636004811828
Pd 4.93126315691401 6.805856195318101 9.255731744682121
Pd 8.029530988124938 8.940701575676204 6.4626909955695755
Pd 3.654490703534143 9.465050785699471 5.881717845391051
Pd 5.574220948135594 8.213379047351186 7.114795837534049
