24
Energy = -97.6361631 eV
Pd 7.454794981883274 8.427562423823327 3.881707994055098
Pd 5.120086087588845 8.538680105402284 5.274128163092426
Pd 9.758028640715867 8.373751733208577 5.169811232826573
Pd 8.446449332154302 6.101996441339858 4.678565170841947
Pd 5.093031302253564 8.40396847390479 2.664447032377966
Pd 7.527591157964671 8.894848474523894 6.566712858302119
Pd 5.192109944564377 8.831740769073972 7.810961588057891
Pd 5.918244794078343 6.196452604548586 3.826727624579644
Pd 10.930398274815452 5.938532126971512 5.593338435567515
Pd 9.193015339017537 6.866949131922254 7.343187173410641
Pd 7.366315796304542 7.748387720258833 9.017589827623983
Pd 3.329841378851274 6.935413556799655 4.170307859003491
Pd 6.479973211925661 6.466613330674865 6.536412372226228
Pd 5.193508813444932 8.558371465738247 10.420064826028037
Pd 3.829913609603703 6.564213715775141 6.808208623804244
Pd 9.114656191304386 4.25678442320876 6.478715071054683
Pd 6.779860925153202 4.092416815397456 5.190469131827882
Pd 3.0748513547352823 7.833071413989282 9.027286816626773
Pd 4.145821556102066 4.584830375999723 4.991764136516321
Pd 7.524166122302021 5.094702073264871 8.541858817397477
Pd 5.154728162443531 6.213158168284994 9.191400870217974
Pd 5.087239314808957 4.246576880304335 7.526595398369368
Pd 7.231320750360884 2.6639682472356534 7.415723208976005
Pd 5.056450074508627 2.215003121895535 5.865286056205997
