27
Energy = -110.90594641 eV
Pd 9.968124119417592 7.007222888155206 8.295485109996319
Pd 10.17907698238104 4.418614790816414 8.809477030918872
Pd 9.445313271038271 9.546491945090615 7.763503557485135
Pd 7.948414138722822 3.205651404928138 7.953362625600661
Pd 7.470431777839492 7.756048103261366 7.7644359472387885
Pd 8.998317911577526 5.228018455374249 6.581052567380708
Pd 9.220833731306579 7.781064122583954 5.772453013146005
Pd 7.814395111318588 5.561597521880481 9.246288021484018
Pd 7.313594316269065 9.838528956664508 6.171738734112874
Pd 7.665292146966439 5.998380255621236 4.451789029863294
Pd 7.286779215937972 3.500236577796359 5.388465916718816
Pd 5.464629986235414 6.737654910116398 9.19782002262155
Pd 5.576289235355191 4.0256895161844195 8.840877987636276
Pd 4.781360424813933 3.427234863407735 6.3291569195073025
Pd 6.306028632773054 5.6483117969846415 6.7736242347181665
Pd 3.673574591743558 5.513517028925209 7.632672770978285
Pd 3.0731026421354657 7.806280588153193 8.834109411503638
Pd 5.160855509127925 8.996801710462899 7.647204336385786
Pd 7.707502998067158 8.549174860829757 3.738683613510168
Pd 5.768299597381708 4.365714790708535 3.4378590662578272
Pd 5.797700983461115 6.955982594892811 2.7491669961572014
Pd 5.667507776470252 7.909510906898382 5.259001018184098
Pd 3.4519844258905374 3.3031127854336635 4.09041640202122
Pd 4.1605491483336365 5.693574681503505 5.018191235984531
Pd 3.1648630213250395 7.8449317314051505 6.248864689294665
Pd 3.5645048950726683 5.509245905882744 2.423186351019032
Pd 3.4484921411544636 7.9068220982725865 3.6629128734083456
