24
Energy = -97.66589473 eV
Pd 8.630576860218582 3.579205385775772 6.834266935196529
Pd 7.798291400045963 6.073104926843103 7.182031801628722
Pd 8.119843058384134 4.511960624316978 9.35227097008514
Pd 8.924321464173703 7.706364060794975 5.243774103342061
Pd 8.294301909594948 5.17976648534484 4.7792651964178665
Pd 9.139015959530639 10.327933214974747 5.672256392876113
Pd 7.593492791602477 9.478220755743903 3.6656289998219096
Pd 8.526977956159259 8.72153808191952 7.660185327309301
Pd 7.836833468946683 6.916213934282053 2.87908906688557
Pd 7.773284830831614 7.159045612426285 9.643345396627248
Pd 6.4654532571203935 3.2468104123756922 5.28907769172866
Pd 6.237824643085165 3.2731623850180913 7.934709293879169
Pd 5.650007018576896 5.634349181266971 9.222455365838469
Pd 3.9320349351429047 3.818617939375937 4.573592170740777
Pd 6.283573312588902 7.445452671972245 5.030299328390299
Pd 5.864369469220618 5.285789194238828 3.5623893428372346
Pd 5.287202213213012 5.237518614961752 6.458198389696481
Pd 3.724317022538373 4.051486283590632 8.366013377873351
Pd 5.960367759760816 7.935578897859432 7.882423618090789
Pd 6.598151067928523 9.850671857745828 6.096833041555746
Pd 3.5853769473271986 6.709482080502328 7.786100728260902
Pd 2.296041697805023 4.939820338118202 6.320189387394371
Pd 4.170598509157177 8.753294343770492 6.207399180716407
Pd 3.7623637348097576 6.548909310920502 4.766806126366923
