29
Energy = -119.57309359 eV
Pd 6.461839750382646 6.456535911588422 4.3435899971315175
Pd 7.821016896483124 8.823564565974216 7.879420396373624
Pd 6.461839750382646 6.456535911588422 8.569481826045326
Pd 3.7268657249074937 6.456535911588422 7.879353153275231
Pd 3.4239756881812595 8.908099118757498 6.456535911588422
Pd 5.852176693363899 10.304817241530314 6.456535911588422
Pd 5.105900400246035 8.788093881942618 8.857460708718614
Pd 7.28678280394973 5.00398949240158 2.4418966831768403
Pd 9.155714406941154 6.456535911588422 4.054741438688969
Pd 7.821016896483124 4.0895072572026345 5.033651426803222
Pd 5.105900400246035 4.124977941234221 4.055611114458229
Pd 4.783706443550695 6.456535911588422 2.4433363590745625
Pd 7.28678280394973 7.909082330775411 2.4418966831768403
Pd 7.821016896483124 8.823564565974216 5.033651426803222
Pd 7.975954055058034 6.456535911588422 6.456535911588422
Pd 5.701666239823534 5.1497063177918285 6.456535911588422
Pd 3.7268657249074937 6.456535911588422 5.033718669901617
Pd 5.105900400246035 8.788093881942618 4.055611114458229
Pd 5.701666239823534 7.763365505385007 6.456535911588422
Pd 5.105900400246035 4.124977941234221 8.857460708718614
Pd 7.821016896483124 4.0895072572026345 7.879420396373624
Pd 3.4239756881812595 4.004972704419346 6.456535911588422
Pd 5.852176693363899 2.608254581646528 6.456535911588422
Pd 10.098448541994273 7.869032506950853 6.456535911588422
Pd 10.098448541994273 5.044039316226137 6.456535911588422
Pd 9.155714406941154 6.456535911588422 8.858330384487873
Pd 7.28678280394973 7.909082330775411 10.47117514
Pd 7.28678280394973 5.00398949240158 10.47117514
Pd 4.783706443550695 6.456535911588422 10.469735464102284
