20
Energy = -79.63680481 eV
Pd 9.545843886994708 6.256458562801428 7.763997403599486
Pd 5.0567403228985635 6.042120658329072 8.800242757581257
Pd 3.740839825771755 9.062835936011153 5.442304207945787
Pd 4.550724681109272 4.7498992473655015 6.409445774529869
Pd 6.58044092562904 5.613005537928001 4.579034452595012
Pd 7.533047728028082 9.67743261489446 6.228592587452593
Pd 9.694635751029763 8.852816232722075 7.374947770435297
Pd 7.100690774975454 7.722316073062944 8.276164364477928
Pd 10.090307862618044 5.425813902497618 10.220044806025118
Pd 6.972422912411771 5.1757188602759445 7.255460999390726
Pd 6.176742808339447 8.33319077007673 4.292966264090441
Pd 7.819181977875299 10.116896930183355 8.88486065774207
Pd 8.932793363855263 4.668629199142232 5.6710862252927505
Pd 5.296532978692979 7.234477448091519 6.425244169831668
Pd 9.173428020121598 7.910977013958087 9.862005020219176
Pd 5.31239490777528 9.650756672125883 7.552508432607202
Pd 5.544466554806636 10.828491106288732 5.033432484458076
Pd 8.325872692407023 7.25373187192604 5.657850241962333
Pd 8.996726308367887 3.8010995485589065 8.3810849933897
Pd 7.523432094881604 5.590598192349363 9.85599276496242
