25
Energy = -102.47825292 eV
Pd 2.708078748224371 5.7290618853006405 6.428322831537278
Pd 4.776427211910491 4.294632751464137 7.072109354872207
Pd 3.5111764861518506 9.655587295320943 4.030194872510312
Pd 3.406488951370718 8.546000833855418 6.4708301550596365
Pd 6.841021916467258 2.952035524702703 8.035926480103921
Pd 6.6069805494 3.516628225678361 5.258515908499983
Pd 4.542612419844973 5.004566199071732 4.388677119618888
Pd 2.796296339015827 7.141340648952306 4.243625028693094
Pd 4.123261172639623 6.728933354624388 8.3934510645716
Pd 6.094412247432621 5.15019551954967 9.334921198752179
Pd 5.345551541840468 6.848265845767446 6.028116458897076
Pd 5.751995156747164 7.620941628016281 10.252129187786574
Pd 8.651858546649455 2.115008899369355 6.276575303888871
Pd 7.319706332425114 5.412717494257517 6.998604831179566
Pd 5.8290892966051535 8.76751354193203 7.881105249150164
Pd 5.249457090726245 7.621438147881691 3.492647146455954
Pd 7.90027130988388 7.225207782662875 8.810744304767352
Pd 7.184681791636318 5.933417805878906 4.172322183035145
Pd 7.876296767647781 7.999491599742345 6.252935814341164
Pd 9.18843527411903 4.490310939984336 5.329552496634693
Pd 9.323863661696771 3.94836555875559 8.038614013612461
Pd 5.795318657935999 9.493342728189926 5.325393468215435
Pd 9.903265180514452 6.422992229088941 7.257519952971741
Pd 7.741148854880044 8.528513765716262 3.668820052646187
Pd 9.665826692666727 6.954577270444659 4.599572389531132
