29
Energy = -119.27775325 eV
Pd 6.162821633695631 4.271967050420521 3.316313019583001
Pd 6.67305865199903 5.824451913299052 5.956066296470728
Pd 6.953547128972406 8.496835112383843 8.02434193951864
Pd 6.860927730228361 3.1956009587798815 5.688530448775786
Pd 4.88637525434937 2.048841237138386 6.891012458781795
Pd 5.5464431110573695 4.375316281726551 10.131034166337797
Pd 9.286589177857763 7.172575360790355 7.880078500013065
Pd 7.238342214750483 6.640959833816159 3.4341667365311923
Pd 8.149389439527127 9.094283771579045 3.5866410779759
Pd 4.324690961588505 6.052673885872026 11.649448803019956
Pd 7.009821607871472 3.0830636921545462 8.348049241409843
Pd 5.044543052315716 6.40485571605002 1.9551338755940544
Pd 8.83075248109471 4.682825111804327 7.006815901618515
Pd 4.539270361769269 6.739948108306785 4.546286082121227
Pd 8.641814086706345 4.544338423668107 4.301511346788663
Pd 4.87417800095144 4.513445515460479 7.6131922363676745
Pd 5.483819490463378 8.845769739284508 3.076482864146286
Pd 5.476497535130535 7.4506011098382094 9.852527675615462
Pd 3.3039159747013405 5.9300247732810165 9.244698922393797
Pd 9.059293258156716 6.997909205854222 5.278137223353212
Pd 3.638082318347006 4.299522949343309 2.5406558643839587
Pd 7.154833540290608 5.842223114371074 8.692880077237382
Pd 8.754243038043917 9.368188977097644 6.255883300834081
Pd 6.3682793636976225 8.48390666022854 5.499914843047657
Pd 2.1892780764084523 5.755213779883206 4.152685834633569
Pd 2.692891828670672 5.669951255063332 6.704475110582025
Pd 7.135572284115926 8.050057474510364 1.2466093031309198
Pd 4.723587542938684 7.237543427379083 7.251582575632476
Pd 4.2602600654737035 4.104085804514038 5.13379396981029
