23
Energy = -92.92373694 eV
Pd 5.389408497652533 9.462470880694234 8.011026676454238
Pd 7.355965390243884 7.9958779641566595 9.093039768332272
Pd 7.110922481104629 7.374667180871479 6.585613201950598
Pd 9.393195529309676 6.410136224873137 8.353837471032257
Pd 2.8744138720110963 8.460539002582687 8.277346176754625
Pd 6.329128649048299 9.602449961602144 5.508895729605282
Pd 8.113787221985122 8.395432356688135 3.9131468589883367
Pd 9.571904255177888 7.129393158481045 5.778672305556757
Pd 4.259861099496375 7.951772730527197 6.092727906577481
Pd 6.956996944660294 5.334559806034288 8.69510626311775
Pd 4.955175143014295 6.860632060227944 8.510944043192072
Pd 9.052315986734449 3.7434964409229607 8.812948082873072
Pd 5.6211960004131205 7.416377511579914 4.041795988470147
Pd 8.449451945621771 4.757498226497584 6.461149017166506
Pd 7.798770737232564 5.757503467760856 4.237844508443625
Pd 7.090144237658094 6.823891328977898 1.936924248480534
Pd 5.51349696709651 5.2297998731509905 6.07522244105348
Pd 2.846848377258708 5.96757585295604 7.1515921856312765
Pd 4.5227432545915915 4.1958676840122875 8.291481984093041
Pd 6.779640228242825 2.9653275658183604 7.498243410187773
Pd 3.4643798748710597 5.85039879191282 4.545171684827155
Pd 5.534035006172002 4.919890315542666 3.1137245769075226
Pd 6.819912373782838 3.3027001349334433 4.835577365885195
