27
Energy = -110.63450957 eV
Pd 7.806164343279758 7.45703406898516 7.692318181446295
Pd 8.307988464584756 5.172857713445399 5.687279649433207
Pd 4.426920880308808 7.830199231141751 5.988927278630436
Pd 6.821812937319157 7.09953270273448 2.7128578288969716
Pd 5.242979081152769 9.181041207643807 3.7064266919558784
Pd 9.557110657415848 6.502074688174446 9.559644273322526
Pd 6.261234573948491 6.298796760939476 9.621360311357167
Pd 10.038729057805421 8.927753671070361 8.44555631773826
Pd 9.005564428468558 9.213471546276422 6.052081302506899
Pd 8.69254649408364 8.947629000352118 12.59068289366507
Pd 7.027533669424773 6.834265940518701 12.12274047931942
Pd 7.640483211187838 8.51950805878183 10.192977731597267
Pd 6.8646958430009635 7.479145940108649 5.287241295123593
Pd 9.241722564035582 10.60529398881274 10.414073743312454
Pd 5.982706033064105 5.097246965957476 4.531589820360413
Pd 7.712693402626121 10.299913189094354 8.222287624921425
Pd 10.718471767242265 8.482310120067055 10.946987281275431
Pd 4.254471998084708 6.765756840368946 3.550420869357353
Pd 5.7550789438027286 5.781662138255685 7.098999839647106
Pd 9.23415947278708 7.205292359915727 4.252400243727261
Pd 5.55986687699331 8.625034906665924 8.281529249722247
Pd 6.3547225628039135 9.944730285476888 6.026202333547625
Pd 10.160431826604151 6.758752587340016 6.82152979938048
Pd 7.856315753167003 9.48205121497738 3.654036549404137
Pd 8.060493072310052 4.767352817090003 8.21723947618104
Pd 9.61889692447411 6.447344275476301 12.269111423137355
Pd 8.057948374656457 4.739639012742555 10.869547318995997
