24
Energy = -97.83257974 eV
Pd 6.538459385012811 3.9035929428159193 1.9777048107936506
Pd 5.055441847476496 3.153122174811695 3.9256529825583466
Pd 3.2101220417164558 5.058573737891619 3.717179157940569
Pd 5.793349745291488 5.789117414335739 3.688571767304118
Pd 7.000956687093773 3.8850701500214457 5.514062721161055
Pd 8.299715825497142 4.967328534277988 3.5112828599652444
Pd 2.015006805970779 5.698274179242889 6.063967496687716
Pd 4.539703981583447 4.795681235798897 6.026338438165251
Pd 3.903538194027107 7.256932399145563 5.029539559607909
Pd 5.997575005399872 3.837102596222477 8.03483968602301
Pd 3.3363390617451625 4.74017605328821 8.313007626384312
Pd 8.527120964639957 3.226883976397365 7.575076823126971
Pd 8.681955324788525 7.385386743867277 4.494122964485317
Pd 3.1439034331985107 7.441759810507405 7.658723974829636
Pd 6.806735703033332 6.599400841887466 6.1411862367076475
Pd 6.1333963730687815 8.396872517103114 4.177173721147238
Pd 9.306227144398024 5.19966564952266 5.965790652263153
Pd 7.978023819429224 5.681600021120758 8.350216008422217
Pd 5.268263405106624 8.811477901075333 6.6882953612037115
Pd 5.376838844567474 6.366323872642517 8.429504249682868
Pd 9.445462237625634 7.587394109960517 7.12143494508899
Pd 7.262697367045899 8.264111153737517 8.487118353786842
Pd 7.780906447371243 9.387787606425086 6.052672431468889
Pd 4.763946922220512 8.792048456891905 9.263302260344009
