23
Energy = -92.44495855 eV
Pd 9.609848969808068 4.1428677965290515 8.919595720522798
Pd 10.140001842034305 6.660934862017386 8.457245153988525
Pd 8.291979860309123 8.558108351108471 8.540925194781343
Pd 9.537673487855336 7.789283613189542 6.159521346034399
Pd 7.1461857837697496 3.6083824205372634 8.457692452910061
Pd 8.447752161925322 5.367774870418068 6.777847286298133
Pd 6.918096327825585 8.033031294643605 6.359132999961513
Pd 7.7217411803708895 6.069708302076363 9.382155792711643
Pd 8.148066071403052 9.159247326548192 4.357031809535504
Pd 7.784996912878528 3.932845197378656 4.746138115002117
Pd 8.12051521146524 6.508016536996542 4.231291589163926
Pd 5.697816296970557 5.535903639894182 4.748243700875161
Pd 5.919133793897415 5.747350448366124 7.410537552928888
Pd 5.8588778879254635 7.956912657716791 3.8414933295004343
Pd 5.723472205368726 3.3130186281423435 6.272215853104399
Pd 6.079465629886621 10.56278387899847 3.5711061151591212
Pd 5.757533164469528 7.867178610897326 8.87896957313381
Pd 4.441996501204884 3.780153775893123 8.518432741210342
Pd 4.3140925144898326 7.805485456351327 6.608846720296178
Pd 3.452637495064864 6.890851872820618 4.318090543987877
Pd 3.5677557785400955 6.348648467022331 8.663430671654718
Pd 4.016568148985207 9.560287936449813 4.752456097439566
Pd 3.526538241273497 5.022900800083755 6.280762910789994
