28
Energy = -115.64171097 eV
Pd 3.432455079912267 8.202960344108673 5.053397220167113
Pd 2.9071504210576973 7.308666010400219 7.470049678505255
Pd 5.921107047248856 8.632915144473 5.415883082304271
Pd 8.578159383000274 9.096597152352944 5.353695135518699
Pd 3.767429140690151 5.661033527222881 5.521831351426329
Pd 3.023779189832295 8.80184568695841 9.576625727833978
Pd 7.474364063231446 8.070924402330919 3.182032739565341
Pd 5.323583074837804 6.695306475468048 3.7253398375952433
Pd 6.807872601535195 10.654032103517054 6.76331987988112
Pd 3.656294023486574 4.691934172787175 8.03167485736903
Pd 5.4869888267659555 6.734420947364507 7.369038848367784
Pd 5.190402225403477 9.169872884583857 8.245066427287773
Pd 7.4301188074115245 6.366427714955018 5.633770263059486
Pd 4.211106879335748 6.525381818078548 9.844949264141583
Pd 5.946063222146511 4.171752343546446 6.666284249985327
Pd 7.563819931690468 5.371830897769875 3.1884214947876717
Pd 5.389010036712233 4.028548647738968 4.0362487920032954
Pd 7.722954415797263 8.417835142417992 7.74899094922336
Pd 3.699515259922007 3.071475893704785 5.894455174843716
Pd 9.666775980879454 6.849417990946837 4.246435535960613
Pd 6.1282455409153505 4.713998529220466 9.278656665123616
Pd 6.67747779122925 7.324768126177831 9.861301789931929
Pd 10.012402100662497 7.447380170121018 6.896600730798308
Pd 8.241965983220627 5.891944073502971 8.201656755738153
Pd 7.817109507818109 3.444014404218275 5.030304514459188
Pd 9.942790382681732 4.256073108417253 3.6458589645020267
Pd 8.166648563092727 3.3125789271487167 7.768079270959314
Pd 9.638330073442782 4.909982914426728 6.1739503526206345
