27
Energy = -111.01344315 eV
Pd 6.539727219889053 10.383795082361734 6.333584807313601
Pd 6.539727219889053 2.6956593574163725 6.333584807313601
Pd 2.4181407297781097 8.016373080894331 7.394359119904843
Pd 10.661313710000002 5.063081358883781 7.394359119904843
Pd 10.661313710000002 8.016373080894331 7.394359119904843
Pd 2.4181407297781097 5.063081358883781 7.394359119904843
Pd 10.540685176916481 6.539727219889053 5.052512880844772
Pd 2.538769262861623 6.539727219889053 5.052512880844772
Pd 6.539727219889053 8.94591693635911 3.8561096167302273
Pd 6.539727219889053 4.133537503418997 3.8561096167302273
Pd 3.8433752563020493 6.539727219889053 9.343479920049894
Pd 9.236079183476056 6.539727219889053 9.343479920049894
Pd 8.88040530765074 4.236683657240125 5.438223089656132
Pd 8.88040530765074 8.84277078253798 5.438223089656132
Pd 4.199049132127365 8.84277078253798 5.438223089656132
Pd 4.199049132127365 4.236683657240125 5.438223089656132
Pd 5.085841749441796 8.831831422434888 8.219149653458484
Pd 7.993612690336313 8.831831422434888 8.219149653458484
Pd 7.993612690336313 4.247623017343218 8.219149653458484
Pd 5.085841749441796 4.247623017343218 8.219149653458484
Pd 7.920014243749351 6.539727219889053 4.140155738590347
Pd 5.159440196028754 6.539727219889053 4.140155738590347
Pd 6.539727219889053 6.539727219889053 8.791216195851824
Pd 4.452019831472381 6.539727219889053 6.853343573262757
Pd 8.62743460830573 6.539727219889053 6.853343573262757
Pd 6.539727219889053 5.241036952541819 6.208059107745648
Pd 6.539727219889053 7.838417487236278 6.208059107745648
