28
Energy = -115.79872093 eV
Pd 7.63773897331932 10.199180417603955 8.652281806172795
Pd 8.993367152794491 8.03418096295701 9.618174828441822
Pd 9.872555520702633 9.267172219789456 7.436258322868118
Pd 5.320056699522897 9.817045021189966 7.521374803426821
Pd 6.515067815652738 7.748348937612602 8.65043216372712
Pd 7.4952328077192325 9.078018369233474 6.209748443927491
Pd 2.938629422757248 9.424140990394974 6.448376105677933
Pd 7.955483262125685 5.6475208484001085 9.488349043061305
Pd 4.109711475074798 7.3177266404831 7.571712802321871
Pd 8.92776941775658 6.7523440656336 7.271436303355761
Pd 9.629759370398872 8.026261377940846 5.07873229955332
Pd 5.111722660805998 8.542206022615728 5.169430239394582
Pd 5.4902876213093155 5.2403601545410865 8.426459745466936
Pd 6.449649607552454 6.435916330019075 6.237670313365513
Pd 2.8188844795511443 7.116409233803283 5.142951088098186
Pd 6.944232248127274 3.191129024736144 9.278529405292227
Pd 4.909150207430036 6.265644768653199 3.7436889020018604
Pd 7.952324844323681 4.265675227012655 7.095723302375776
Pd 6.4531552262741485 4.12821655400853 4.952286884940364
Pd 8.780345067001411 5.472629285021003 4.868878548769145
Pd 7.25529138802679 7.546978217023226 3.9644250358652777
Pd 4.027868255589218 5.007270925275927 6.221273255908202
Pd 2.6487904226478225 4.80444076267528 3.9302743996501306
Pd 5.506625692329493 2.866664840126696 7.040348985513506
Pd 7.064306978297379 5.211711946356151 2.673439174055752
Pd 4.867183576546436 3.6112796084798404 2.9406183505902264
Pd 3.6614889167805784 2.6273189460911337 5.117742430224488
Pd 5.977988538908789 1.6285257599082141 4.5698769099829155
