27
Energy = -111.05714553 eV
Pd 6.722728708420812 11.486175241363116 7.250237156015791
Pd 8.543019015815487 11.394663378496809 5.239516464694958
Pd 5.943545865299037 11.118983270432858 4.690354856610991
Pd 9.017406975839435 10.286089220795107 7.578109451176865
Pd 6.803898522953398 9.448586408122397 9.118103264871285
Pd 9.935295110143885 9.202147007373368 9.659258295832615
Pd 8.069471849577507 9.060371551428092 11.534837216905938
Pd 5.5645338078294255 9.26101648390141 6.573999785091023
Pd 7.638523134929689 9.009280902713707 4.550882515983739
Pd 10.129234263594396 9.233040915102578 5.343795681781478
Pd 5.08555993134931 8.697073663919063 3.8989352585301065
Pd 10.516556707665407 7.764068110915544 7.492162659975402
Pd 10.634339574532573 8.196353993356642 11.931729292464876
Pd 8.324531407879975 7.184781816048926 9.359722091560162
Pd 6.813199737439102 6.592315826267974 4.067896171857986
Pd 8.72871361240964 6.4669618518399385 11.810751362417356
Pd 4.764720102753937 6.874953079797665 5.764127599479734
Pd 9.269939019334075 6.643953564119021 5.3132834458486355
Pd 10.817498620367527 6.472251944903618 9.850021745810952
Pd 6.131596405035065 7.284542667094429 10.834595044753387
Pd 5.448026363438136 7.209288714104707 8.299280298304097
Pd 7.848463096055614 8.057272843512775 6.9821077138503576
Pd 6.962819138068907 5.63474528130099 6.5070794546079584
Pd 9.342084887135012 5.323027826344424 7.7030870078241005
Pd 6.807546398064665 4.767819950688539 11.581671363845096
Pd 9.134529269724908 4.371592231457804 10.201356901308687
Pd 6.8396502955149785 5.06086088905536 9.017838265578783
