24
Energy = -97.61304149 eV
Pd 7.167090303090829 9.17149337420247 4.047102771290549
Pd 9.671928969944076 9.233320498872189 4.8463969679808425
Pd 7.449740782884776 4.360343553864706 3.79996651648167
Pd 8.34946621472292 6.885116232054648 4.628665785785718
Pd 5.856907759115449 6.864673536997138 3.6641659498692456
Pd 6.436057304947987 5.558096829507284 5.860931952594188
Pd 5.1770103648192825 8.637914994052757 5.612320595606757
Pd 7.802229426082363 8.867505323554909 6.7674022861159235
Pd 10.10904771040144 7.269618830214765 6.55791329262428
Pd 5.759244912997453 2.3147521620991087 4.185252913828174
Pd 8.957825832654642 4.873871071146143 6.269808703033368
Pd 4.561657343936725 4.589383651738753 3.8160675873637593
Pd 7.371631493131579 2.7876065927655973 6.176142753988399
Pd 3.4376209183478736 8.072007227732737 7.597496991170803
Pd 8.381341256451574 6.521329829689192 8.336641000231763
Pd 3.894719650504543 6.228370220140734 5.745178740860601
Pd 4.735910941510995 3.6595503154008244 6.405105630472048
Pd 6.722654673353581 4.354801977171879 8.177629003679833
Pd 5.95127186737421 7.232518534534197 7.694731288814626
Pd 5.5072375647964185 9.924498859597179 7.905267732071284
Pd 7.38536100033368 8.711288539115662 9.476416021792483
Pd 4.710364596974182 8.26076105893009 9.943852515823384
Pd 6.370975184895481 6.1514010316624725 10.089627876617756
Pd 4.201029646853424 5.463548992792711 8.378211809623389
