21
Energy = -83.54362919 eV
Pd 7.116675304019089 9.855138383079884 5.739575858989961
Pd 10.168398441494194 6.125571771014552 7.734005906189478
Pd 6.763964779669251 4.534167612900584 8.496726494179825
Pd 8.366265411875673 9.57301173305348 8.389685697431768
Pd 9.141560284962065 3.6587937796297028 7.716479250433676
Pd 5.93969206172047 8.72856078404662 7.776948883627942
Pd 3.4998041655717134 9.214442202715563 7.268795608051991
Pd 5.204041788185329 7.0402556707630035 2.8384471280032324
Pd 3.2275296059251724 6.6810013119402685 7.299749327100253
Pd 10.824177740405265 8.70473639168388 7.756135561713807
Pd 5.71328896742411 6.108571023520757 6.625390121141074
Pd 8.801602803047821 7.992469582972982 6.328770265384368
Pd 6.170918869284889 5.008554430211385 4.278888232081693
Pd 8.950314364805056 5.086082891035365 9.95494055495305
Pd 4.962394791752673 8.304113661693592 5.245586550609455
Pd 3.70246325526566 6.03145242321328 4.772444540588306
Pd 7.700420830839214 6.965318585622236 8.588669163971758
Pd 7.2646795189760605 7.396396308944757 4.413644922055267
Pd 9.789543114029152 7.719212471918222 9.937400049546678
Pd 5.114412940097866 6.6011365736934655 9.149974179019075
Pd 8.124954676785359 5.358094899205504 6.025091366347651
