25
Energy = -102.0776179 eV
Pd 2.9390522104198777 7.4993359838892175 9.480161744563272
Pd 2.343264005345097 7.4963553058182795 6.8656710265414835
Pd 5.4147554904496715 6.73737482640893 9.878053774935639
Pd 6.4051828844544225 4.756683932551838 8.389152303545492
Pd 3.790232671233768 5.493702507713239 8.021450421440996
Pd 4.876797826650433 8.048380436182542 7.65494471337479
Pd 4.092354949365335 8.583471866179643 5.234809253814931
Pd 7.920206413495592 5.897894798032392 10.208062147522426
Pd 8.960995774566586 5.21541305039154 7.837879330711678
Pd 7.464595013510681 7.638029423362498 8.279522680351393
Pd 3.7240071858123502 5.877795409969377 5.266837643783656
Pd 4.89473305232153 3.6463777447058687 6.626831535994454
Pd 6.8107785854857985 8.95361308816007 6.067252421940169
Pd 6.185202515313115 6.219182367365661 6.214639383930487
Pd 3.4668189224476182 3.2987076288822483 4.478952922638961
Pd 8.715040705810289 7.044177228160331 6.012019935655169
Pd 7.503630153212945 3.918056644871215 5.936883688596003
Pd 5.941668350460335 9.757230323637549 3.7063055388812396
Pd 5.783159656745309 7.139150322691822 3.7840698338947822
Pd 5.873241513232753 2.1296782051326506 4.739074969151003
Pd 5.660694120572648 4.573767490396222 3.874360589831811
Pd 9.989045664018725 4.715391073647115 5.465396306697452
Pd 8.180607084157895 8.32090003221994 3.7711644016235897
Pd 8.0274448650989 5.560005587250231 3.760389916771468
Pd 10.329415997263588 6.8205451161222825 3.839287438253193
