37
Energy = -157.7627817 eV
Pd 2.9130073682081057 9.327639834530286 4.994337770199841
Pd 5.1608861399702795 10.44323074521148 5.990781295621152
Pd 4.120039478330022 8.1244667479905 7.034003116415488
Pd 2.108716918097947 6.805359600891879 5.751092572027442
Pd 5.174111029505105 9.289314335672115 3.550367869122642
Pd 6.424192721077474 9.266801191184632 7.976099776968605
Pd 5.387390932182204 6.981322237663656 9.0382358255342
Pd 3.4467258641583185 7.295169268390868 3.4010231472541697
Pd 7.893692494497085 10.10309328284665 5.70715274735206
Pd 6.365642747550405 8.009597331232905 5.486099467311106
Pd 1.7141500383673993 5.314704894592057 3.5576575269020294
Pd 2.9132237843851563 4.094921726750557 5.525231356399284
Pd 3.350339873098408 5.626265745297998 7.799720759975917
Pd 7.726873155711132 8.046998363909422 9.954591069752466
Pd 7.780707951295135 8.814561457807047 3.2586810349185327
Pd 9.15791360708905 8.939134142665528 7.6754289439550725
Pd 4.6831950931195845 6.045793110437223 5.3818625977406285
Pd 6.652595791492581 5.7433640643902635 11.002889481744914
Pd 10.361516724076505 7.73732724769418 9.643237127739818
Pd 4.17834839337763 2.9427120166231084 7.514078707543631
Pd 5.969532311577035 4.832102410863411 7.428887998157645
Pd 6.045528221666574 6.752422491799848 2.960807943313367
Pd 4.25005101542257 4.6847589213675995 3.1117791803906174
Pd 8.866424672451124 5.570764377563128 9.566328473292232
Pd 9.142365943725798 7.64930897913312 5.261360837305317
Pd 10.29682583752519 6.375544145564205 7.355160935508395
Pd 7.3266435493447855 5.493407672302425 5.179458465716737
Pd 4.574018937766338 4.47156306215137 9.819022358413863
Pd 7.645812702012876 6.792047694485382 7.546633061037297
Pd 6.813865242366045 2.2257075411929153 7.177589930409274
Pd 7.095949546767331 3.624323952144083 9.432309152210772
Pd 5.499980634748344 3.322611522294972 5.096169131621883
Pd 6.86313868992409 4.1878250386392395 2.9038121490153626
Pd 8.660161074347027 6.253838645721965 2.9980583870164383
Pd 9.947179195925173 5.050892905669218 5.051564399293751
Pd 8.712602628745618 4.156117603090898 7.273624039424445
Pd 8.1608505839808 2.973155606711253 4.942978934763928
