30
Energy = -124.58872756 eV
Pd 9.34098414897373 5.891124616101007 7.046340865623601
Pd 10.867338405844562 7.187046311635802 8.767155058220228
Pd 8.177331178630864 6.025658448986621 4.45677771053882
Pd 10.2622680298212 8.270171973145695 6.414540610123973
Pd 9.435194141795785 8.256999684951378 3.951973163421364
Pd 8.401909539338615 3.7261191460893786 5.831554503515357
Pd 8.786712946442535 5.939293783399004 9.731807302688727
Pd 7.855472681237553 3.8017407856256025 8.44655802558304
Pd 6.320996450428686 6.99684124011758 9.342568054244817
Pd 6.751049029194111 5.725075838346949 7.014276118020711
Pd 8.511516859108935 8.324210849255794 8.463158819636368
Pd 6.836127160848454 8.505307220408408 3.4357604621091666
Pd 7.618662676199075 8.298934717872577 5.993763942644382
Pd 8.43048243920916 6.964577981716931 1.9211967098041685
Pd 6.073818932758352 2.7712605963136534 6.6777517219586775
Pd 6.668445067048125 4.761379199757296 10.673073186466466
Pd 6.1513671429203844 4.212944381537022 4.4464463946802795
Pd 6.1361759079660905 9.313469024995491 7.922841575705626
Pd 5.553195597566811 6.737158516966494 5.000179345907802
Pd 6.067954441315811 6.018679045702308 2.4392373402199525
Pd 4.99395212902172 9.207994401661924 5.442754973815646
Pd 4.2133999031399085 8.016183413935932 3.037225528727381
Pd 4.302856468189155 8.679507885389077 9.729147427250593
Pd 5.154114182534067 4.310063155420352 8.592567340653886
Pd 4.170931456999508 4.713381533185275 6.229651574686331
Pd 4.3672806151809445 7.391444548226278 7.405437717457692
Pd 3.7606005686525994 5.23690086939914 3.5920300544947112
Pd 2.870570663369403 7.181875871556918 5.194512154657237
Pd 3.6785692216631163 6.075676901415155 9.615946863431802
Pd 2.2140358325616276 5.891867150818135 7.412227040781376
