32
Energy = -134.01069494 eV
Pd 8.323706121611112 9.145112645296543 6.174325289064389
Pd 8.83890435316017 6.660428248827251 7.2903183190037355
Pd 4.549547564713821 8.535333040560094 2.8093573996162275
Pd 8.443599176806687 6.462977925620308 9.941845736409633
Pd 8.702260872461018 9.119899023936085 3.5331226075634423
Pd 8.40932102498575 8.817099150844053 8.843411007282821
Pd 8.908201587590243 6.7336899980785985 4.638127037016537
Pd 6.777593630754006 9.624402025863652 1.7957624916188708
Pd 6.4888054627298635 7.401532447050685 5.449733505558903
Pd 9.118725533585863 2.0501313206277163 7.09110178785382
Pd 6.295018778373864 7.348295784738496 8.116967370004488
Pd 6.8927522819637295 7.215262134282002 2.8142198033276515
Pd 6.252520247742591 9.86953815844356 4.368561725994427
Pd 7.0080164478011095 4.872502225047076 4.0648975275500785
Pd 4.008016374037165 8.458082962058901 5.443094503456067
Pd 9.098831475134963 4.371357625577614 5.793297210866352
Pd 7.104898784561696 2.5239553717248753 5.435803521136307
Pd 8.865649555365625 4.241238573589701 8.546511963103482
Pd 5.740274969734453 9.803455125279035 6.878516293748407
Pd 4.8809232517916294 1.5985291248341778 6.6137699694761185
Pd 6.686203063425797 4.98360584342502 6.7379697021643965
Pd 7.6279431897775245 11.114128115855493 8.027038384692174
Pd 4.625219341129878 6.159629259785823 4.0341536507596505
Pd 5.964901338637693 9.592271792342846 9.55976863958225
Pd 6.7644548890375376 2.6474277196195857 8.09471952028367
Pd 4.746702994698513 3.8650961128341845 5.2855633134225215
Pd 4.183122332786783 6.121274491496525 6.734302209952603
Pd 4.3096559153787535 3.7653932861584507 8.037595794223721
Pd 3.8702460944713013 8.421535336442691 8.156961449929073
Pd 5.983955687471519 7.2314892953497445 10.742582087224143
Pd 3.974255435463497 6.059787243296197 9.381502055799052
Pd 6.356171614691258 4.913967949445966 9.438823015958375
