34
Energy = -143.10636461 eV
Pd 8.83965773503447 9.82432151646588 8.880201961425762
Pd 8.235785323279654 6.331934181798948 3.621906332195511
Pd 4.949394817020372 6.500364991796044 7.980417171266911
Pd 9.048424680314145 7.33805648429558 6.74014080810538
Pd 5.501463454895678 9.077106772265353 5.554621639349594
Pd 7.7475535739854084 4.2844987539898 5.313386386493852
Pd 5.009424907352988 11.35932974231271 6.836114995465265
Pd 7.5216813415884 10.524947980861368 6.716529905904621
Pd 11.808605625388815 7.343536166038392 6.294429711970184
Pd 10.389834392223822 7.866781973225366 4.143372366375679
Pd 5.996595584125549 7.781749003077173 3.2886557295280014
Pd 8.828788245930546 7.185186148791321 9.593421238014326
Pd 5.790241912579985 5.104033884424814 3.6990487856965175
Pd 10.980600945316453 8.325381061881178 8.601389203038309
Pd 2.5738359742125216 7.082136487960389 6.987055697394877
Pd 9.564772013367339 3.547125273802202 7.043693460500195
Pd 7.021528638453989 2.7094174233583943 7.313799592347214
Pd 4.163279143631366 6.820520341873402 4.978171559649701
Pd 5.1602742464651765 4.39394345139335 6.273077961676877
Pd 6.910337591223846 8.226902136530654 8.044602819026572
Pd 7.69783621325485 5.256505172563613 7.992878212978936
Pd 5.0707061869865395 8.251256878808311 10.14758603883207
Pd 10.190247096669879 5.462256715260127 5.285943103793296
Pd 10.543405001734413 5.70279494023094 8.156879060603519
Pd 2.6305219374222957 4.776121197671026 5.498475317348239
Pd 8.046102208665289 8.859455128752987 4.726689715391292
Pd 3.9500210784795424 5.744062539832985 10.341586425113686
Pd 6.573496247467998 6.091464961785521 10.252249861279834
Pd 6.670921702824189 6.703326947435764 5.826821624665276
Pd 10.086676613785759 9.679040059966837 6.300279022886019
Pd 6.174877016951295 10.524730182160782 9.11111552107587
Pd 4.155953578578746 9.057143029997421 7.797015107292748
Pd 3.038811195037306 4.650661260175627 8.076277933329512
Pd 5.458754560141017 3.956763975479746 8.994294676309169
