33
Energy = -138.4212846 eV
Pd 9.982634801459174 6.030325925990443 8.01891298837698
Pd 9.603839440930335 3.725415587382957 6.625602774839556
Pd 9.032107703022204 7.6576558082616435 6.218878287343709
Pd 9.06860735708223 3.93920136973383 9.33171543461486
Pd 10.6921099523338 5.75190429992267 5.417563011428624
Pd 9.890384421848593 7.436822132905977 3.588232015132105
Pd 9.524739453609886 9.888500911434779 4.738815926288896
Pd 7.694775557655781 6.32724984475766 9.50278808069525
Pd 9.079786821429657 8.465834931525825 8.756229270220935
Pd 7.681596861483788 2.2543019998163176 7.815010656574122
Pd 7.450067300427953 5.138251871650244 7.1969467648839425
Pd 7.239955234120878 3.135087333861766 5.365476707730063
Pd 6.978435731707996 10.920302090789189 4.586522897544791
Pd 7.489607727684911 8.409018907108361 3.9746981920089017
Pd 7.895244191279088 9.907874103698113 6.846410740170495
Pd 8.105915496881899 5.6491076884598606 4.571948429687845
Pd 6.4515414187870075 3.956264101782449 9.580344970495993
Pd 6.291553008459212 7.455553589629281 6.202592394327289
Pd 5.178552646548651 6.009815224941627 8.305355334380094
Pd 6.4017051107366 8.492229870045641 8.618361030198388
Pd 6.464563824545747 4.152088381649125 3.0667649697548502
Pd 5.2312831263531585 3.243118296861513 7.264588494345891
Pd 3.8646753429551226 8.254485920392476 7.847267154827231
Pd 4.922406460124212 9.149927344534344 4.0374271534675366
Pd 5.30591363070225 9.982319313575317 6.512050424962489
Pd 2.5750373652696394 6.316118092099997 9.143325381757345
Pd 5.306844724015459 4.967512558802541 5.342582299754119
Pd 5.687298668540895 6.656114251187048 3.413518719201793
Pd 3.810707801169896 3.9671520214639555 9.387044443727266
Pd 3.766916552256172 7.072334013317049 5.284610019708884
Pd 2.7963519399093633 9.512445175253621 5.733017759050486
Pd 3.13761302146948 4.984882686491744 6.930245583240091
Pd 1.6164181409998788 7.286342276266865 6.825282586119777
