33
Energy = -137.28197667 eV
Pd 5.273195632536699 9.01775575050919 9.261365618994082
Pd 9.113265001638998 3.4705631291735277 4.394580791527468
Pd 7.578191656905066 9.272694128164703 10.586977405912883
Pd 6.302733876248249 6.713106804566492 10.342096444060454
Pd 10.102651963133741 7.218190398215861 7.731486813610718
Pd 7.855883130156364 7.2649151494392425 12.354581779695938
Pd 3.7126079054454864 7.139416310704684 10.259240024027347
Pd 7.435543420827021 5.320045107134467 3.7198208025581327
Pd 5.957985652681574 7.529555844125953 3.2423213399068027
Pd 7.8224987728377915 5.242082083175443 8.367231377385433
Pd 5.492747980313927 9.245816374455302 6.612062731601942
Pd 8.566847159550317 3.179225194973348 6.942138461655932
Pd 8.014310813262927 6.790980417068187 1.6561998464179193
Pd 5.270215721935976 6.266092235962265 7.934620053799233
Pd 9.113123520587731 5.635033016565851 5.968862734794551
Pd 10.002876680617154 5.867975975234005 3.367647081638587
Pd 2.684519739957472 5.5221798306779695 8.492429173400248
Pd 9.317432705136907 7.235879603231345 10.177403773333944
Pd 3.3277638680855675 8.055198687941342 7.7256850327598885
Pd 8.745851269745154 9.260927265873075 6.296049007872057
Pd 4.254842096752394 7.241151208641791 5.309018525311945
Pd 6.813178420493341 9.762176714490042 4.477317495713924
Pd 9.719416669428657 9.546172911988286 8.842359896763345
Pd 6.8655410060949125 7.1291541044308335 5.7764961318269945
Pd 7.523734943139543 7.844221394150376 8.207918800891319
Pd 10.771020551611567 7.716343574911205 5.2901641076639345
Pd 8.615215520439612 8.008036429240242 3.8822495942568187
Pd 1.8711440291744268 6.468698166639464 6.177256389681027
Pd 6.478029359473338 4.486761270463249 6.062600321661418
Pd 3.8521094698056393 4.714674055768486 6.2785746059661385
Pd 8.23489946789908 5.025844090224195 10.95026523562255
Pd 4.84861422877576 5.101181773257905 3.892954019637029
Pd 7.2454047639783825 10.49134799727318 8.203421578721894
