38
Energy = -160.88711937 eV
Pd 8.279275958169148 9.971004292889145 6.144565181766474
Pd 4.920171896872166 9.634938215057002 3.081010610709506
Pd 7.490946232447191 9.245033581155784 3.5978970585879892
Pd 9.854129276894918 8.509224491598133 4.6504767936605935
Pd 5.744577708104178 10.417500839985046 5.479777061098424
Pd 7.95274079750562 8.392879507803968 8.350778936357345
Pd 5.716196554617177 7.145023280648788 3.2765537243335037
Pd 3.9161026708130406 8.439776966786786 5.214953428424764
Pd 3.1261369218563364 7.509651715292584 2.8454575256038988
Pd 10.34044676773446 8.898756430275311 7.297493993968259
Pd 8.299249686323858 6.619437104913761 3.640235856241362
Pd 5.052132233909791 8.752586062037341 7.583763429703333
Pd 6.726490016535961 7.826012135797945 5.721614258073833
Pd 10.640744773394307 5.949826800629161 4.679077617870411
Pd 5.997678735085444 9.028516888995757 10.047925102789097
Pd 9.050699512269102 6.737840047824449 6.54142592868041
Pd 2.1658312833701974 6.322467146362938 4.960577970161802
Pd 6.64440331251074 10.781255069149482 8.005016732107723
Pd 6.579983745198867 4.722291961933064 2.82270547355231
Pd 3.976175809357446 5.028469014289053 3.410247723911339
Pd 7.231868618945254 4.936110700552064 5.380040446816376
Pd 9.658777265120541 2.0089012100798653 7.339200336286415
Pd 2.996640507942887 7.170193699424493 7.392109513858
Pd 5.367478308027319 3.0752489724523056 4.55416721827436
Pd 8.678779817076444 4.4567902474805745 7.683694857390141
Pd 4.795312264570506 5.908480786062418 5.78708563362045
Pd 6.489952585837206 6.08614063543962 7.824746419896653
Pd 7.21417754001701 6.7247843160341105 10.266349577805098
Pd 3.1498205025659995 3.833782629360614 5.817405283574439
Pd 1.283423742898865 5.181777649065056 7.113405004490701
Pd 7.428652392627081 2.1875678474685456 5.9463286006933895
Pd 9.558386334688882 3.733341505256453 5.341259222963708
Pd 4.565050217045313 6.837913532467846 9.50079220036897
Pd 5.5270099178401235 3.54472143842269 7.151775059321411
Pd 8.35591775687274 4.416051107945748 10.220641161655168
Pd 3.5270389299559506 4.685003685148534 8.383547697113205
Pd 7.391615187205533 2.412441535827432 8.706343614750521
Pd 5.770908508276939 4.333181238569938 9.704478034002497
