31
Energy = -129.74574174 eV
Pd 9.019979845923197 4.929468781013241 10.36157363638068
Pd 6.6123114836119345 5.93255276889446 10.395013975177426
Pd 8.664510757668204 7.442815830495797 9.564943333472067
Pd 7.164000711756987 3.935770760053236 8.618462480465165
Pd 9.394462727383614 5.42150470531126 7.819457343079521
Pd 9.070037989764167 7.997350851668127 7.013107901702658
Pd 4.710589790022157 5.072913251116893 8.66133846296146
Pd 4.946412296634158 7.686703752695638 9.391160418359876
Pd 6.890689286395641 6.4394428603372935 7.7444842133288825
Pd 5.356113557331902 3.239896732761929 6.7418952346014605
Pd 6.957221714782776 9.067521533702347 8.26187217806916
Pd 7.84753921628549 4.212786023941346 6.072858979631981
Pd 2.9815283731857356 4.5899749788471125 6.6903934764531074
Pd 2.846947429157696 6.912614760014972 8.028433701815521
Pd 10.039145496131189 6.055159910803359 5.308731667554098
Pd 9.5250508322041 8.727980059031673 4.576862872005291
Pd 6.999396587878463 9.250685465110651 5.571470400280151
Pd 7.530509215839597 6.736256620784097 5.0513196089914185
Pd 8.581135640378386 4.465380832537534 3.5830441592161133
Pd 5.194783983924373 5.723308653013877 5.793919015035754
Pd 1.6484622247265925 4.912504601074146 4.381410654965921
Pd 6.079867191726745 3.842423637581965 4.122299773501414
Pd 4.8378806473144635 8.204013015150325 6.7732995119792
Pd 0.8103141387498723 6.131383066760456 6.615231692589938
Pd 9.239812926695064 6.849845796358912 2.728675591690104
Pd 3.616383364080262 3.1135932345946276 4.585306824744968
Pd 7.354103038096233 8.712093826973216 2.984263451414363
Pd 6.568608921270781 6.0990222915842205 2.6661402359344564
Pd 5.098423249875255 7.880898725178951 4.114860791957524
Pd 2.8469836314993016 7.144764003681411 5.26510896319109
Pd 4.0417382882345425 5.497324921717044 3.366756382923104
