37
Energy = -156.85562053 eV
Pd 5.895519162230817 3.8292621589573326 9.831189872120977
Pd 3.269460468924896 3.876682844291887 10.004720596079201
Pd 7.236151400603211 6.173673109693756 9.618504624525642
Pd 4.513595366139418 6.2068547318706795 9.681815145943416
Pd 8.04742710836512 3.9362578432178537 8.285658253985398
Pd 8.491412543493393 8.525457935686719 9.204236284139498
Pd 8.681387476168062 2.910059706729313 4.793362079735184
Pd 5.781882441328643 8.494372656716848 9.293521319763265
Pd 4.39601691831751 2.7828873252885384 7.877813713718534
Pd 9.401126867722214 6.253828853561157 8.02946166798419
Pd 7.147732580195633 10.76816961496869 8.924654931744724
Pd 10.181463252055458 4.001141115722189 6.690110913042907
Pd 5.70828738076291 5.174695725973376 7.5090748046091935
Pd 10.58863783913844 8.594986531548999 7.5974263255334655
Pd 3.0203077915386873 5.082295887727853 7.634352953259904
Pd 6.55897155365817 2.8586287283683114 6.344533196675485
Pd 11.471756972108237 6.369788810068214 6.354757430373902
Pd 7.096887616303776 7.531558769048168 7.140455759073378
Pd 4.228750346675705 4.004194645873064 5.440414128588226
Pd 7.936646193394037 5.261555857432709 5.877783715136324
Pd 4.160699249453849 7.520937846549432 7.352640011535095
Pd 10.123373020926474 5.343835510025524 4.318388694305257
Pd 9.310772329315695 7.6794675776648 5.444241983502116
Pd 8.391984124833218 9.864923363790659 6.751027067834204
Pd 6.415364612668524 4.122433981117233 3.882578785972168
Pd 2.867443876820885 6.352482184843302 5.312898062563827
Pd 8.647469444497135 4.185540641080939 2.4850417349216523
Pd 5.736668840289365 9.874817908964667 6.87674980275676
Pd 5.585981229535892 6.4381029924736906 5.117362559345488
Pd 3.11197123016292 9.86413100138113 6.969682648239002
Pd 4.183448228776081 5.340846213117951 3.0998673758858972
Pd 7.847557830469144 6.561707535129002 3.4561423016152326
Pd 7.0224637287441904 8.82122706159108 4.650018459501911
Pd 4.325837541287724 8.85062650501339 4.852844666962586
Pd 1.6867956300166136 8.667443419485695 5.133470878219812
Pd 2.860934659701311 7.637636624478875 2.917463740468523
Pd 5.5177400245477735 7.659494307662373 2.747067751979501
