32
Energy = -134.03137867 eV
Pd 2.693384012624333 5.899658443712476 8.146605545022773
Pd 4.5399678045265945 2.6863950736545688 4.81396573957376
Pd 2.846380346518057 4.7488413578260396 4.481742178142461
Pd 3.0739310105393267 3.6400189725922334 6.90897607409191
Pd 2.796207215164253 8.584104231254628 8.111814919286754
Pd 2.9066444268141454 6.953488114555857 5.785979950689137
Pd 4.243534637007004 7.1268341695440105 9.971981803653462
Pd 7.117762812981638 3.188985067438011 5.15996427352622
Pd 5.118903215116053 5.076589756063846 6.079717546888892
Pd 5.300697758910658 4.890454580669183 3.4547170465831973
Pd 5.587365812607167 2.6379455668423 7.325566418149603
Pd 6.7908362752312765 6.794873267188625 9.44753210677165
Pd 3.8379074859230933 9.423484324999587 5.799317213920501
Pd 5.097697646737542 7.3250804016378845 7.356241658676997
Pd 5.0810247849941526 4.849677863660461 8.745957611338223
Pd 5.2710273604340525 9.41051217677626 8.901188578438715
Pd 7.474646366541247 4.579840400947387 7.54467770410777
Pd 7.791743477463139 7.381392560250176 7.0499695313656705
Pd 6.330494083418228 9.567605737656455 6.422709085167185
Pd 5.2504863403005215 7.461843039164711 4.5945434566051535
Pd 7.456994562685756 5.797634272838171 5.052924993401997
Pd 6.899214520319984 6.8424463945019305 2.5211088698526303
Pd 9.603656137468855 4.020045787000959 4.737221066049265
Pd 9.136391346232765 5.776866031567946 9.26779139158494
Pd 7.805642925356089 4.292509885818057 2.763703017527841
Pd 7.862207548817876 9.2019103911614 8.943883928880402
Pd 9.817627055279111 5.581976255128562 6.743152669704998
Pd 8.919841363206249 9.90708625414738 6.5405054855403995
Pd 7.786988967166679 8.433567632095526 4.498309204873065
Pd 9.435507411887995 6.381622957709823 3.4355097573487137
Pd 10.147143457309971 7.98548595090117 8.15906281497173
Pd 10.223067319021277 7.813978308824321 5.478083238861003
