30
Energy = -124.70932602 eV
Pd 9.346113037276215 3.3937966246631595 4.433034714629189
Pd 6.3931341033167755 6.7374154038823635 5.424865389971241
Pd 5.626822031713006 6.719296788877491 2.6314331435980307
Pd 5.678677133159997 4.23073065988837 1.7532622132964297
Pd 6.666689061893095 9.48579378465336 6.135099788661969
Pd 7.264386638279236 5.363976373756066 7.768449721655825
Pd 6.168031744804512 7.701110451706397 8.155895307570342
Pd 5.621863931188616 1.329385813211459 4.705226404702007
Pd 5.143714313831673 1.6500075079306793 2.05633818846319
Pd 5.262559441025629 4.390622264668893 4.390660308363708
Pd 4.973883415055458 10.010678799371222 8.238906046743162
Pd 3.3244246202994567 5.043767704008573 2.609478300331408
Pd 7.268316581848048 2.6132017032828476 3.192411071500914
Pd 3.697021503664615 6.7815875260938485 4.508646815236867
Pd 7.683040870981993 5.272556288862538 3.3967824187414406
Pd 5.182465979674422 8.955276145975299 3.955581868622653
Pd 3.3928308651224444 2.6098398833088527 3.7098208057159434
Pd 4.640894463463749 5.621914900463828 6.884796741209594
Pd 7.774507826423211 8.160827138281556 3.8552637325220713
Pd 8.883175780719101 5.576351920875879 5.682783127245878
Pd 4.193694882110692 2.769703114269026 6.279625668569419
Pd 7.104730977680037 3.328510229282739 5.945715271762055
Pd 2.483704020982832 4.550138905720528 5.320513229302249
Pd 2.1624588040576707 6.664522012899632 6.82397287912868
Pd 8.513604620896574 7.764549179001172 6.936752059659819
Pd 4.162168152089377 8.454353965172782 6.350224742839372
Pd 5.16049118416199 5.629608300438363 9.540848103535797
Pd 5.653721822382409 3.3449087396880213 8.312217698183359
Pd 2.996690804369775 4.188273139775976 8.21011992372055
Pd 3.605740741488713 7.6868540839511885 8.820833668477796
