39
Energy = -165.83088602 eV
Pd 3.870473941373008 11.036868106344132 6.94324798598741
Pd 8.074105993398229 10.128622897830926 5.7704035012479205
Pd 6.854862203966892 10.413952580344745 3.440235070286722
Pd 6.117379640706976 9.856602315561648 7.5472520634615
Pd 5.046607992130972 9.494062207313151 5.091624570385507
Pd 10.028332372411333 8.27833202913594 5.762524779699579
Pd 3.7625582071788815 9.09352580608088 8.751690648003477
Pd 8.296437660061528 8.4779847596742 7.8927789545928215
Pd 8.599131532590917 8.479078621878251 3.458455720078038
Pd 2.6564753281410955 8.858925625357655 6.197959068451346
Pd 7.068321456374898 7.7238855735523115 5.555727500488086
Pd 6.131887738783172 7.940477050610337 9.410943831317754
Pd 5.961179049826908 7.935149655299395 3.10735724711977
Pd 4.815771213606382 7.383341117741331 7.0160716758449455
Pd 11.644666376586315 6.125924395789113 5.768488955765601
Pd 10.359913854477096 6.8445320075084854 8.01371474233993
Pd 1.3471711140817437 6.7347381244341324 5.453455006773583
Pd 8.44517694938344 6.676939861821113 9.885345262058115
Pd 10.23741168177828 6.491746439251339 3.5736407034727535
Pd 10.694912474479331 5.3018789350355 10.200712780121917
Pd 3.8135583349423627 7.084301064075755 4.446498283137395
Pd 7.05777384826611 5.940761766172429 7.742487514847488
Pd 3.8254769595749645 6.798986739479576 10.130576728049926
Pd 11.71239890648276 4.550304710743434 7.859232836552128
Pd 2.3903634111693557 6.691431088814838 7.899131950859414
Pd 8.990721962053142 5.800541292327261 5.869009885741292
Pd 6.065096095718232 5.41922797995864 10.419729180947131
Pd 7.694945253727548 5.769161314664696 3.5072165303213114
Pd 5.797682087932263 5.383944312409074 5.441236784170053
Pd 8.301455731950512 4.117598063280711 10.666212205519539
Pd 5.117635477569215 5.444938847689691 2.8050907233211198
Pd 9.169739703335216 4.274831182124283 8.169563335603598
Pd 4.4827741129887295 4.965207991070297 8.315502942398306
Pd 3.1665097526129093 4.959932327624153 5.99975097573245
Pd 6.643863589226183 3.387409254183764 8.619006346358727
Pd 7.671751404972691 3.536059451138514 6.154653117734504
Pd 6.491864122618968 3.349420477172522 3.8530480678867147
Pd 5.028175579043254 3.045869122218783 6.47223758453978
Pd 3.8185367902014407 3.461356749857002 4.019273303775601
