32
Energy = -133.06757275 eV
Pd 9.66396098883396 6.897699340057469 9.834009871117702
Pd 7.643842522801816 3.0115111289751546 8.774688310891351
Pd 9.426774600070404 4.926603780091095 8.075666475822246
Pd 7.448734724312668 5.429491266017981 9.691447763385888
Pd 7.319647713591849 7.432453156747978 11.328336656421113
Pd 9.451540458649305 7.455394619059065 7.162384867291967
Pd 6.874256055523846 3.7632335187523887 6.4541381820672195
Pd 8.428898225056123 3.474258730419775 3.8702195828356567
Pd 9.209428715702176 5.397289955127354 5.5110643281619955
Pd 7.784585993899892 8.530811562901535 8.964704428184719
Pd 8.943081897836349 6.063334734052159 2.945609517805499
Pd 9.300335384218481 2.8723835275108796 6.428703212023386
Pd 5.169779349473539 4.640932268404832 8.47220315958018
Pd 5.4549846104092525 7.42809419577451 9.484862134431816
Pd 8.13124799570745 9.718171325677911 6.603027946597794
Pd 6.928264416860698 6.390820640504635 7.1910283181279855
Pd 5.56173277726806 9.701791834088167 2.275581704989284
Pd 5.272222335613543 5.379388757026022 11.116608773964526
Pd 8.101414335820923 7.79161243421354 4.8626820953851215
Pd 5.729054280776943 9.04190456794904 7.4027011815370924
Pd 4.499943805058459 4.757027813818961 5.821321534456249
Pd 6.851104043558859 4.785786144336162 1.9213490335784462
Pd 6.07181451237374 9.706540360159108 4.806040175598075
Pd 3.863143818649352 6.7331834106624955 7.370325964338681
Pd 3.1034067401032996 6.292615933984571 9.821913454775094
Pd 4.4800918963688074 5.78757924868529 3.153145640192298
Pd 3.360353690883031 8.891118935598875 8.703907671789384
Pd 6.597118696492397 7.390486534727219 2.6507785625249816
Pd 6.731169344359534 5.345592843865405 4.466649191960632
Pd 5.273985037016823 7.304529980032348 5.246798924187642
Pd 3.484123954101252 9.124778702965077 6.0163580968862
Pd 3.7054763436053304 8.399098012810736 3.4372625040872316
