33
Energy = -139.05421028 eV
Pd 2.5308917815022367 5.340947961450601 5.616960861279285
Pd 3.2536077915464845 3.0650782840383712 4.554611616275505
Pd 2.960097820865129 5.153111539109188 2.8058115514176905
Pd 2.9914448420458855 3.3070882651624394 7.23457176534701
Pd 1.8038144184516598 7.364309467489881 4.0511981039312825
Pd 3.231808765809943 5.844099873381444 8.328383928865321
Pd 3.592337370441033 7.85698399448711 2.1608183163472257
Pd 2.415680209934101 7.775479450618373 6.573416058521373
Pd 5.046830431951109 3.8151436981713687 8.751601699883661
Pd 5.306325195975823 5.885134917660313 1.6727704420178082
Pd 5.096105263032684 5.241350136865406 6.531172016829407
Pd 5.468508332121231 4.217871287016658 3.7676757606475357
Pd 5.437485356372383 2.7184112347801475 6.115324678869365
Pd 4.523771923724571 6.593144446356289 4.373895723738171
Pd 5.648586361587019 6.569864960941357 9.23618626797774
Pd 4.009584780880729 9.070809180665812 4.736657837942071
Pd 7.4864812939080405 2.9044852596740363 7.917146341985054
Pd 6.98366433273229 4.471776489546301 10.305647405405862
Pd 4.9168859386215 7.8817858345706755 7.014235521696942
Pd 7.619214497962319 4.029369973494081 5.2577041868961265
Pd 6.093651150740944 8.16482434581808 2.942627872120598
Pd 6.998711876782661 6.791375405656105 5.367178837173163
Pd 6.70992565314743 9.365287923125692 5.332758459873536
Pd 7.4678469799487806 5.428775431131224 7.625849654135746
Pd 7.533943736619456 5.721617514582433 3.0715342027391688
Pd 8.633153484777178 8.157227561228938 3.4822036993623673
Pd 7.402624698875071 8.079397687361224 7.744104537069486
Pd 8.264149329542246 6.78609573753128 9.957647209384385
Pd 9.447441774604384 4.451647920310477 9.318007767744525
Pd 9.755191329134961 4.018239088576297 6.741953766366462
Pd 9.277994808056738 8.568295759573875 5.988550023940109
Pd 9.479099709776207 6.029010048509024 4.995103345299841
Pd 9.828110395237223 6.580172911055929 7.705695288528759
