37
Energy = -156.37792697 eV
Pd 9.041455821826569 2.107245158023067 5.80785196046023
Pd 8.449716667944768 5.446313370915254 2.0168867237352055
Pd 7.813598802001626 3.740695227828417 3.9407017478362087
Pd 6.855569301100921 3.3120477558913985 6.421414587087832
Pd 5.9131985902443045 5.329999078847817 2.698728605566736
Pd 9.205462868776996 4.67658574426978 6.13284825490653
Pd 8.579747908602036 3.3173520061564012 8.44247702695449
Pd 5.024354931154582 3.828787074411255 4.619631045577019
Pd 9.21413751250258 6.699455524644586 4.2192357524811035
Pd 4.473955264205487 2.231078357471871 6.657809516300366
Pd 7.170280662032614 7.689097009183523 2.674733201162963
Pd 3.320996876771082 5.5841411168469 3.584803008821465
Pd 3.204437032815759 3.453814075799812 8.561244181192388
Pd 4.558860072300625 7.549703242359582 1.9246349206293054
Pd 2.6672984277724576 4.183290250138325 5.916589217897359
Pd 6.964147638523712 5.846651757090596 5.284311933061343
Pd 11.168437399029028 6.39367705755426 6.166144777373184
Pd 5.010914551527289 7.373930783961353 4.4639952167434425
Pd 7.612474096718085 8.78814609532908 5.024617310356294
Pd 5.859211766391835 3.3204223409363425 8.857322892102935
Pd 10.011943069034336 5.624414042213548 8.547133853096362
Pd 4.886970313713832 5.206138739309704 6.970693005246004
Pd 2.1271327659196557 5.812966347286902 8.25132349406243
Pd 7.211887713762351 5.6237748002864665 8.375353789163997
Pd 8.844515441350307 7.313278515957769 6.822343263052489
Pd 2.9936863540357503 6.850099781728278 5.978251320603922
Pd 5.539070711175034 9.721380772954301 3.5248019761166143
Pd 6.223913835725024 10.853929665910602 5.867929387049612
Pd 6.059858612398452 7.773421164177077 6.974158428248424
Pd 4.552206901199494 5.617462114452987 9.523596282611877
Pd 8.665301321693729 7.794996609497265 9.409846350482674
Pd 3.6716128331771314 7.9355959009139845 8.31553172958009
Pd 4.056596814092143 9.346283412651136 6.001335344274306
Pd 7.92989996161815 9.688144300712661 7.566679147973032
Pd 6.0334425360034984 7.725595665407866 9.664661459155779
Pd 5.320421602978502 10.03291087049968 8.309885032733316
Pd 7.32089667844791 9.954907608887881 10.125571256822234
