38
Energy = -162.17007392 eV
Pd 7.84254295374424 6.811397453720775 2.3484396821982596
Pd 9.447815739458191 8.64840173873678 3.640615646646575
Pd 5.555386234887944 5.812407261990308 3.202239367848024
Pd 7.416363691908385 9.604737480428927 2.3381572367231134
Pd 9.47112864908886 6.125534769892009 4.387003567505538
Pd 5.3043303149407866 8.06423179054432 1.9221838970361655
Pd 5.001387918060886 3.9682473165144536 4.941180782489944
Pd 7.534906497812001 3.988690870501246 3.4321864739307393
Pd 3.0588149268519587 5.379974733772637 3.737595761463979
Pd 6.730030708873843 7.853823141826387 4.4721500823730524
Pd 9.419477782841012 5.784653408611529 7.132419571229971
Pd 8.93475465465757 8.241635916547992 6.1375448804475745
Pd 5.189857249870324 10.15557260213353 3.6482408733378864
Pd 9.385468918298898 3.697979879994639 5.483014909569991
Pd 7.599532010525248 10.318386243911 5.049428180504651
Pd 7.2497861717375764 5.453792744179317 5.517747385299548
Pd 7.036504208290614 2.4944105895388766 5.794346346433246
Pd 2.4397803645396086 3.410681444151634 5.4828259743757615
Pd 3.8807088147840574 7.8854531300151445 4.16061498607627
Pd 4.72356121249547 6.470063379671142 6.239607984076462
Pd 8.623544743884347 3.3887566456722036 8.030042499962576
Pd 4.480117224482655 2.162908499254127 6.82555673689214
Pd 6.225175466805414 4.307145198611282 7.602698006817279
Pd 2.090474735277281 6.054903267834674 6.0611920776086565
Pd 9.283600639379038 7.925545422285195 8.746840349720403
Pd 6.936333332616953 7.082702922935744 7.545797980318726
Pd 5.35020794086462 9.345853687964699 6.120591092872747
Pd 3.522455481609956 4.5042754198524975 7.627662938746638
Pd 2.910359213124928 8.520235674391103 6.617122760876593
Pd 6.601738279273101 1.58484999150676 8.32557124148216
Pd 8.078272890509103 5.681678786937386 9.534909068168888
Pd 7.335288952135804 9.68657953219153 7.837274210143587
Pd 2.761057413715323 6.780376451286157 8.618084926219908
Pd 7.088977110177505 3.4353619452637747 10.219708593728306
Pd 4.617222564396636 3.0860066618482733 9.479159443788028
Pd 5.217862501138707 5.847852961418332 9.463862277315933
Pd 4.833018572992563 8.419906131707009 8.536080713911035
Pd 6.943746198293334 8.031782597292427 10.109147638222499
