33
Energy = -138.4088453 eV
Pd 7.783065500417015 8.775953516379362 9.149959063525777
Pd 8.019722248910353 9.920069263324551 6.695923237480843
Pd 6.881165384938451 4.308283656404539 9.950220909226996
Pd 3.0047765402250106 9.712033309568408 7.5953750563355795
Pd 4.030031009241219 8.350050030320865 5.463896114596172
Pd 7.970743375572061 2.8584623881512248 7.997517906889466
Pd 3.3593142680660066 2.751943420559089 7.307945409548055
Pd 9.951369404012768 5.906405729059875 5.125919855132973
Pd 6.393785323373947 9.230640898985039 4.634774018153614
Pd 5.54310031519262 2.264041482577981 8.865376623378795
Pd 5.399143579259722 10.474319066460584 6.73115941113481
Pd 8.218785723472 3.7718586569132233 5.555164816671155
Pd 7.080842129699678 5.367541180467028 7.425729841731567
Pd 6.067120058214035 4.387829211101637 3.9354875723747655
Pd 9.639543381387655 6.864850586192964 2.631014568149471
Pd 6.881108828373074 5.801835315886302 1.7737752580116175
Pd 8.952308389557444 7.398108350829462 7.149292042698626
Pd 8.651290041445286 6.264543525062863 9.580026915328364
Pd 9.740121646604756 4.822225751614322 7.562793950845171
Pd 8.681619449492436 4.493401726997254 3.128212625087981
Pd 9.084004843586518 8.496864398924911 4.689890605667417
Pd 7.402869184567007 6.477209224096059 4.80628886273834
Pd 5.713045442562798 3.289523379992065 6.331614686298994
Pd 7.423292991811636 8.235212235276117 2.5088830867738596
Pd 4.685208627368822 5.7437640109830435 5.854819695692198
Pd 5.179918775017106 6.9981298595111365 3.50310690946583
Pd 6.0093660954702495 6.808795142843135 9.58698686461518
Pd 4.647404718008067 4.7494657582857895 8.54206535316201
Pd 6.21970424339532 7.902430538185933 6.999574290263844
Pd 5.166047829625835 9.3062856715959 9.123165992695167
Pd 2.4697040431402093 5.181988160820284 7.092780394483532
Pd 3.7991343720302453 7.238637009227111 8.122049071671766
Pd 1.748793681571491 7.588766981746358 6.419055272330692
