36
Energy = -152.73134541 eV
Pd 2.913531563779811 7.343828823498646 5.039409713231684
Pd 3.2791206048209607 4.80177372889032 5.747914918979951
Pd 2.8323218290279883 9.948321192821645 4.525843328711163
Pd 4.407623108656306 2.365637357430708 6.321998136493411
Pd 4.7455938414802326 8.545714162457868 3.3106877936583268
Pd 4.731455186676866 5.921604211107299 3.626805381612215
Pd 4.577163557050591 3.340202773633059 3.7562451289608423
Pd 3.5447298028524163 6.699547461180125 7.622791244864177
Pd 4.594954358069558 0.8077800649874686 4.267363132351026
Pd 4.451351542495262 4.220572298889614 8.140513543567534
Pd 3.3209688522332157 9.272863551281809 6.990681188381238
Pd 5.457772762641082 7.569573670088011 5.752259332329901
Pd 5.918484382452348 4.744974136690562 5.832865301570666
Pd 4.4198045344453 6.0146832700645545 10.099580774877394
Pd 5.321992802404245 10.204055082784892 5.399291053254703
Pd 6.850678234901046 2.9240762380938854 7.51888639527158
Pd 7.084990353792301 7.185186639385091 3.5151968388273436
Pd 3.857469802022596 8.588536582986396 9.49237529508002
Pd 6.214278203264169 6.3386705829690095 8.038875085356592
Pd 7.090512619186142 9.85400845294558 3.425361524110795
Pd 8.386828247970783 6.259114428917018 10.318936024471606
Pd 8.0011044072379 6.487965322417988 5.979712885204977
Pd 6.729747394246799 2.122750315961045 4.926677583827547
Pd 5.889973858755342 9.206992846617418 7.867358450036826
Pd 8.28468720055183 8.07803668140209 8.298735411004385
Pd 6.567774932882256 4.3752507130089136 9.779271947633221
Pd 7.02574252788539 4.482194115730156 3.434691462596111
Pd 6.3321021890120575 7.877672275109185 10.170699885341461
Pd 9.393330205507864 8.433212016765506 3.8695147755906594
Pd 8.584618862885586 3.814440777935689 5.6020020228067215
Pd 10.14528636865647 8.002352506409526 6.342036285161339
Pd 8.613251287387472 4.898548777392031 8.058542970604048
Pd 9.379671594832066 5.747497202777267 3.891272848880993
Pd 7.748170082393489 9.209437359662818 5.907977616497427
Pd 10.5967016138294 5.403216562271732 6.275365565986731
Pd 10.527965719141049 6.693140065695 8.617300442224167
