30
Energy = -125.16600764 eV
Pd 9.632127984938819 4.447106141061538 6.8582479697667855
Pd 7.168443526567799 4.377194576849742 7.7326508790311115
Pd 6.040057712431793 4.62385020828583 10.086312729592342
Pd 7.81199486559287 2.7535034430942726 5.7296524802160205
Pd 4.283711156288686 4.316072023789268 8.07194874345408
Pd 9.21022002064754 7.160771991773457 7.111251567374474
Pd 7.945747908020435 6.488248974173219 9.237995887533378
Pd 3.6615004119711343 5.86413610165356 10.205242263812536
Pd 5.923338991646995 7.191382937624755 10.863935591833496
Pd 9.574823781985062 3.8857899786002483 4.156452373913177
Pd 7.74330512292596 5.776111334127326 5.439309775682178
Pd 6.987401813370996 4.160989585183734 3.554067236234766
Pd 5.55728851344389 6.592269637825812 8.125069644926135
Pd 5.426341509378571 3.878223275557079 5.753075801790797
Pd 9.109576305641493 8.321150165515052 4.642177350453257
Pd 3.933833840941492 8.486117934102865 9.639618673340262
Pd 10.581873549244694 6.181310112953163 5.0142336314609866
Pd 5.140793184859835 6.545533520130464 5.4848310403073715
Pd 2.9486910245098543 6.777189319918979 7.792618031123212
Pd 6.7737206745873175 7.706365041174879 3.664169404974842
Pd 3.006936469595226 5.041154319417837 5.785918944936378
Pd 6.62123472379018 8.874002462048546 8.87271787721579
Pd 6.239440730793593 5.9497190561433655 1.7837328403571613
Pd 7.021947009975106 8.413623821934312 6.296091429208939
Pd 8.79874291184719 6.184096399290595 2.9253442855824243
Pd 4.514754773681161 8.938122898002172 7.145798508028455
Pd 5.019321287475927 9.395576333095002 4.670305618681054
Pd 2.840519726248394 7.831676692990818 5.304098304515492
Pd 4.240110436332647 7.4547344710646835 2.9778200603096945
Pd 4.437497174617057 4.884593842048675 3.4792474707804275
