30
Energy = -124.31362027 eV
Pd 6.682087823268239 2.6139785826855486 1.9196681121296009
Pd 4.493285744628187 6.906882145423815 1.9303761343699355
Pd 6.32133840891639 5.0876228646115145 1.211586355657105
Pd 6.998355171927793 6.911071564757096 3.0069166242803567
Pd 8.543420381062903 4.768068523772659 2.683232517425276
Pd 2.889886573710013 3.567886211931897 4.945440172891888
Pd 4.844262501855119 2.1512947338996873 3.798175687952145
Pd 4.842973159999245 7.837747567077491 4.349895354020202
Pd 7.378448709918234 8.395681269703426 5.209995343076065
Pd 9.141494294746735 2.193093586866189 2.7924240898026733
Pd 2.6260105903287876 6.279915864916878 3.83470013905745
Pd 8.987121860244606 6.310076163508531 4.939642712020617
Pd 4.87619299419054 4.7060533881193445 3.3693680602003426
Pd 9.802231447175172 3.817105343359031 4.838476602950692
Pd 7.230323078938866 3.2680478507360005 4.398921470437442
Pd 6.518970100906523 5.706350909314973 5.3186171488708975
Pd 5.349288879239905 3.1883371253003814 6.198645015557066
Pd 1.44467111922414 5.526866864013955 6.138077464331052
Pd 4.087984447522098 5.714752870601375 5.9370738371863085
Pd 2.672376644347131 8.042896477808966 5.990800964540935
Pd 8.01871325033627 4.122192628002667 6.817424194851931
Pd 3.1835749820306987 3.8491013006004082 7.671794488793439
Pd 5.378192655433138 7.9106075046193265 6.884641410818257
Pd 7.837560831836491 6.834201406745129 7.440635436626841
Pd 5.793654747102022 5.057168492858433 7.956908588969786
Pd 2.9444977966297525 6.492155448810681 8.213306974895003
Pd 5.849570349101782 7.25076769622304 9.330929432973443
Pd 3.5927009322879697 9.01374981538213 8.366722732749635
Pd 4.1770349283736925 4.990574899805138 9.956047931124075
Pd 3.519495516104493 7.5114708199301985 10.575274922825445
