32
Energy = -128.29964003 eV
Pd 12.294506453667314 5.9780124826920416 7.167337272149911
Pd 11.278947540527513 7.847443666284428 5.82535169064497
Pd 9.799922373114653 5.6796010078423 7.136874125222146
Pd 10.070434149481128 10.075731739867553 5.438492228141733
Pd 8.350586569151469 3.718751123186732 8.067443143408902
Pd 8.92482194422105 8.26983210795867 6.967885283203312
Pd 9.238936216641696 6.7109929799908485 4.717941281096233
Pd 6.55096249418701 1.7720822565721148 8.69260381381893
Pd 8.23677722391436 8.984106976157774 4.108083894831152
Pd 7.302537312151156 6.254400436671839 7.930736475721833
Pd 7.811955565038861 4.729677529710226 5.630921453857739
Pd 6.81984082931389 2.459774066245965 6.208889815035142
Pd 6.8814978925687615 8.833499694465857 8.457492086450184
Pd 6.473254379700376 8.278501226260788 5.913636333060308
Pd 6.412649412086893 8.737311387723269 10.955833813474651
Pd 6.04449927805896 4.236699335267311 9.279531971770622
Pd 7.478395331816243 10.339675305786315 2.098556302005149
Pd 5.440641275513732 6.697771933314005 9.799911843611037
Pd 6.739672971786687 6.5134649484128495 3.9071275700039516
Pd 5.413354229413047 5.762497299834674 6.096916150398708
Pd 5.630907851455874 8.944451710346572 3.3192353860537303
Pd 4.472306279177862 3.3561044939876408 6.0609616068464565
Pd 3.9246170179156428 8.031101414484963 5.074754435873914
Pd 4.065584130165527 2.6206302215060515 8.512287703454048
Pd 5.472881536711237 11.45892570136313 3.1701990343162185
Pd 3.9052149558890528 5.332168754517651 8.182874782355423
Pd 4.496873199826458 7.942049901585212 7.68856935400525
Pd 4.3580081327751 6.687723486397422 2.849966087416837
Pd 3.2550636626403096 5.302790719666703 4.6996534694487035
Pd 2.613324594850825 1.6032414409713642 6.616146746902935
Pd 2.051608844901251 4.124657970892737 6.770440169270043
Pd 2.2716196257314363 6.7985299544302 6.7355479505445315
