33
Energy = -137.25963816 eV
Pd 9.42739484908641 11.61133491063633 10.564485496864314
Pd 10.071915123329871 10.683377506650732 8.15841535963668
Pd 8.94148590743779 5.9492354944683505 7.397920414798078
Pd 8.349564758804899 3.253856822115661 6.661077211655589
Pd 7.05650727335449 6.11191586690895 9.672626861639877
Pd 4.054468602692996 7.887737458052778 6.516776119799112
Pd 7.374553770473615 10.06005948786245 11.154926915472103
Pd 3.348530405395239 8.631231225904274 8.937608242074342
Pd 6.040765330826181 8.404813529964464 12.694112707310511
Pd 10.122729060557788 4.574538345744882 5.284116820877253
Pd 4.619091340042705 6.34975286379367 8.565619488175109
Pd 9.913677322403583 6.425882632846347 9.85434929420816
Pd 7.474865960420086 11.20088499193441 8.815492685796618
Pd 6.644723065846269 7.347236590753139 6.9358649337163305
Pd 6.3426174896456615 11.765736957703295 6.479164263980214
Pd 7.8759246212861775 8.069977546588051 4.5096129639200875
Pd 5.5992566250711775 9.6756459690167 7.899736502142781
Pd 5.492812918747372 7.006764684722616 4.462150876795794
Pd 6.357573026776822 4.689470327726566 7.548742106373913
Pd 8.1224655765731 8.50607654862888 8.882421095230967
Pd 8.61606988214602 4.019483964230352 9.184206829762704
Pd 5.678277907328044 8.322647666205873 10.134931851831793
Pd 5.7683569016783105 9.5245293001475 5.1848582865350235
Pd 10.568953914339952 8.078074128870867 7.883862108201819
Pd 10.105218890941687 8.665437289370306 3.333805458089434
Pd 8.150670215056136 9.805371315432591 6.492521303748883
Pd 10.27967835317747 7.132852025831695 5.4703333367602935
Pd 7.455729516047676 5.368703187207858 5.21445203369573
Pd 8.22599748014427 7.577807773828598 11.585944758566132
Pd 10.138207355232865 9.075769370765434 10.416643135949128
Pd 8.520003137655317 4.98660672207375 11.629962924064138
Pd 9.136798980955952 6.089298797169156 3.2914148459438164
Pd 10.612553685016623 9.70258279018687 5.7273027249201895
