32
Energy = -134.52847486 eV
Pd 6.281212428777831 10.404202784762699 4.765182029690104
Pd 4.631735645564614 10.088814228372431 6.874907257778498
Pd 4.501828170202993 8.457325162211774 4.731859728027106
Pd 6.293603012641546 8.648495415572532 2.6822114985420304
Pd 4.432819005641475 6.8291023006012725 2.5967107887242324
Pd 7.30264460346065 9.715014954902026 7.1065395343249635
Pd 7.348658639050067 7.953560364628228 4.983870256657942
Pd 5.153048433511324 4.2261367008454425 2.711946457557589
Pd 5.673723972292285 7.507825950325592 7.0344734667423925
Pd 3.0362313725833454 7.909825378606327 7.011058758285229
Pd 7.17317428989427 6.098014091361296 3.032972428323844
Pd 8.30229209401332 9.000495802937209 9.423035044229671
Pd 2.710029742609937 6.438681276075078 4.833111367921869
Pd 2.583266015247294 5.003886550250463 2.6249532781358815
Pd 8.610678473083135 7.397591905293571 7.312493194555246
Pd 5.592988379508975 9.130509488140927 9.18925101896516
Pd 5.367151895101681 5.795829241001182 4.927978939208384
Pd 3.5024758628085735 3.840395695450343 4.833046572484108
Pd 3.831029427779798 5.32128322482027 7.074909714362844
Pd 4.227989293908681 6.8052352584101765 9.228813591292372
Pd 6.888109084474635 6.806999300773801 9.398625029989937
Pd 8.939197160117422 5.814293332488204 5.0792157180143205
Pd 5.313730888826256 1.98633968237815 4.206457109961829
Pd 10.409984738806072 5.511842440000684 7.311064581339268
Pd 7.232746628382592 3.8020175534861216 4.419156823702375
Pd 7.058924368582574 5.220049283362094 6.903646955801352
Pd 5.378288795266582 3.1708734841725303 6.605807864065424
Pd 5.618851300097822 4.480466753587469 8.976006072680939
Pd 8.532383135300556 4.805322368769248 9.04471345918891
Pd 7.36903124198797 1.5194103410855382 5.853650536996452
Pd 9.000089426538072 3.462399041732995 6.504862107845768
Pd 7.332310443094023 2.52458002266991 8.369627002634541
