30
Energy = -124.75805549 eV
Pd 5.311706571185874 2.820400890371998 3.439409203909715
Pd 7.573971341727488 4.094427272699751 3.1626502490477164
Pd 3.7234522489348736 5.157312883537083 3.3583460068330333
Pd 6.473502787309112 6.486155207382838 2.914452287887329
Pd 5.970512299096783 2.422090698526913 5.930331806313617
Pd 8.366277506701703 3.439097408352077 5.542276928746379
Pd 3.4490935822787945 3.233396479243547 5.285411857816923
Pd 7.373990731695271 8.567746569062889 4.43255601916786
Pd 3.4295480335097706 5.835225080879205 6.00415022875719
Pd 5.750500368138295 4.959527156467697 5.007691741406346
Pd 4.4300143447278435 7.542119545427946 4.26786944368545
Pd 6.395524132120999 2.330604029671698 8.50717701101302
Pd 5.6694355086318735 9.026458625980116 2.4668908495545963
Pd 4.45677530001065 3.9636875949617916 7.6732151380118925
Pd 6.953424071080629 4.799881659511991 7.349986580555127
Pd 5.007335394330048 10.040352749773099 4.818541386035886
Pd 3.6664769079120676 8.437230016976336 6.732213121875098
Pd 8.875954107413987 2.961726459249477 8.024224137691576
Pd 5.928722077304514 4.72345756803769 9.784325207927253
Pd 4.531354194198563 6.517458065977828 8.386626509010123
Pd 8.247410094963225 6.0870794262642205 4.9000915357571255
Pd 6.091990768693421 7.323408964847156 6.387038736785616
Pd 5.431510359442437 8.994985451177264 8.743810932257093
Pd 7.198901186429205 6.961698833875681 8.890717055890217
Pd 9.448088399322094 5.429988827628822 7.205652308767533
Pd 8.753997553922295 8.02630739001069 6.68737344286067
Pd 6.836490859267805 9.939490437656358 6.685129810335314
Pd 4.438027939231703 10.930007826958981 7.225130492562499
Pd 8.132005264712522 9.410676518651492 8.89992036188912
Pd 9.807098521529092 7.297357603981051 9.026253785686452
