31
Energy = -128.44675146 eV
Pd 12.286118835332541 7.858514312889858 8.48109158704222
Pd 7.57978646559106 5.8905061653820585 6.783540461793575
Pd 9.76406175380995 8.598340061253046 11.919340363456486
Pd 11.667332134733602 5.2851166535466625 8.575897698488419
Pd 12.148354453783016 10.460319016079888 8.203037881536927
Pd 4.714387186818479 9.597872324617764 6.300318274071791
Pd 8.175103842247973 12.126950406474363 6.377248456315799
Pd 10.02253908640305 9.190995205503778 9.177762804640254
Pd 9.30674959129178 6.789263176092437 9.97555376499853
Pd 8.831179596559302 7.74582444202064 5.219999594175691
Pd 7.788332385137903 8.254912672742192 7.893292613480919
Pd 7.74775203692258 10.824933952389001 8.666931122596939
Pd 6.764838449739079 6.239231891934995 9.454869984026491
Pd 7.982129213136122 4.649191192775669 11.119307188549682
Pd 5.819067007227095 11.71091045316058 4.951544000240173
Pd 7.2917677129613745 9.782484142605874 5.838075426131345
Pd 6.165687197986671 7.552236341984905 5.123323220709694
Pd 11.757776294387721 6.743755577531458 10.858695378112609
Pd 10.625999505205524 4.277440417560344 10.773486285370092
Pd 5.631484484126474 11.841276804128505 7.522533377595407
Pd 12.093242517892037 9.355187680411145 10.809394797172505
Pd 10.10561257435171 6.969799729169039 7.326457568431218
Pd 7.449100035962598 8.807277315202812 10.551499772014084
Pd 9.99783561476683 12.059276761750402 8.273725746134698
Pd 9.019718875952625 4.6159600978469895 8.584968373355329
Pd 11.539088043990688 11.886958586399265 10.416684836224617
Pd 9.749187195669005 6.068195491936554 12.559461026644373
Pd 5.5121985513160014 9.526185447576916 8.899625098249391
Pd 9.150727785112338 10.94008203937545 10.915599692707799
Pd 5.291654858795167 7.275509641727399 7.572895370510704
Pd 9.90040830564187 9.837302622533928 6.647999938289388
