31
Energy = -129.19165298 eV
Pd 9.836442819341743 3.3382006926377503 7.669277873583133
Pd 7.33680029873884 3.851873808736144 8.457522588005027
Pd 9.35469761446169 5.118408696601931 9.721570107638653
Pd 4.8802354903273715 4.791250196766391 8.899804111131846
Pd 8.045524967348577 3.807807886609777 5.707118219899459
Pd 6.968579156909948 6.334115840438208 9.608940723953909
Pd 4.651342700392743 7.46226833699264 8.813577419147167
Pd 2.4755634526961563 5.979981612381153 9.141712837347528
Pd 5.574091913539692 3.7951570066083353 6.493484147950471
Pd 10.654382802484736 4.299843898995044 5.267600176242846
Pd 10.2563621330685 5.923896049481333 7.355587293160356
Pd 11.236664688936736 6.886974286866188 5.120310451884934
Pd 3.0357608382404697 4.760144307353719 6.904618336244784
Pd 9.290536195679453 7.6815467794064025 9.05355531729147
Pd 7.645395021609506 6.070303538993706 7.054364244149895
Pd 3.831474748365377 3.843757040408171 4.543239669217709
Pd 9.247356448248153 8.250256327180846 6.250646915697584
Pd 2.5568200505217713 7.5864959921013915 7.040787499197004
Pd 6.949389689442983 8.4848013915466 8.045258194253783
Pd 5.05095453518361 6.427572264918532 6.40223578880891
Pd 8.784031085412773 6.107928049129274 4.596034504779467
Pd 2.8828019633534905 6.329766392586701 4.704095542230764
Pd 9.129086570593934 10.120816820186436 8.08581023124132
Pd 6.190489503826456 5.339012103001591 4.240199469338911
Pd 4.789282243070323 9.069399959211411 6.590636290537547
Pd 6.88596443263519 7.89293169743843 5.0180388135621605
Pd 4.083058734373273 5.469899394540582 2.49724921499541
Pd 2.833806160523834 9.02317054776017 4.796472703307659
Pd 7.308231048905608 10.248013704039984 6.145991200832403
Pd 4.781813919198951 7.711013589498725 3.5498398066733112
Pd 5.382141520820269 10.142588918952605 4.282201631337561
