36
Energy = -151.03023776 eV
Pd 8.004116055648556 9.146079070634213 5.135757112555679
Pd 5.475112680217153 5.6604183901589415 5.605588036226009
Pd 3.91624226154592 5.441668841015296 7.66906154496425
Pd 9.292471433161017 10.549885088693284 6.94086760031477
Pd 6.003585137438582 6.336892046146919 9.015237960188708
Pd 6.618634029575663 8.930562228013434 8.281144538087611
Pd 8.988151869670101 9.103818719599328 9.27159007754701
Pd 6.941150067282988 7.009739356748493 3.8977321211558817
Pd 4.137752901132478 8.044255970342048 7.930001813400545
Pd 9.64553510894304 10.661933306544585 11.285242220527639
Pd 12.054490392409013 7.410994203358672 5.533653972864804
Pd 3.277531928021177 7.054041332155638 5.658102042680688
Pd 11.942956787595351 6.8439280071798985 8.206549154059292
Pd 9.838413086195075 7.996716767181862 11.823013819718168
Pd 7.9750951821229625 11.59444134397061 9.01879480301012
Pd 4.899934305729859 8.568193878887001 10.356918486713473
Pd 5.471285128350562 8.587185796298666 5.630029095439018
Pd 8.05765095426965 4.94524671352813 5.2701488452082925
Pd 5.252339032610903 11.03760963467221 8.981046604860527
Pd 10.762064060554271 11.332765379176024 8.990651130743137
Pd 9.694172347309362 7.897313390822702 7.083660250584061
Pd 7.353202983272362 7.016648073753203 6.727121835735075
Pd 10.826275214992704 4.396714058651163 8.756592123070304
Pd 11.50149603954346 8.920384501504055 9.931942747859313
Pd 11.815140649477373 9.449087690693743 7.330634248837361
Pd 7.737446245285455 5.158914484647588 10.607681767544278
Pd 8.268157049654194 4.957499043888279 8.00842740276681
Pd 9.586458197222765 7.032473649640799 4.475904059826597
Pd 7.363725628474307 7.700782024914911 10.950531917124612
Pd 7.93845464807847 9.301835771044306 13.08173027733912
Pd 10.42274227394835 5.436140398545027 6.4311060485231435
Pd 6.766439548069172 10.294529795525735 10.98246397624628
Pd 7.873206706592186 11.87740960086859 12.732579226163757
Pd 10.633985809849104 9.527247061838121 4.851935714208027
Pd 6.661961325599782 10.911501722220898 6.6368063446478605
Pd 9.713627313332434 6.576147040312496 9.620755462433985
