31
Energy = -127.68018108 eV
Pd 9.95884424091282 5.820097494172234 10.475318125123826
Pd 10.40027480521733 8.37581643539415 10.205187519201221
Pd 8.89896001104212 9.249670931286552 8.264678695505157
Pd 9.957035627803155 6.879929254641407 7.986886215583108
Pd 9.682243065054257 10.247681337092454 6.024792274986686
Pd 10.252323427320134 4.254244387213231 8.311733220850586
Pd 9.22121927626813 7.759846884481589 5.5256482224096946
Pd 8.88435198514697 5.237169885383948 6.195251314286305
Pd 7.895602854749052 7.552660200549136 10.0948738968879
Pd 7.129575839534028 9.923211693277247 6.386535278843271
Pd 8.117990508615426 2.9693393327262076 7.349212002832603
Pd 8.054991763232572 6.002471937291426 3.7886808400799232
Pd 7.867662972483172 5.11644820317217 9.007867606528874
Pd 7.272824325280747 7.21606619261553 7.242226310001388
Pd 6.390681503926221 4.4176685313211586 2.4694191118813724
Pd 5.55208930038602 6.6006403785143295 9.084518854605433
Pd 7.118583748784984 3.674936247046842 4.878245989014312
Pd 6.215403510888901 9.234048655833547 8.922398822813808
Pd 6.079152333382974 4.67494121100648 7.215302139619713
Pd 5.254622984031537 5.485512204988819 4.568024385158305
Pd 6.615716613433105 7.941706634688726 4.778462644465312
Pd 4.840968295339792 8.63124932511075 6.797262265749717
Pd 4.012964413467094 6.199874364773939 6.910957868727099
Pd 5.8364234520308065 7.041339854125993 2.4557431382978367
Pd 5.830919276185648 2.0217250946409377 6.472860461409666
Pd 3.9196568803295833 3.7150130504859784 5.968655276643265
Pd 4.054958547235197 7.878934160553637 4.285296624817586
Pd 2.5917375173843658 5.58222055813937 4.698045998291713
Pd 2.2931953199754536 8.059096116731434 6.305238733675683
Pd 1.4898460259933237 7.828592500984585 3.7476256758048496
Pd 0.3574048298236904 6.456072197016147 5.631275741163515
