31
Energy = -129.41239644 eV
Pd 6.702950075904048 1.8958175079295816 4.627139210903425
Pd 6.125508653034842 2.8750091788224106 7.333237576218948
Pd 3.987772226894183 2.328172117814919 3.929452545458483
Pd 8.387751889868724 3.582247150494754 8.698234753032901
Pd 8.655976196780417 2.693130434123652 6.146999012348877
Pd 5.982521125295512 3.352561517378408 2.4045605857514816
Pd 3.7260691626007816 4.748575725405894 2.8398528653226447
Pd 5.536667464588331 4.116597875744632 4.994406999123229
Pd 4.405669649047327 5.012914276565698 7.237676755640155
Pd 8.012176526323696 4.369558795467314 3.929644699992391
Pd 8.611478758345434 6.246363097969049 8.89277322598227
Pd 2.779765538043076 4.366581402977694 5.344893327543681
Pd 7.5102720706424595 4.993780578893893 6.469092523993967
Pd 6.173833641473464 5.071223164121582 9.081137224865065
Pd 10.04975777865745 4.912173225607328 7.027642219880106
Pd 6.572743108345058 7.561327651381243 10.070149914467994
Pd 6.4895512203783055 7.154920479628255 7.303771853524367
Pd 1.8930655244490808 6.415140794574781 3.906170297078012
Pd 4.2578700468975565 7.299364880510195 8.663212920968974
Pd 4.617611747411234 6.5090084088340125 4.896061294534197
Pd 9.22298457415616 7.422903500855815 6.546005873654862
Pd 2.6162244395917504 6.91373122396706 6.517890406427991
Pd 7.547249893641889 6.971638049586288 4.681512168764665
Pd 6.159291166561899 6.023133864542313 2.7333309255166864
Pd 8.34431318887223 8.912743342025033 8.560741313450094
Pd 3.8512993512644527 7.3632935976265514 2.3307232284987838
Pd 5.791281681037094 9.612429765287493 8.510730919833009
Pd 4.561158160631819 8.854771443867977 6.385357645299199
Pd 2.9182885526336833 8.787497576828098 4.409604489900926
Pd 7.244288158895814 9.31004501327711 6.0183057177972366
Pd 5.646817617791182 8.689079370492301 3.860639391195077
