36
Energy = -151.34252289 eV
Pd 10.961840695644653 7.564588243457737 5.740305142961649
Pd 6.7260187660181865 8.245749443339458 8.665461297822176
Pd 6.292421545543701 6.270216993057585 10.61948540130413
Pd 4.438866217475001 10.467360275383344 5.834818436618396
Pd 9.30135127584825 5.572566120393817 6.748515766125764
Pd 9.323228681421138 9.265760804409851 9.374075373443233
Pd 3.9439193149631584 7.686372396920186 6.352103639210346
Pd 8.77569011588707 8.055718850012463 7.0912398636560345
Pd 5.908931721324284 3.571963600346214 6.598557628542612
Pd 7.8723695592980345 4.279015879585355 4.898695974088013
Pd 2.6806903551533483 9.056916941169082 4.555211728245642
Pd 6.384870535155257 8.618474960051435 5.848356954096916
Pd 7.758678059237324 4.200456071652159 9.831202251839242
Pd 8.75127136110633 6.649379972773347 9.591759108713239
Pd 11.051559660314814 7.18090032286129 8.388301763508892
Pd 7.918839997631441 10.463719833531977 7.366410327828643
Pd 5.769493676998177 11.906460084391341 7.6022385227974985
Pd 10.180343682793389 7.858578355622115 3.268444362582244
Pd 6.837001034966897 11.27429162822162 5.133083398062801
Pd 5.771566608518766 6.041354793915235 5.313135371142834
Pd 8.87236488751194 9.531188359774427 4.891943381433633
Pd 11.915900049055258 5.160355440547648 6.764581347650868
Pd 5.196093486966681 4.29976528477577 9.112800707594637
Pd 6.772285141844627 10.609472043279299 9.828473319216855
Pd 7.631724004637432 8.503712391174295 11.31938980931866
Pd 3.806009684135758 5.127699642311123 6.966003257074435
Pd 10.305410650636418 4.521299149810433 8.910767682354914
Pd 6.840526209952398 5.8112327110149735 7.690144703649072
Pd 2.2449723863573134 9.60790503581544 7.053715984938184
Pd 8.323895082678204 3.2508173005043624 7.49779975524417
Pd 10.307138611428057 3.2108054774729795 5.762730589909102
Pd 4.562360972906983 9.63934424155457 8.350076000951344
Pd 5.028220835476696 8.653114469986573 10.787157389778782
Pd 8.131291368594566 6.935411397064293 4.638912474470608
Pd 4.358811999505629 6.928390370730724 8.826028753424984
Pd 10.33665741827403 5.366341011438576 4.2407894108330835
