33
Energy = -137.90844235 eV
Pd 5.920805962939577 4.593153104173321 11.80918149894809
Pd 9.920931520105267 10.21492462489761 10.918338370641056
Pd 9.401727406119017 7.724130246793008 5.088635329950844
Pd 7.905083202714001 8.704680058913302 11.65707632507364
Pd 7.562432580251816 10.282571715753289 9.558606856783323
Pd 5.910359116622497 9.368530081462804 7.679337304994997
Pd 8.026195529514583 5.9900163925449155 11.15162687814618
Pd 6.262106310547935 4.955788555591335 9.162249635437915
Pd 7.101847320753936 9.327689058249703 5.306798510670009
Pd 7.592478379776039 11.325075351011664 7.018702288523971
Pd 4.433817755135688 6.344089553751473 10.559916133292338
Pd 12.09519546417437 11.574510022565244 7.3537799304611475
Pd 7.5620428077805615 3.704991419883351 7.2021573219821144
Pd 7.158826608766183 4.783988123198148 4.80868453638558
Pd 9.75211947741385 11.493185878313337 8.62111396220787
Pd 9.45813796629625 5.241130643105428 6.018920182887233
Pd 5.2961944716701685 5.090188737845185 6.667477007473012
Pd 8.903129608328166 5.523170009101027 8.632311563963714
Pd 10.729455005427303 7.082261561859776 7.466753690516282
Pd 7.3472230550701125 6.793412084548005 6.700272165812602
Pd 9.888320623664784 12.709815581551068 6.324129355366923
Pd 5.287045429647846 8.913862332203273 10.360538531507583
Pd 9.69596196990778 7.722693508105317 9.913855949638382
Pd 11.433111732780622 9.238898093451196 6.091059178777784
Pd 8.874689093063889 9.017306580434104 7.500786040438868
Pd 5.103391958004715 7.601862151533051 5.60320310858985
Pd 11.331971814693102 9.400769987777366 8.732249092228678
Pd 11.73864271860578 11.540068146110313 4.75952609604664
Pd 9.380894166341367 10.442276577035724 5.052122312260723
Pd 4.604613836727151 7.144094800478892 8.148304674796849
Pd 7.133818998011808 7.1562679024668405 3.833845784084784
Pd 5.955596108619911 7.205949043770642 12.484045782481937
Pd 7.099123466798984 7.499452412436433 9.234186472744563
