30
Energy = -125.01376318 eV
Pd 10.277040526057291 4.708819018357317 5.863002425413023
Pd 10.43316838157553 7.3400326235738556 4.813913937393448
Pd 9.817284085728451 8.791877221659497 8.991084877109525
Pd 9.89331630519444 9.479903506944607 6.372301821848025
Pd 8.322761124243565 4.610075998000536 7.818234436862661
Pd 9.69213725986445 6.834259036165518 7.23539930891736
Pd 8.097741010137542 3.3135551456632717 5.437461916935996
Pd 8.132093121731641 6.754753967650532 9.385471770845745
Pd 8.13923496630665 5.915627920492232 4.825737766725433
Pd 7.357726120645907 9.318203473325932 9.887140260712401
Pd 8.519450441442748 10.956151707667402 8.172760520296874
Pd 7.747079556460692 10.988283275930845 5.6691052233179136
Pd 6.08507282416284 4.947878228884495 9.341366329683824
Pd 6.092715844055393 3.342766086309518 7.213357129777807
Pd 7.559786959911015 8.342661038752835 7.1609817874106385
Pd 5.942974720543692 1.8886226502928647 5.047246718927397
Pd 5.88920720781497 10.209554460938651 7.68455125182685
Pd 5.593014817869204 7.614806751241018 8.979999089788214
Pd 6.305834769359453 6.001332192059548 6.759800216345517
Pd 3.8304182866674386 3.3628276414001648 8.52890251684132
Pd 8.05531407116267 8.540569372709554 4.599751359408377
Pd 5.854248952149505 4.484446864654448 4.461387341118085
Pd 5.645528458873874 9.681742756045505 4.984554991738722
Pd 3.88153935410662 5.913403036766597 8.025054349827846
Pd 3.8462920599662507 3.2991791614459305 5.8393116738013955
Pd 5.834347924475937 7.087356319978671 4.281732538166686
Pd 4.461026451621935 8.110374916262664 6.704491577769988
Pd 3.6621070935570135 5.915586050889684 5.302000115951898
Pd 3.4963908563057924 8.342001867637926 4.268819547669327
Pd 1.9432708902418203 4.624864034751844 6.922165769597009
