32
Energy = -133.70768296 eV
Pd 3.719824873353961 5.338984050459017 4.7410853253070595
Pd 5.268923789266802 3.2895813482724567 5.159472951145309
Pd 2.4645567259122494 7.687648249495842 4.601157478334656
Pd 4.735965967177074 7.298842756695133 3.196260536927765
Pd 2.745930920993852 6.406744087658663 6.910634333583384
Pd 5.454195302003549 4.768608668884236 2.8389236740774195
Pd 4.099678234139377 9.729390657526348 3.9599257741520515
Pd 3.0293057026243844 3.6924646194446904 6.6717457834344085
Pd 5.765229972587458 6.74088163369337 5.515269156782365
Pd 6.541316532313165 9.29128561147411 2.9172779627165597
Pd 7.339129453374962 4.857770843249119 4.790263535084011
Pd 7.335976021919474 6.706043297783214 2.9043457605982494
Pd 4.236625635746077 8.610807528866378 6.3817564791380486
Pd 6.204226917382139 10.243817067172587 5.436739506742469
Pd 3.342727612888774 4.9085288971793615 9.030053291340089
Pd 7.875361531654851 8.264889083548514 4.9256140817509175
Pd 5.477364590957914 4.142188633808241 7.592973720003948
Pd 4.880950304970958 6.973258551975238 8.374617592822624
Pd 7.642904902738496 3.0070181664700266 6.572019361298025
Pd 9.523766673603799 6.2178797643956925 4.597942758299881
Pd 6.674856674010689 8.695947481285593 7.583582641810503
Pd 9.609911445774923 3.520300047724566 4.78093468281502
Pd 7.295804878529241 6.047754714569199 7.559515912368961
Pd 8.635967804601474 10.155111303202736 6.574251745006753
Pd 9.482424684316939 7.595532580869285 6.878244595686395
Pd 5.7511655181143935 5.046434172469115 10.069640922359861
Pd 9.625351411954373 4.923975509100375 6.976712175904421
Pd 8.007725858992531 3.941132274726567 9.008130485997272
Pd 6.987451591981844 7.416538115235582 9.966619852670856
Pd 8.908289987727878 8.954884032046785 9.03568841471371
Pd 9.40162749372691 6.304181356046789 9.255461818466193
Pd 8.024682942995314 5.310796853006966 11.28235964699707
