32
Energy = -134.54883495 eV
Pd 4.765079930873054 3.809960959101464 9.836323163697159
Pd 4.715118328122286 2.6431999822229657 7.483153934621852
Pd 8.56380928554836 4.829659465571472 6.597875600598972
Pd 7.115545898039666 3.409726406713927 8.417600843859974
Pd 7.234478559280677 2.6265096846437173 5.742107684863534
Pd 8.75297150131128 5.412201478867589 9.1455219357581
Pd 5.643963756964762 3.871507012392471 3.784443219938912
Pd 6.144954660652359 5.844074443946416 8.996681821750737
Pd 9.780336345433486 6.4592983422061065 4.707760086325625
Pd 3.8748780617677205 6.661987590778539 10.024825823967983
Pd 3.612105685857864 5.173794943266281 7.90284723174783
Pd 10.268861358746479 6.820906553116706 7.263277220572636
Pd 8.236870989937758 4.3769435970276005 3.9482692723551356
Pd 5.862565507326887 4.75289231612699 6.351442469414255
Pd 7.730706101996234 7.4077058224071015 7.646340140855767
Pd 4.820705894831127 1.7256804351641213 5.049450068471205
Pd 5.645697789935982 8.495220330877434 9.097553384372537
Pd 3.431854181110252 4.010559186702435 5.417422584054296
Pd 9.05653398430983 8.778596869996152 5.790257101298445
Pd 7.132317573655683 6.672332152917255 5.022179326342669
Pd 5.145970613699207 7.274801554339972 6.791671776485574
Pd 7.372927048890599 10.011388581148353 7.641590852022184
Pd 6.548733627061125 6.049378584086161 2.5415171768216815
Pd 3.0284344440737474 8.141812525226143 7.98702199605585
Pd 4.4839814595310274 6.251312302334598 4.244320550818491
Pd 9.159166640106173 6.18302921853997 2.1980430592702804
Pd 2.465927721100938 6.44803137778846 5.955832907149225
Pd 8.092621032941315 8.389454661781766 3.2670925076433286
Pd 6.465613876429255 9.261245097971868 5.285441343456952
Pd 4.742266503994059 10.109313677928919 7.150295158901328
Pd 5.420092462917002 8.425446499626606 3.0234525022355974
Pd 3.718581641482226 8.691758369706333 5.112347969099264
