38
Energy = -161.63601331 eV
Pd 5.7590015450129295 5.111489617408787 3.033114226408485
Pd 3.19991106956027 6.203843768577374 3.128124078283961
Pd 3.7796323833535266 3.522090993247049 3.85359876393118
Pd 7.805118358862981 9.146040754711995 2.4770447564290485
Pd 7.988444391031514 6.567684501978585 3.0547818449631494
Pd 5.469941820904802 7.6642316535694235 2.397552405347049
Pd 9.169349876610934 8.380963393058007 4.726897554159505
Pd 1.9074584761653675 4.740604664797507 5.204220712733866
Pd 8.190782080613582 4.008169675039583 3.5315172427158044
Pd 6.098356688567593 3.455054944602068 5.093465558860485
Pd 4.589939202853702 5.927449357088194 5.269944668824515
Pd 5.485224482061909 10.246681018746507 3.2639206289888194
Pd 3.896231131026168 8.524161107979149 4.491014911509551
Pd 6.528955500182735 8.153899916225637 4.751394648807312
Pd 9.835669962121978 5.711989928591709 4.929128750113709
Pd 7.690641307826773 10.724948084457758 4.697500134101008
Pd 7.332871947843276 5.842290175396018 5.707664883695988
Pd 1.774453636736431 7.32032546505966 5.264869293505305
Pd 3.842505583069825 3.508484831328226 6.601645845286956
Pd 8.559682938966892 3.4502332198668926 6.103913603880937
Pd 5.25361446489541 10.340704272605022 5.991492689840645
Pd 9.330861945949515 7.244340599737702 7.101590254950356
Pd 5.332707637652707 7.937655747424123 7.136786008152767
Pd 10.44628581525639 4.811196276519451 7.479978515621065
Pd 7.64007687322014 9.245767692530475 6.900012329379702
Pd 2.9627014128801257 8.854560121853673 7.06997094861939
Pd 5.545340105377837 5.375369925326855 7.655932008822289
Pd 7.232784401964402 7.546859281738343 8.907955443709866
Pd 2.8937381231429593 6.038682526357426 7.342694329334476
Pd 8.738495595767558 2.6336290311452557 8.689008221629827
Pd 7.99181209497657 5.076656639635305 8.2579810751533
Pd 9.650732799184283 6.576677901883338 9.646809177792301
Pd 6.274543438885154 2.8295413385322736 7.5982702341796795
Pd 4.197695459949517 7.129989910074402 9.379231713488524
Pd 8.459327854732587 4.473912231174128 10.763485054159208
Pd 3.8965330199804598 4.234081887664691 9.252365137074623
Pd 6.30488261732566 2.9813232493205137 10.14298275187101
Pd 6.119328656617847 5.577904943630313 10.289972575487434
