33
Energy = -138.03372987 eV
Pd 3.3298862255641146 4.76652382952839 9.692152124550416
Pd 8.477449298502304 5.308435605816042 9.717191690269752
Pd 9.56439072140245 6.530251595648946 3.7816499569628426
Pd 8.705010918826359 7.996408095645079 9.934230034272268
Pd 5.936266286352441 3.2298832947868634 5.609872285308469
Pd 4.285798565931309 6.800421141603882 11.088345357639728
Pd 6.041873786226111 8.196539221376105 9.657368831741204
Pd 5.898110250660307 5.3988646063854695 9.481728998250423
Pd 9.624075747024326 5.716360123564521 6.812341574991919
Pd 7.7724973071962635 8.80673196458999 3.111469128930987
Pd 5.468355339692447 5.737180477742217 6.845486005566179
Pd 10.74917518689485 6.411909765566592 9.095094592900109
Pd 7.505322359170173 6.955357043927974 7.827774914699091
Pd 7.0956251841871945 6.2971585991644385 2.744168584115133
Pd 7.561846997342389 4.101106244122281 7.554083154651791
Pd 1.890109754894367 5.62226416369101 7.564615537582329
Pd 11.298255995461986 7.359451203517755 5.628063086592022
Pd 5.312224263043728 8.635099772955241 7.016780349571495
Pd 3.4857932737363537 4.23636731808397 5.996316681317458
Pd 7.578235396584888 5.344706133941769 5.144689728971954
Pd 2.42297715386287 3.020671400590072 8.012042801124698
Pd 6.766048823879531 10.160786957416683 5.404936922098828
Pd 7.574360153900644 9.669418171933595 7.959785621996001
Pd 5.066550075697159 3.2634919664877677 8.126949177661364
Pd 3.822464672172609 7.1330683510101105 8.523660019307123
Pd 4.985719189855976 5.31217554750383 4.12150720023773
Pd 8.391846954921697 8.020466643715451 5.613252709164578
Pd 8.584719493619586 11.217995405601416 3.7792668403320677
Pd 9.382366770534105 10.528864780776749 6.2097247696015225
Pd 3.46572769061612 7.0611089153090765 5.813866846957889
Pd 10.072631310572746 8.4635045787875 7.6492584924834315
Pd 5.856348681890821 7.733611833861664 4.632654240780046
Pd 10.253320459122763 9.189199534688166 4.075056028710334
