37
Energy = -156.59658169 eV
Pd 9.894642194993267 6.243317485048656 5.616327711202695
Pd 9.834760109698397 9.023545471807507 5.4804752860986845
Pd 8.994259901535415 7.810599954556091 7.737894333860918
Pd 9.797707196588895 5.23327947619468 8.184857252667985
Pd 9.01999762337493 7.5696347799321515 3.357834441042007
Pd 7.593022220215537 9.949717941678115 6.9300595572959685
Pd 7.694540876138349 3.5738718594345893 8.740619137105508
Pd 6.40541010229271 4.5561996918291765 10.819468037168008
Pd 7.456189863205915 7.638234554274262 5.499660705015358
Pd 7.652494686783355 9.950800795878191 4.245448793996336
Pd 8.809308773609414 3.533494695831138 6.1480850081684775
Pd 7.888422129490208 5.2678301883535745 4.1073976015102796
Pd 7.68990758574229 6.390009181020403 9.502694973975093
Pd 7.2756900630226085 8.986557830388263 1.817413596932383
Pd 7.259338681641912 6.330962435659404 1.7050602649890503
Pd 7.4930354513681126 5.54015131339959 6.964590283689252
Pd 6.001552716170006 3.1076499764240593 6.757522648538106
Pd 6.8698501208822265 2.8980328559562114 4.332917158242892
Pd 5.26471034361685 7.059633102470118 10.277862066413094
Pd 4.183102504457962 6.683521029480164 1.79271875048679
Pd 5.191699833769224 5.206836831606393 8.290574981330566
Pd 6.025731973765526 7.785089643755736 7.782070644604822
Pd 5.26056928848791 10.17149625102823 3.153794057135484
Pd 5.067737548606235 2.770804771817553 9.285785967564626
Pd 5.819820944742457 7.538692060728368 3.5377289080148016
Pd 5.533700449915412 4.675970164251995 2.8659094891105075
Pd 3.8056299283553545 4.864085948521213 10.890865083068764
Pd 4.227415250348594 3.248465810661892 4.6967929276238625
Pd 5.43537991347922 5.676666402581266 5.465133604237108
Pd 5.284524609510235 9.309702947362842 5.676568296475779
Pd 3.5713448061835824 2.153188339185106 7.047922001078398
Pd 3.0244613436655787 6.485643857510068 8.852023060440628
Pd 3.3930335352671364 8.42986950372353 3.9782327134356463
Pd 3.235685840058799 5.77243668489926 4.0851154004400225
Pd 2.591551736775256 3.758911978079472 8.894663994382014
Pd 3.6173175266110618 7.368816047760809 6.471063410172762
Pd 3.0454570903679747 4.767552652983434 6.547685938539841
