34
Energy = -142.89944872 eV
Pd 8.896684118127789 4.904933535973831 3.607537587602126
Pd 8.115269178660602 6.271929398570231 10.168611558580531
Pd 7.679641779216831 9.040381060690576 5.672704858998596
Pd 9.197188833217355 7.599084000253224 3.8993852563365303
Pd 3.1607708728990063 4.772820699862363 6.308785996900732
Pd 10.221359443730583 9.625774627515243 5.338070453372086
Pd 5.328931368920388 3.674115449556331 7.451898862623238
Pd 9.903640170584529 7.342784680030579 6.61680780007626
Pd 10.100920494146433 5.578164779630225 8.58135820860686
Pd 6.066348543719794 7.374713832067814 11.358442527567615
Pd 7.514196410809001 6.27471579458566 5.557824597282708
Pd 6.270334033852888 10.0796545505434 7.71245612873263
Pd 3.2543865052173793 4.449665519072099 8.961373508322364
Pd 5.669088438589782 5.394096108689932 9.52241135036515
Pd 5.23744537028679 6.329864030499316 7.0118709581413485
Pd 5.42701596245514 7.916108375537796 4.739039847877013
Pd 7.1328034680177685 9.155667533867065 3.10247110364611
Pd 11.453499127476118 9.262755564584177 7.629397178779011
Pd 4.665362723677043 2.8763616470301243 4.981827634927944
Pd 5.0422020734845425 8.16537097533343 9.081000975724647
Pd 7.456567594501974 9.207096563703727 9.963110244207677
Pd 7.682026614750697 4.727668373867289 7.938025409107708
Pd 3.5479886068908715 6.58644427002926 10.588423913128832
Pd 9.64483931636533 4.7112813274140315 6.099634024184988
Pd 4.021941400204115 8.84378729713807 6.752833427676811
Pd 7.487458694961647 7.53611506827391 7.92386932640731
Pd 4.983349116569638 5.383053637379078 4.489214627101297
Pd 7.184725135158431 3.690469599631124 5.5027625278733066
Pd 9.847967654121673 8.113760120864164 9.350335384453466
Pd 6.8514839753054995 6.52550472191906 2.892328480069398
Pd 8.921596702492977 10.06891477649259 7.7720788754183285
Pd 2.8087785365703266 6.871159347824787 7.973955887926493
Pd 6.456558403080178 3.872163139073898 2.954410671293661
Pd 5.475384761149686 10.481375021707324 5.2034962358997525
