36
Energy = -152.85836553 eV
Pd 6.35307323547475 3.554125671908391 0.3236265800067817
Pd 4.5969782356109095 1.4985722443299097 0.9885269055169353
Pd 5.510043685205865 5.949734872540836 1.3112551351797035
Pd 3.744676380776729 4.070313853757753 0.8280811663218041
Pd 7.6703800815167975 4.7805829940263695 2.455714081976649
Pd 6.82926089194444 0.9026638614488746 2.5331573735018655
Pd 4.063482208153838 7.752930250574594 2.6925340483734037
Pd 1.5994337183281981 4.9422551297261 2.3110732101380673
Pd 4.3149578103857715 0.49685017115212554 3.4951499558304997
Pd 5.693798015576732 9.366864307134861 4.288114937040628
Pd 6.67741279567177 7.0061409186301615 3.456700011099196
Pd 2.825901088561358 2.5624370961277987 2.817279503615237
Pd 7.848792628486555 2.8337991510222884 4.296560683044996
Pd 5.638268253231676 3.186670950256219 2.7934723152940495
Pd 4.001903182241321 5.1251288211999615 3.3910977332020593
Pd 3.021393672314557 9.185871411258539 4.82618099190739
Pd 2.012910868961742 6.612033407274064 4.476432852114038
Pd 6.326656046262153 0.7764955631550199 5.1588437716097335
Pd 1.6656104629324382 3.869087461006132 4.771337388877639
Pd 4.637983945084362 7.088613965708796 5.180055386511768
Pd 8.55872034667454 5.595967887560867 4.860674878141415
Pd 2.3258966407376835 1.2655805572868513 5.275244625381584
Pd 4.436994002496728 2.74379219087567 5.0821497963613265
Pd 6.106916956474488 4.821582047801784 5.165315927041428
Pd 7.052126304331958 7.605688770727112 6.100128244758181
Pd 4.849055080337255 9.171152412221176 6.882979151093622
Pd 3.5731145536544964 5.0073843307781765 6.183308334543845
Pd 0.932463561132182 5.475526617067607 6.795637031767942
Pd 6.811156402195559 2.7460572158532592 6.78861007586829
Pd 2.6249245052026207 7.551023804746909 6.99678549095459
Pd 2.312244047936176 3.0408280803213117 7.344165690246036
Pd 4.517433978910596 1.3761127439918135 7.254942662356524
Pd 5.084447662953491 6.625874561609926 7.804477658780231
Pd 7.340923981747179 5.269137219224822 7.43221274587172
Pd 4.919686510638587 3.945706908501082 8.12746496502081
Pd 2.761287929629709 5.437722220967882 8.751018362425233
