36
Energy = -150.6132709 eV
Pd 5.307911453114816 5.4089063955826555 5.1970720098969565
Pd 9.426194424111712 7.080078558810794 5.5744373681413
Pd 5.975571522375247 11.819852664926106 7.693613938178848
Pd 11.42157083114602 8.394008609965677 6.717111126227934
Pd 2.290005075920246 8.328584625188714 6.451212195838721
Pd 5.477094755671045 8.313646002510689 10.656523175799018
Pd 10.307273791413119 4.783971062047413 4.388117405891625
Pd 8.897686688479608 9.116595382699249 7.41643700246671
Pd 5.306433536359744 6.151980427380246 9.100451204769042
Pd 9.900102826419545 6.78003368834383 8.216786013743091
Pd 11.616849783679768 5.716412621907673 6.491646152745781
Pd 3.9726434795458347 10.362807413917466 6.744726332765821
Pd 6.220105188236341 9.141181904963192 7.515849898945997
Pd 3.5300667962928673 6.002956023720884 7.077170512127989
Pd 7.651051216087045 11.053748484421174 5.865680705794662
Pd 7.112443562991372 3.346545600845674 5.72720486127631
Pd 8.629231819194258 11.614501497730291 8.22172500486989
Pd 7.754954065863583 5.540183452943993 4.238997634178905
Pd 8.74338287241493 7.70652981915063 3.1056176236866166
Pd 6.831622121823853 5.9821509536022015 11.254011942735806
Pd 5.724917582643152 3.6994444406076745 10.067384452595572
Pd 7.589244514043795 2.7540874644891598 8.310833652489336
Pd 7.0621035422103295 10.24477709293869 9.763976944543838
Pd 8.50689653220062 3.107685983262476 3.5933482727200117
Pd 3.904659144576997 8.223817025219937 8.474284186675579
Pd 6.9342225996180495 6.58785848089855 6.922497902391743
Pd 4.409465634615225 10.565843476082067 9.474094776155352
Pd 9.158395194969748 4.551372474537056 6.701060377872207
Pd 8.163705441756179 3.540304899705523 10.918820843042568
Pd 9.711120082387875 9.666013945231656 4.914921205294038
Pd 7.77771783937801 7.761274476354139 9.43030763353387
Pd 7.210368888986575 8.628035073598951 5.063318858264941
Pd 7.943127487543006 5.207764544320213 8.93734361340919
Pd 5.36111934617213 4.098109256924839 7.484553227439138
Pd 4.704682022914088 8.017708391243504 5.527148234847775
Pd 5.974482020162424 7.209651469246099 3.2701373939627736
