31
Energy = -129.31280359 eV
Pd 5.419244754695355 9.672182713179009 6.444250188474285
Pd 6.84286746198036 8.591352896840993 2.4114591893791637
Pd 6.501572883620828 8.179734286858553 9.288568653594988
Pd 10.35608647616264 6.499848498670897 5.830486532448187
Pd 6.842331232947083 5.8963089514466285 2.8696964687868554
Pd 4.910458701199163 9.757196293653388 3.892981423313532
Pd 5.51944877694372 6.859002639187842 7.2484652913808185
Pd 8.819613850037205 7.624680154576724 3.9461477099235456
Pd 9.73793984228873 9.095817837610923 5.989920703326306
Pd 3.7178112362541107 7.774995270954759 5.492790918099427
Pd 4.508302546589688 7.307133319881128 2.905239219228835
Pd 7.518198954417302 9.979518349802058 4.741160595246604
Pd 8.060580562828601 5.303490495683716 5.169775047659586
Pd 4.883288624967949 5.447449865471844 4.782610396742778
Pd 5.559740787412767 10.597311053819626 8.848939682362177
Pd 6.585857239897172 3.4445145080627495 4.053281443490066
Pd 6.420006711225315 7.619701480119295 4.965048508994209
Pd 7.767861845257986 9.876876350843606 7.540035335158475
Pd 8.116985694400126 2.6642132602269695 6.178288976362837
Pd 4.490695310730753 2.9214681919928682 5.556179848508192
Pd 3.832155282124091 8.571289058329153 8.295751010675795
Pd 9.172626338247818 4.78740865455864 7.518832653746027
Pd 4.527636134814795 6.241494043261029 9.569941209676927
Pd 6.270751524192204 4.355173168953566 6.915144766791152
Pd 8.187957459253948 7.2903417215791295 7.237731117201312
Pd 7.177849533275702 5.5896455506520315 9.145832120370027
Pd 3.652412249405977 4.959640469945406 7.241874159087106
Pd 5.932411468919154 1.7409577728217918 7.492670890330029
Pd 5.1971368830324565 3.701330240568046 9.234610344899838
Pd 7.840341960071474 2.972486207564183 8.91476065264567
Pd 3.3607156164661927 2.384747611694948 7.862369316697075
