39
Energy = -165.75767494 eV
Pd 6.596665607527935 3.810029546776732 10.03209545916198
Pd 4.5043250538574515 3.830107383781099 8.128146127667282
Pd 2.939628692971385 4.433030380137647 5.941527400492601
Pd 6.419677680001038 5.50648879598554 12.099279447772235
Pd 4.7030948091669735 5.700303377031649 10.110591884208825
Pd 6.954997726789718 2.865996593158307 7.600326394491244
Pd 3.115904143382969 6.180535646364076 8.086994600776992
Pd 5.518529887593872 3.8295139435000833 5.580313871419303
Pd 8.887538506556513 4.461330054209143 8.811787327803152
Pd 8.107317297453418 3.0190114335513174 5.192056791354816
Pd 9.533890045327233 2.408535339587515 7.315391782186794
Pd 1.7414720743470025 5.475467665720628 3.816695435656028
Pd 7.735656111816033 6.424876186505289 10.049849885719205
Pd 6.497898881385845 5.553381908067879 7.808254766858984
Pd 4.690735149415697 6.417984037558944 6.000825463564959
Pd 4.32187704322759 5.0773563536226405 3.5109804402432014
Pd 1.5632388108811244 6.826575827525318 6.052603066467606
Pd 5.92199657368523 7.955629309544413 11.085412364321892
Pd 5.134336529464248 7.834740800449762 8.596797138701792
Pd 6.806948377207928 4.13490325732709 3.243183505569737
Pd 6.06430277444655 5.869970371044942 1.464061565091094
Pd 7.475906606213846 5.736580765978864 5.317092494678904
Pd 9.859254977731112 4.84390148398186 6.345006780163541
Pd 8.449619539233517 4.63316505415483 1.2947071232056668
Pd 3.4361758235430524 8.650414521113342 6.7178085237660845
Pd 3.27364076964885 7.658085594278269 4.124560807469968
Pd 8.872965591383114 6.934282898566071 7.667742023760207
Pd 5.851277163599992 7.259432465968739 3.663722767278382
Pd 7.560541461426841 8.872720504720723 9.007413071804478
Pd 6.738806603253389 8.102898561780487 6.383984250111448
Pd 8.295244426459394 6.83714175872508 2.7293138780832606
Pd 9.578300464758819 4.709305048402945 3.72747106818053
Pd 5.528223182695805 10.200526295126611 7.48832517608149
Pd 5.119007608097594 9.528927232941568 4.8316976316500275
Pd 9.678740918984985 7.193962692002409 5.065424460151437
Pd 7.8231827490645545 8.979318804208459 4.16211486249847
Pd 9.041403440130635 9.388008702900223 6.620958228549842
Pd 7.8950122804256715 11.304549181891284 8.0756692119787
Pd 7.1775698963527095 11.12814579471797 5.563993603861428
