34
Energy = -141.64004352 eV
Pd 10.117424351256666 4.8775392356651155 9.953381167041913
Pd 6.371623957051827 9.214331314558795 3.697841672018029
Pd 4.476272433965798 3.6926384661361618 8.388210687483227
Pd 11.029952618987915 6.313253678693203 5.096823746293174
Pd 5.897139306978884 6.7126870843797395 7.181276259241746
Pd 8.39164195948473 6.248149139550598 8.583579884182972
Pd 4.211165487408347 5.061683600400447 3.769571608454067
Pd 9.824987450963347 7.942459374401228 6.99263933828122
Pd 7.618900373000648 7.601922160579154 5.344202739978194
Pd 6.255264752439144 6.648595528613197 2.8233781077528812
Pd 2.2999431609848413 3.6981081664712203 5.20950385778887
Pd 5.38065679906635 3.6087471502273307 10.82231794808839
Pd 5.697712999129947 9.48680599256272 6.455502137024708
Pd 5.094715664137605 8.514095352113909 9.073051856239795
Pd 4.750691251608572 7.501408200878256 4.801942728720721
Pd 3.4338816841624142 8.218352557167139 7.00083667149957
Pd 9.8840503451918 8.488266841984501 4.295067387425497
Pd 6.55434835234619 11.504002813843991 4.957346404643717
Pd 3.4358588407079043 6.376390911424033 8.881473622260055
Pd 10.974708407722828 5.683904728565444 7.675266908379691
Pd 6.840131455673305 4.123381281787399 7.412100516099463
Pd 8.82031244895366 5.968565092656599 3.5463414757578957
Pd 8.44210012253848 10.032636007737132 6.055713814756155
Pd 8.886903057255033 5.227360587122633 6.155915429914242
Pd 5.917072625881193 5.894562996436259 9.642104392685273
Pd 6.579466811426833 5.1159393169439005 4.983501962713655
Pd 2.8581838815024923 4.3470895322472565 10.345190824384064
Pd 7.568004704051434 8.692183087835069 8.164051068832917
Pd 3.64343443807725 5.655089253337228 6.310511016201865
Pd 8.601513753225424 10.611481431889427 3.4558218089375226
Pd 7.733618365075723 3.9740393323038337 9.866907035454926
Pd 2.0224779027323034 4.18469811265436 7.809482046648456
Pd 4.808593177438949 3.315076269897486 5.841543459238968
Pd 8.32651028587804 8.192354463902387 2.1597031553464636
