36
Energy = -149.95627115 eV
Pd 3.796485506352882 6.842620414799433 11.424320593684326
Pd 5.705716274163558 9.701915034126724 7.870130519237816
Pd 3.0428422465470617 5.95089481115454 6.335902702522354
Pd 3.191315682185039 3.2777028087190705 5.804506320761904
Pd 5.267796100836674 7.0253233113354066 7.7110183314182335
Pd 3.2961175184915104 6.380965995741445 1.6707189045450286
Pd 9.923102846717088 8.609625913072403 6.830971081589508
Pd 5.615362456729265 5.476209409406542 2.3856234025484384
Pd 5.398846760629307 6.141007924290118 5.078454654227869
Pd 6.2664721651507245 7.255301442817708 10.384731371581061
Pd 7.8267823892567945 8.370492422338046 8.606061529048665
Pd 7.163912444098933 5.347512394135557 8.599309136694933
Pd 9.36792327725355 4.027590016198102 9.02399204073248
Pd 10.393098265450508 8.3146302394703 9.361884910202777
Pd 11.409371941059918 7.885225548019305 4.818299237051432
Pd 5.581209010109275 3.557275142568171 4.646745342136902
Pd 2.770761998498814 4.1409356031674545 8.325372900137886
Pd 4.704189020547638 7.929364742835216 3.1241611114879126
Pd 4.261658375147958 8.78108144230221 9.727460212711176
Pd 9.485395725389711 6.1676142904930265 4.815538465817129
Pd 5.229400369203867 4.286812908117578 7.185037931163692
Pd 4.812225341665984 5.089809029201533 9.736228246429206
Pd 4.843898754577703 8.680609156718807 5.64290720146494
Pd 6.562096981429707 9.662619743393495 3.9103178232684317
Pd 11.265817007102997 5.857795244798555 9.430656196613773
Pd 2.8796684987039027 6.7070851183130005 8.893326932690217
Pd 6.182862762638144 2.9692917074151817 2.204351520358282
Pd 7.448734148511882 7.486847686230811 6.126151158264681
Pd 7.351982225476273 7.179411678122242 3.442332369218974
Pd 7.864887546849085 4.540337698660269 3.4729745986771934
Pd 8.812614796238485 6.387367639020629 10.353977220076803
Pd 7.6602385514029105 4.695637003416159 6.121717070839886
Pd 9.540825808385591 6.135545455014962 7.481891502664806
Pd 3.3138605526466183 5.038377153731737 3.86538462441494
Pd 7.680824794316407 10.0969613223349 6.277356655135463
Pd 9.120927994362964 8.981638444463055 4.277633578444265
