33
Energy = -137.38215206 eV
Pd 3.0849072452453234 7.396150138307353 8.985629042091732
Pd 4.812812452961508 5.717833741939506 4.176620898383746
Pd 6.487333523718346 10.303160386428317 6.890241746631397
Pd 7.333949003545673 6.050069934842368 8.97190305777321
Pd 7.957376436939735 7.873068912806669 6.990627360074265
Pd 11.10226979104656 5.887618624777799 6.9484591348752565
Pd 9.806826530606838 6.885710065592189 8.939122669043526
Pd 6.089401624711569 4.491552293003612 10.58305996635191
Pd 8.294856389863028 7.5353660075212865 10.98236748543448
Pd 5.34248083832339 8.155397490444978 7.9561953780503325
Pd 8.522174114392136 8.329073311648324 2.997415360768505
Pd 7.2728887605489785 9.244396098800165 9.30383317122969
Pd 9.910805952385411 9.344628173887445 9.72078163321962
Pd 3.544472965272586 6.712041645959254 6.4052940508587355
Pd 8.040383801177164 11.975501479589305 5.567110428631751
Pd 5.882724911989714 7.990340529569717 2.8539597653306727
Pd 6.059333540054447 5.926132169522629 6.568272872051069
Pd 7.437331005974049 6.301546935074964 4.301512608479904
Pd 6.710370853036017 3.6409333901038905 7.830688985338349
Pd 9.004266224980418 9.582460016011854 5.274176887350285
Pd 9.40524893602732 4.327788890200027 8.702405545008974
Pd 6.583841462687417 3.8516559153683954 5.09076579712196
Pd 9.857570670413235 7.13160679176807 4.9806229832560565
Pd 10.669566244774039 8.65051573263905 7.118791885212938
Pd 6.776377090904094 10.218809535504274 4.018541353734085
Pd 4.549497229314072 5.275399102284145 8.57398528795779
Pd 8.614668621866503 5.164360948534013 6.385002620093753
Pd 7.860265117507249 2.738069618044802 10.010190398227595
Pd 3.4446391742274503 7.9513297424710805 3.979918953882592
Pd 5.462854946593464 7.269685542422701 10.404122227834774
Pd 8.967369877032619 10.695581138992852 7.717352270439686
Pd 6.710325838764767 6.160081498082506 12.4466156351831
Pd 5.600577596149873 8.304421123493768 5.402729933721925
