32
Energy = -134.17108364 eV
Pd 6.151703816134315 7.120268607001588 1.358693960827543
Pd 5.845427669940007 9.35045797641684 2.799909737511556
Pd 3.7322806962747204 7.644708508182135 2.5492445029603785
Pd 7.932456049280034 7.713207676652203 3.3205070376405255
Pd 4.721447297545774 5.054610089372509 2.1737951550920673
Pd 7.337895919235684 5.111355407618969 2.6937346307039243
Pd 6.672161784820569 9.020921705627499 5.283075318499166
Pd 4.077725778164439 9.057039781501345 4.848651218567134
Pd 5.619738972475383 6.758578107123692 4.214614243696637
Pd 9.669398686431764 5.834118369946262 4.0341954709942645
Pd 3.225661309134149 5.694681385420042 4.276142462029417
Pd 8.852567269465961 7.590477246161931 5.903134452659666
Pd 7.479931408835677 5.4114505213591695 5.381403152713316
Pd 3.2325604657116123 3.516751733988175 5.600854129803805
Pd 5.613650190379182 3.74246236997913 4.259804031413152
Pd 3.7812971345837636 7.0221684441504975 6.420357757214966
Pd 5.047360292124763 9.250023916449091 7.409547898160077
Pd 7.864316943699543 9.467112626749184 7.561867442567064
Pd 5.315596311434891 1.74870718275297 5.968366874180048
Pd 5.351595681330585 4.465741501443546 6.799620921839498
Pd 2.961357004246471 5.035708881093693 7.845107914052876
Pd 9.61119112300303 5.1224522669967385 6.838473624054643
Pd 7.682940369517789 2.961426138024752 6.241260892549758
Pd 3.7173090762435934 2.456934165180519 8.062582606378315
Pd 6.377593738772322 6.971649819701695 7.245891342000358
Pd 4.491933881819678 6.9307950313724 9.037189716600961
Pd 8.605221141774633 7.0560916160539335 8.609635600331742
Pd 6.501983066621657 8.594843674593534 9.604944391689902
Pd 6.339862532282257 2.220463678910479 8.407202583404967
Pd 5.030636939105022 4.316837135276499 9.471873806176546
Pd 7.492196293977398 4.642948002116714 8.374132032763622
Pd 6.683265436347701 6.123486113139894 10.42014939936777
