39
Energy = -166.59099987 eV
Pd 7.301137401426358 9.161368823791928 5.463400044370304
Pd 5.7075713012363485 7.869210222294541 8.809682544745133
Pd 9.800997896678618 9.520070216814876 6.182994657603397
Pd 5.146796645303665 9.86825188046928 7.039067062372492
Pd 8.194836379517003 7.525431707434825 9.840596348576701
Pd 8.642869868351982 7.271883915341484 7.256799582560597
Pd 9.218675773319438 9.180419331508743 3.5719460273749397
Pd 2.9795629696767523 9.330952791644249 5.455198514562782
Pd 3.7167041553655835 6.4378352843218964 9.818312451692293
Pd 5.15433024292615 7.4471579062112605 6.058113882218012
Pd 9.977490375138311 7.06869526683817 4.897389732071597
Pd 6.576738268687328 5.618663805932093 7.578985790371786
Pd 2.3944673291129357 5.418084693979019 7.702658143944672
Pd 8.685175028716923 4.9434431861456245 9.116032709763884
Pd 3.215692492649623 7.9770566206083755 7.7295866732722684
Pd 6.907657173245049 3.064944907005897 9.193306820576371
Pd 6.282748921085706 5.609888528973259 10.217927929290353
Pd 5.198776240528371 10.125935662748189 4.265980937586974
Pd 4.552951053166781 4.18891412480614 8.761445685445029
Pd 2.9378045836404323 2.7857139964665305 7.236469776655891
Pd 7.597710650007229 9.582778826234495 8.070245570578814
Pd 10.716777651257914 6.515249435075576 9.237991216129158
Pd 5.604003769934964 2.5473630237881193 6.909796600544865
Pd 4.438659650150689 4.925335215289316 6.110611840830071
Pd 2.442957335459296 6.756863274696594 5.3444096649914625
Pd 8.048990333176912 3.600357715873493 6.802080110387192
Pd 7.306380310954858 6.425005094090782 5.090900620929962
Pd 1.7884678603911646 4.206735354046951 5.2923098946828455
Pd 10.157212211570355 9.09591026135162 8.7909391580048
Pd 6.764386233807219 8.349754536879054 3.014529674273145
Pd 4.275474307359039 7.674909390666195 3.632354393754442
Pd 10.204882987412352 5.212609069478977 6.845407579581783
Pd 3.9882066639461438 2.6176709539986507 4.718796263930593
Pd 6.104708557005529 5.762114259724741 2.869139967572263
Pd 8.669637453175866 6.542341145555945 2.6461483355197317
Pd 6.374757412206698 3.86397073429682 4.661075632615959
Pd 11.525961035617726 7.609803394758366 6.966029023198578
Pd 3.6962402351731654 5.05664664058897 3.5926753331681094
Pd 8.994889977517841 4.533947536166959 4.501952540149114
