39
Energy = -166.64396396 eV
Pd 8.71182869746953 2.548215740803976 4.691192281972551
Pd 9.901667081050201 4.068647563049289 6.621370549927815
Pd 9.960630883616023 4.896074382577169 4.043416243401325
Pd 7.65500493791304 4.076575085692201 2.854459610057217
Pd 9.712926722343239 6.373988770743479 7.865531652162066
Pd 8.958970858046962 3.9219155161979966 9.118909247498491
Pd 7.54874029787143 2.858443744480656 7.048180015228716
Pd 8.269461538494502 6.745980412198843 2.961592479956214
Pd 9.353465916566371 7.141113315222795 5.358429561954747
Pd 6.363368416332749 5.801825240065589 1.2193075789018692
Pd 5.953798676098262 2.851769556542223 4.641663480348225
Pd 7.745675212324502 5.111673210957406 5.557450252539088
Pd 7.2257069949851225 5.551395403849945 8.18772411314619
Pd 8.22150084751704 7.435133516571037 9.802823814512006
Pd 5.914676841994212 5.921974005975131 3.917265002270738
Pd 7.9443272901219775 8.397678705517142 7.266771256496052
Pd 3.7224478312361264 4.463089143297291 4.119507855058895
Pd 6.103618286690447 8.20383427204778 2.2132855912865614
Pd 7.144060414965125 8.532248309785015 4.67082801696807
Pd 5.143518300736432 3.662310335172729 2.1439184239191795
Pd 3.82936977808328 6.67432777626534 2.42264685570019
Pd 4.655837720214965 9.253067875973107 4.057143050340808
Pd 6.161599661839343 5.831629540579382 10.572457114179082
Pd 5.230465872057475 1.7132097466757792 7.187031030242299
Pd 5.936311476709897 6.960858221462339 6.42201915026794
Pd 5.202082749949123 4.411025272468035 6.568229037148817
Pd 3.7546206752144244 7.085497577923104 5.1072932667253985
Pd 5.4512313571778455 9.53262641805135 6.657714730691336
Pd 5.936697074379227 3.453436779414688 9.172477746512904
Pd 3.1770400559233685 2.640698833041866 5.825604337622182
Pd 5.738342852849357 7.995756822408013 8.933139649158425
Pd 1.5365895886681764 5.8960906787615395 4.039835388234894
Pd 2.0947592067642713 8.492242300363626 3.5525102170054876
Pd 2.826664649332599 9.792400404934687 5.851778925100919
Pd 4.318719556003086 5.702297928915277 8.673399361317523
Pd 3.345096616435586 3.262629731692009 8.412963936699253
Pd 2.5610569406366333 5.222882349510893 6.584765225122488
Pd 3.4182072176498046 7.905368244104816 7.607656017965975
Pd 1.2381918779289938 7.6099866693756 6.087825649730837
