38
Energy = -160.48235583 eV
Pd 4.953734060027222 4.1901267937032225 8.583914996428836
Pd 6.034009131645428 2.2525333656131634 1.4494635220415728
Pd 7.169385059871071 4.848663649366604 1.542062363643229
Pd 3.3041222654606672 2.357090570594547 1.3717534519201116
Pd 5.062901065716274 6.650396995847716 1.2317887687070939
Pd 2.622274778752107 5.033151350430598 1.0288058043290793
Pd 4.706147151867318 4.315009562359417 2.5441230573551845
Pd 7.659278844044544 7.42141961224315 2.3523116796720633
Pd 2.579275442459289 7.644384997055578 1.3176428180614765
Pd 0.762523801865416 3.0918123885656863 1.9047829935399976
Pd 6.889494039141574 3.3132174375651084 3.7998944944754602
Pd 4.570507350926237 2.0564099005242475 3.850486694593537
Pd 8.632260597685564 5.405347910582281 3.9635212038503047
Pd 5.997844790235291 6.049702500503653 3.7945071134357673
Pd 2.4134545727082246 3.987401913594003 3.600977427422398
Pd 3.324323939250154 6.60133648839775 3.550152698256327
Pd 2.0404898097663033 1.2430594457966386 3.674402353972531
Pd 5.305311976185973 8.516498130738952 3.301674659709944
Pd 0.8350712463174336 5.947123026199498 2.857084366113149
Pd 4.2098993533638795 4.711290619538222 5.486181156643185
Pd 0.26424140757609454 4.310111951100098 4.961371619461361
Pd 7.3850649834586255 7.727133326194902 5.199725693633634
Pd 2.011946800463256 6.074704571586635 5.871808778893587
Pd 4.636623379739189 7.443590351566536 5.715850769803366
Pd 2.5755142226259613 2.7043428719750104 5.7878589766542605
Pd 8.76658092982003 3.265505626194209 5.701733818078561
Pd 6.719043374316826 4.923143853624571 5.971252846037746
Pd 4.052571279972711 0.29207430801018947 5.669020338631257
Pd 5.971169968906396 2.335295038124949 6.1914488302557995
Pd 8.943611875349697 5.9898545130559535 6.667873785771633
Pd 0.330574752856318 2.8561140536782603 7.159435605504873
Pd 5.066619107968957 4.196074455220415 8.033592375826068
Pd 3.764699314840597 6.518857975186794 7.96916041790206
Pd 2.3982603528628608 4.284896226295426 7.858733213588576
Pd 6.424286085132046 6.799440397224888 7.667878917516772
Pd 7.704790768538896 3.8544508643200617 8.102991102481782
Pd 3.84261182921914 1.8196216852530995 7.851518973881993
Pd 1.5947656356290179 0.49409661873425886 6.617868126245106
