32
Energy = -131.67354199 eV
Pd 9.047726825147963 4.726782559128773 3.1811026267797837
Pd 10.00037763412478 4.680649115044401 5.573402215549752
Pd 6.741130346589896 5.796468206336823 3.1243593081540513
Pd 7.644122436820469 5.98476454869469 5.629755355233878
Pd 9.319875185838395 7.167953897668945 4.023510018589455
Pd 4.6003691437859064 7.316388782655372 2.857066528844332
Pd 10.906928138066665 4.847544249667556 8.115307468406728
Pd 4.955890828629908 5.872008037868892 5.021382554897504
Pd 8.407794739800378 4.320270272373565 7.706929637732725
Pd 6.757504351875997 8.20800607255507 4.110729633718963
Pd 5.933168913616614 5.032528610517202 7.3660001540689946
Pd 10.299246928140052 6.9919331778097655 6.759779517277063
Pd 7.01924902094743 4.8746943658172945 9.89731735910858
Pd 8.41310973413056 8.67301854886659 6.012716530502602
Pd 3.100639306701732 6.990565429627761 6.353301797717856
Pd 4.733477155167681 3.7175953940507096 9.320687809355789
Pd 5.649851752646975 7.714444174198442 6.845812962506306
Pd 4.23482191608827 8.905519046582183 4.925825052973019
Pd 4.831234535559484 5.656510838682218 11.154106513343477
Pd 8.131267904980731 6.903457640486054 8.167555654043133
Pd 9.82670787516939 9.110623949884648 8.169517928636685
Pd 3.909560442054829 6.110137355212785 8.614970958650453
Pd 6.322107849386315 10.314725188331975 5.7122002793990765
Pd 5.9637133866137155 7.446483736579335 9.547453108952725
Pd 7.136821688260571 6.943648657046719 11.848271812462716
Pd 9.28869113737709 6.151834655592501 10.367588386902911
Pd 8.853110111400564 11.182423518083901 6.623169229372014
Pd 6.910504031402971 9.537484950544792 8.230115739590781
Pd 10.55569018690102 9.962480722295728 10.513610770292605
Pd 8.339599439381537 8.659566554489714 10.36479552932283
Pd 8.625480905695381 11.226447883823834 9.328745346322037
Pd 6.680529682461519 12.11334339424564 7.673215746055974
