38
Energy = -161.42261484 eV
Pd 4.710890614562446 7.331127182146504 11.77043510028161
Pd 6.173538532359882 9.282984407633842 10.755076936487349
Pd 7.106360487003697 6.786345261834319 10.766196728919185
Pd 9.323594540727719 3.60959116657418 8.896187691021078
Pd 8.314042764215621 8.827794166528172 9.12530252029178
Pd 9.197874823713374 6.318996795755408 9.220645860191597
Pd 10.180512117446401 8.043910076588046 7.270748027828443
Pd 4.568065569861728 5.761649653155338 9.66942592689987
Pd 10.462846589785755 5.166472755751369 7.109236645039265
Pd 3.9065332008779703 8.46232082854515 9.522861619961082
Pd 6.034715859981837 10.182193175879153 8.264878096839045
Pd 6.9837474467642595 4.805024136116411 9.022329022396383
Pd 6.136213682848338 7.516455636015876 8.380806566679103
Pd 7.779488467333249 9.231112159348333 6.552453755554997
Pd 11.471717544804212 6.775396213777017 5.316575170683929
Pd 8.101924510392724 3.7987312780679634 6.520924327183861
Pd 8.087881295269867 6.507568000316131 6.8165777207790805
Pd 4.592075990838932 3.4718951077435762 8.504112369407089
Pd 9.220525580045912 7.945270614474396 4.691955107814183
Pd 6.940437311510001 2.2636809577341332 8.296383988451817
Pd 5.304207449778212 8.486944949913623 6.001266937259408
Pd 3.496430009697122 6.8290248248921355 7.452577789520729
Pd 3.5544275232151574 9.846870078465034 7.382828990174263
Pd 9.341245069940953 5.234983852499127 4.663346811157776
Pd 6.99898509238897 9.310353090356273 3.9817908572432152
Pd 5.681296258943036 5.339713564441577 6.705301894619558
Pd 6.675098515556635 6.772607575717051 4.548952396223653
Pd 8.892057239305924 8.613069618141154 2.2160571718078295
Pd 5.582719016370051 2.7857649598222145 6.041382826781445
Pd 6.919168994706996 4.202988859989773 4.165162448308184
Pd 4.489520667786681 8.301672333664394 3.399097216549046
Pd 2.6790959103646843 8.374385950835846 5.374910371159523
Pd 3.929796263249351 6.147218122848892 4.81765555056489
Pd 3.183220424002102 4.259459128301495 6.444570931375225
Pd 6.391815599856121 8.003659032292378 1.6382816144948857
Pd 8.07860070253986 6.074677096444406 2.4917881936293353
Pd 4.281069286166836 3.733955944393893 3.9516418027719795
Pd 5.301631362680423 5.733604523765021 2.477172087501256
