37
Energy = -156.50877746 eV
Pd 7.458657978338669 3.279436758670729 2.975367252928038
Pd 4.864867217987653 3.7069355671598845 3.582582285050971
Pd 8.849787026490418 5.393348732414205 2.2063412299734257
Pd 6.0207634956564196 1.4600758327935623 4.417753187281208
Pd 6.182899082929226 5.408696434627296 1.8175337768782582
Pd 8.608030413595676 2.010240571332113 5.075022768138304
Pd 9.019719932101383 4.649541923823986 4.734945698658416
Pd 3.556562335155505 5.20709027330269 5.3723631689530515
Pd 7.767321860153294 7.736799448313428 1.9298661886800397
Pd 6.624688183641705 3.9118589767618395 5.514055759648906
Pd 9.10214933009561 7.27111577128603 4.2354532840146115
Pd 5.182656407417424 7.990187863244813 2.1070407216726155
Pd 3.728170799099471 5.912595435556117 2.8290805866722373
Pd 6.7946168928169985 1.5253225491891111 7.007354291568804
Pd 4.41547060288874 2.79265559488308 6.245800369210821
Pd 8.510846697689152 3.660835441884473 7.249186453756786
Pd 6.6205540320509755 6.239086178834017 4.191194449783898
Pd 9.364577308503666 6.2472485243432505 6.792994262435283
Pd 4.454042660890325 7.710226962775977 4.651936727229139
Pd 6.737288673398023 9.084927266005472 4.016326373204611
Pd 5.958952744611116 3.6257366966054057 8.370567680772218
Pd 7.419236782789122 7.883546748012444 6.21737711532038
Pd 5.673945334659301 5.917973373510781 6.817087284023442
Pd 7.629843893448047 5.68375333116614 8.700869119333804
Pd 3.4895503085842288 4.707589543147788 7.979090798072995
Pd 8.71811389778107 8.076459979171068 8.66666470435089
Pd 3.42016689265816 7.27715509819408 7.0153578766810085
Pd 5.20879655593605 9.571140931037212 6.289032891526034
Pd 7.570680512655121 10.222628705960027 7.477907498584209
Pd 5.925095070819566 8.0995563691517 8.372947137118594
Pd 5.147510771609406 5.8363807749907455 9.664306670547576
Pd 7.038949326171612 7.252723476891981 10.778415269886917
Pd 2.829779827492904 7.0216765860801065 9.588512486866149
Pd 7.291487228204581 9.816892505014662 10.142272427720595
Pd 3.28197997836807 9.387614063252427 8.393852092012002
Pd 5.338021056582411 10.901529053661363 8.726049969907885
Pd 4.739956781434121 8.716937747521877 10.57687653117929
