33
Energy = -138.56558664 eV
Pd 4.850105515374407 5.3981892528238635 3.0304251917481295
Pd 2.315534357395531 6.314442857202726 3.0089604215449546
Pd 4.257042141077079 7.979494556166547 2.474383758939009
Pd 7.4406104773278745 4.830116425094224 3.5008191383916922
Pd 6.805193740239698 7.398698939232093 2.872266215373342
Pd 10.056757696912014 4.532027879397731 4.131545767762421
Pd 9.333909692018727 6.941162765794446 3.342878799195996
Pd 5.65720251609918 3.9979096852657814 5.2841251996283205
Pd 3.207585454249583 5.147510670443548 5.189945180748898
Pd 8.211217192012793 3.5104307508895785 5.8282988922857815
Pd 3.205636091000011 7.856196362617867 5.00701187192332
Pd 5.635415199628584 6.73282581785731 5.157902286685574
Pd 5.461236424825271 9.269869519118355 4.383269727877366
Pd 8.22430761474568 6.1298915683611135 5.646909657480602
Pd 8.115323190174834 8.712123997163465 4.916669105745393
Pd 3.9082001980856274 3.9184930998630128 7.350510547230357
Pd 10.425733739700094 5.044977776125696 6.700131708817445
Pd 8.623003026726213 4.259130206453817 8.417036127672775
Pd 6.81189197606821 8.014960532465237 7.184820288322946
Pd 6.781589713078571 10.707660413129942 6.082635511513413
Pd 6.380151928774082 2.779855444700609 7.655375427537561
Pd 6.409215901961926 5.406574211350899 7.521940788508222
Pd 4.721369034643143 5.225192278289884 9.594137915393347
Pd 4.524274197384924 9.215633957010617 6.934581029252012
Pd 3.9615078487179427 6.643230106331439 7.356023830707368
Pd 4.477985581333806 2.559316858717781 9.527880568889199
Pd 7.977116305590655 8.601435174547788 9.811427242158107
Pd 8.86727543432466 9.60673913706298 7.4318638207622785
Pd 9.128189540254265 6.9401838564701945 8.05676163672095
Pd 7.287939439226123 6.10767460069201 9.940084235136354
Pd 6.808546360543854 3.561557076565368 10.212442086838193
Pd 6.367652963517361 10.34285883423704 8.659239749539044
Pd 5.315763901269828 7.858530736625657 9.304520050558157
