33
Energy = -137.76978696 eV
Pd 5.049732893540927 6.804688647673019 1.639792116654778
Pd 7.796491895680695 6.690332786324658 1.7902224761899843
Pd 4.977529922400309 3.0681317014314726 9.614720527717783
Pd 9.551920215570687 5.539311981209302 8.567766298507292
Pd 3.1629137809317736 6.437393938683158 5.950319097851675
Pd 3.872065562189077 8.057672654327058 3.718948492293738
Pd 5.029387241325633 10.424838398457148 4.207909744332332
Pd 5.238933355059301 5.672767509151756 10.189280126551132
Pd 5.503776457250022 8.275391622777049 10.468213132970345
Pd 6.29839031766695 5.061968990300343 3.2468739788625336
Pd 5.563799822142857 11.093289908621756 6.800499860735285
Pd 6.450115442387583 8.554153819518035 3.0507830649236287
Pd 5.640945916193516 6.722538826216249 5.223942936568584
Pd 8.143627029424596 7.033775429683752 4.482844446821061
Pd 3.66845396232852 2.4980420367560505 7.180862380472338
Pd 6.858295397705393 9.058488653870812 5.650863485168051
Pd 7.080900667204483 5.4695780675106525 7.0628688838577975
Pd 3.9740497019564494 9.028256034169162 6.196945724920637
Pd 7.385080343632107 4.213098712341526 9.466456820278218
Pd 4.288540291485716 9.828304660767913 8.716770119967927
Pd 9.00555085235267 4.828198625093723 3.325451378279388
Pd 4.775257273589983 4.138285031114151 5.353028204429217
Pd 11.241108381986813 3.9782036018391693 7.357003521647129
Pd 3.6284255276802035 5.457654949404463 3.4145114921947664
Pd 9.62475950279841 5.3356502044207685 5.854497292723435
Pd 4.42398487005449 4.947527871270739 7.838427002882531
Pd 8.642926551883274 7.627332918572389 7.03350387259318
Pd 6.243907467495587 2.8625716499175695 7.293051219220935
Pd 6.919107151013344 9.29249391306693 8.312997963357413
Pd 5.17334603619786 7.405132291640367 7.849716402663565
Pd 8.810422880112426 3.136005904719258 7.465743456000274
Pd 7.5017102861246014 3.6766394352291036 5.158536737875617
Pd 7.481777567684833 6.91631677865439 9.378436415942662
