31
Energy = -128.97288818 eV
Pd 4.736612865400501 9.24680545928918 6.929985151959496
Pd 4.523924929096495 4.972911450121229 5.29143155325565
Pd 7.252104768164564 9.766309652155456 6.534815785659835
Pd 6.3789470181354195 4.448706116713777 3.454303528093376
Pd 9.856299285511868 9.422780103162404 6.810281326984037
Pd 4.309855417433031 8.329034860229656 9.481443105025352
Pd 8.583062992924397 8.479888769471566 4.660701089430897
Pd 8.080707324815439 6.127478765513303 9.718317312172456
Pd 2.4289391711244015 8.206034879537466 7.597771762024431
Pd 6.642827258044205 8.106323656881992 10.796482462959501
Pd 6.542178881538758 7.583953280366714 7.986497646443314
Pd 9.229476430378122 4.499060742580682 7.873784929135963
Pd 8.998955654473715 6.9364053877024245 6.967280287910999
Pd 5.689876972020144 2.6179151001276137 5.272858605749774
Pd 7.321398264858753 6.908830145120047 2.932528033072967
Pd 6.596247246322628 4.928040517700308 7.791861391103306
Pd 3.5352457378099427 7.479019626022571 5.319628454682203
Pd 8.741282209570274 4.7246640777829425 2.4804759578618256
Pd 4.671895332593169 6.573169287948151 3.1795724127249207
Pd 6.704615885983726 6.483316947264845 5.520688528543077
Pd 9.429896967190697 5.972859664775538 4.605163514450825
Pd 5.865958504466321 8.667366356421061 4.500901314014566
Pd 10.532173941404535 6.67944784511835 9.023983909863478
Pd 7.162765759255019 2.4328292754598535 7.497259828945461
Pd 4.189737664874864 6.266426922039785 7.604562686622849
Pd 5.407349326726919 5.868821101173027 9.943126311453263
Pd 6.279731140808293 10.093840632354453 9.028902505601923
Pd 8.72049537396034 8.70332978933777 9.1333615540766
Pd 4.489438534634257 3.4812394290656212 7.488840309122718
Pd 7.926743395622373 4.111035694626819 5.551599517943542
Pd 8.539466798577013 11.206047131550854 8.370779090448346
