33
Energy = -135.33242228 eV
Pd 6.740773333783669 6.182784938990814 3.325606448169939
Pd 7.4142807895933585 6.49051758168331 10.028493847153058
Pd 3.524474811724733 8.377558212344955 7.496829261348997
Pd 6.216354052996462 4.529114419100741 8.477107382319769
Pd 10.506307920538667 6.892384748629706 7.249614669800095
Pd 10.901473027815545 7.151933549391729 4.714377751143044
Pd 4.270859690708563 5.935770362076625 7.187385759336301
Pd 6.412095990124293 4.619030807674938 5.508310664288216
Pd 9.960503722349314 9.276179626485913 6.196716122405863
Pd 10.144835861933903 4.358547636099198 6.749179746997549
Pd 8.27276936657963 8.055367575750424 4.4705410643298915
Pd 5.995051570152263 7.778379533201986 8.167859303189271
Pd 4.2227732273037315 8.881527302670179 10.08027746800623
Pd 8.775377774641166 5.447849702549543 4.750555259285155
Pd 3.7082777771678592 10.62503221635696 6.194563418825838
Pd 10.406193794207416 9.431681275725605 3.583650371605449
Pd 8.879810593628687 4.468787826121282 9.020205270298954
Pd 5.909821125784777 7.303056950768533 5.550341044421404
Pd 2.9093959565382166 10.678052078427347 8.700393390273208
Pd 6.084770707622268 11.508884941139772 5.739508665256315
Pd 5.501924901748556 10.47824446415781 8.201306683334868
Pd 5.932504813211524 1.9304731931606551 8.118321205508344
Pd 8.79292472051419 8.520867761615323 8.515416109987436
Pd 4.662465371039382 6.207915732863665 9.814093058429583
Pd 8.332278064241702 10.739539737195694 4.567376422602312
Pd 11.337902834199367 4.639652541523214 4.536860731874395
Pd 6.9282423319095425 9.27225378339363 10.151227815988268
Pd 7.91805954509466 6.247171150059348 7.155158016528946
Pd 10.088444359505612 6.626922699287823 9.795951749269308
Pd 7.308322574641218 9.437477978355574 6.625777326345175
Pd 5.7134422719320055 7.546327227587301 11.812887353345342
Pd 4.43484919169207 3.4317427418447006 6.653878256778764
Pd 7.915752025062096 3.0522838037526108 6.983542461538556
