37
Energy = -157.01863522 eV
Pd 6.32084561453727 10.114085928480273 5.821450223787921
Pd 3.868334301384033 9.958529270726876 4.5066654563669575
Pd 8.491198813331811 9.238715159110075 7.195448572924961
Pd 5.890543035530499 8.7367295140816 3.4437314654736846
Pd 10.64184207914719 8.049066082966318 8.232371545025815
Pd 6.102176115698468 8.713999859183748 8.260923247508256
Pd 8.070481767715826 8.259328208418594 4.813060401518416
Pd 10.046401908087061 6.933523526984063 5.964380630153587
Pd 8.26692687848586 7.723982848930044 9.447532501621522
Pd 3.4844807385802414 7.746190511468067 2.973412465374299
Pd 7.978921951495731 7.764865466581719 2.2222680174912797
Pd 9.29829712260213 6.016095575089227 3.637617667668745
Pd 5.3401714545844445 7.679156575413194 5.820689609092401
Pd 3.918729710182614 9.7791085631303 7.157593758433369
Pd 9.806759482691081 5.383782310446617 8.123854929113117
Pd 7.6353691496674605 6.62260921899366 7.101003989481515
Pd 10.429216869051348 6.520839133174879 10.41647914750913
Pd 5.844681711108926 6.254443124040875 2.324525237543178
Pd 6.813541866407212 5.745964691163105 4.669276318788921
Pd 2.696236482025891 7.802456344208745 5.64386044878533
Pd 8.94006349165928 4.405271500831792 5.786597645116133
Pd 3.447832139154734 5.2802303300278055 1.9205059057144362
Pd 3.810226543500217 7.293432838023563 8.101559492318803
Pd 7.8496963658176275 3.76093398706821 3.344691425783456
Pd 5.9780975666629494 6.257855104089177 9.315569166122868
Pd 3.921644786408567 5.704622161721097 4.494361464958699
Pd 8.205671318315094 5.141510214258906 10.28894720324664
Pd 5.227552089602584 5.155192171117348 6.898511508765482
Pd 5.181154282435451 3.7143294716787385 3.245895364916545
Pd 7.480133162988153 3.9630828409546623 7.972969294671212
Pd 6.574831286841887 3.0959641549178087 5.566753375438596
Pd 2.4918689749900964 5.3538768077953325 6.767051481784901
Pd 3.7362611033815463 4.768579191814023 9.06355472198658
Pd 3.8692934118115594 3.233620858738463 5.499215194138943
Pd 5.9700903114481445 3.710132578421916 10.13101665014309
Pd 5.135749669260817 2.649939754047203 7.815716776011228
Pd 2.4829522528992523 2.857476834382125 7.693635085583858
