34
Energy = -142.65681538 eV
Pd 10.109412332845215 5.660454207185516 5.314008339205489
Pd 10.467525083010518 4.523898837186428 7.636812385254645
Pd 9.556773748408677 6.682530246545173 2.9586370196556873
Pd 8.730486652127565 7.998552540959061 5.132404497112387
Pd 9.167320637873926 6.962758975466784 7.566196554264979
Pd 8.758375438030988 3.203764936838244 5.9934293399881025
Pd 8.340338293052248 4.366479452124761 3.604927436924262
Pd 8.190520639723635 9.021826917427596 2.6886370177351626
Pd 9.589582648547708 5.757821461185429 9.834788641554677
Pd 6.174753512276036 3.226586926814204 6.618372357579561
Pd 7.5204206281716335 5.577202339639734 5.820375776685943
Pd 7.914876697810491 4.325665516618821 8.298984693288707
Pd 6.927545505592173 6.682795162607696 3.236333453611384
Pd 7.497982949809386 9.07954934882706 7.271102277955697
Pd 6.9054588638459515 10.039746635062466 4.76267447855801
Pd 6.587133967581978 6.744728745228221 8.114996411107521
Pd 7.077476602068794 5.722171532966988 10.467068554954771
Pd 5.9611037168172585 7.7180156008469325 5.536412254614242
Pd 5.523407557693918 8.965523385635624 2.793886141778554
Pd 5.2909772433295945 4.443273496995902 8.923169964125595
Pd 4.72310477512198 6.910479710911455 9.987844230396371
Pd 4.762308677393575 5.505601877958286 6.335799506257868
Pd 5.688194014728459 4.448643180214119 4.0455179321863035
Pd 4.33012951567469 2.3439477275353955 4.9425333698452505
Pd 4.333822154441582 8.234555568285135 7.577275999371066
Pd 3.4914440789619197 3.3557282760392444 7.278997853359575
Pd 3.0389846160887317 5.909363329260721 8.295752759207495
Pd 5.319423274622549 10.564693923673683 6.789472828527225
Pd 3.905782183474417 9.211665544949161 4.953532944378101
Pd 2.6309922789218345 7.040671526056628 5.795375635104365
Pd 4.289461803184022 6.778716453500746 3.6558508030456744
Pd 1.3575468810259759 4.859736167435424 6.588269238766306
Pd 3.0143514122653006 4.6203808820851755 4.499790942445476
Pd 1.7558497692279944 2.4628967079774413 5.4497505786311775
