39
Energy = -166.74251483 eV
Pd 4.480431582635652 2.486842721613236 8.896839735272811
Pd 2.7030738605546003 2.726400597877915 6.901660605272832
Pd 5.657230728454296 4.697832289460913 9.70947781477151
Pd 5.377480937511781 2.720487982982601 6.428065881934557
Pd 8.169408453176445 4.264163686247265 10.388275128746868
Pd 7.1243625826289465 2.639362101330183 8.484269214225643
Pd 3.601600267580959 4.9213186438328185 8.078376667381379
Pd 1.500154528384474 5.102055719960625 6.383068361320393
Pd 4.916605310800396 7.1225584302014315 8.729801697396217
Pd 6.22783602613861 5.127490875665247 7.178327605547179
Pd 8.787225155003183 4.628577478515737 7.887184255855248
Pd 9.96362669929265 6.202665334001339 9.766245423413315
Pd 3.8511548071616892 4.594363998815682 5.35057944677189
Pd 7.395520505914222 6.682906974932945 9.473479370685864
Pd 6.013255044499673 3.7827902079702493 4.088899582852378
Pd 2.827091155442012 7.280919447740648 7.060937029711935
Pd 6.517714871357196 9.226671707581517 9.007896473327333
Pd 7.947503246316116 3.1111441140566534 5.898113689276096
Pd 2.3088103945022285 6.639603033034346 4.382832733612231
Pd 7.247547456909664 5.926985531559524 4.928703231605393
Pd 4.3887737355024035 5.640938367822032 2.96710253952651
Pd 4.867226078218806 7.035501503285793 5.336687341894585
Pd 8.62692924119983 3.8488519671750274 3.3952557095903737
Pd 9.6688468853904 5.123237007771857 5.430637187628074
Pd 4.654010634105116 9.201689884390714 7.111231649679655
Pd 2.829598384849487 9.170662708241688 5.152900414279053
Pd 7.085759771706766 7.719430365019716 6.918207545135506
Pd 9.622726215275994 6.9950686090303265 7.2525200433277695
Pd 9.197192202755195 8.68624037753948 9.23468670390415
Pd 6.778497484502551 5.1300085186789754 1.9132167232551678
Pd 8.352148581006068 11.031604320725698 8.466321381291461
Pd 3.7345607620862484 8.224562059972612 2.814428275603718
Pd 6.277418771072927 7.540840755501202 2.8171530696143336
Pd 8.772955465077505 6.569333355599123 2.9647963874286827
Pd 6.90672280495487 10.402308845878029 6.370130346676775
Pd 5.429751240669014 9.481092349118185 4.435501879056049
Pd 10.337548753394055 7.657201871976903 4.840084943727085
Pd 9.455578886861383 9.551075533925673 6.590353130936966
Pd 7.9535706103197015 8.662660844179197 4.523200901677068
