33
Energy = -138.93263889 eV
Pd 8.543457089625695 7.184748578981017 4.660332150452891
Pd 7.126136170574617 5.931938696551633 2.8524189586148125
Pd 5.8668306643428805 8.414720486019622 4.06373347238795
Pd 9.399054701792416 4.770877320840044 4.027294807893641
Pd 4.657273638954752 6.832703480770926 2.1409294652395023
Pd 5.577777450715371 10.188878147463383 6.090809981896247
Pd 10.52072642496681 6.064572161082684 6.088984580773126
Pd 7.988098288609011 9.711490602967844 5.060477086238615
Pd 5.128736906508866 4.2111752352232426 2.280731792660099
Pd 7.214983187339632 3.296731603064236 3.6534346720112842
Pd 9.452914609421608 8.376060175060541 6.93972254222259
Pd 3.1009811929402837 7.7728392381349405 4.0991008580734185
Pd 6.814310463555058 7.655515514981 6.684339479426682
Pd 5.15132938198005 6.007368251584582 4.640445257533076
Pd 7.688264638658003 10.262154764901158 7.671561940301084
Pd 9.291618425995853 3.707334764756006 6.718642538877446
Pd 8.106803262710764 8.239738129714095 9.289114839838406
Pd 5.483384066098678 8.86558783539411 8.618150357720868
Pd 4.1569040203393355 8.081457553367004 6.4572725443293395
Pd 7.323959687133022 4.994418590630558 5.675848822115554
Pd 8.575723927454204 5.984725356636946 7.901183455363045
Pd 2.899344993610359 5.065696321040436 3.5385539673312145
Pd 4.83936749240714 3.390666838017811 4.781041579171667
Pd 5.132375086529014 5.386824412617975 7.17092196833166
Pd 6.3162564778282455 6.388419778660337 9.368984220761595
Pd 2.7452192853579005 5.959792325648904 6.0995236740707455
Pd 6.9579237912476986 2.397151589486345 6.173726509911086
Pd 3.6348340343965067 6.814578707404101 8.793599126169827
Pd 7.013262341374053 3.885039668270606 8.39683969051313
Pd 2.403779720672529 3.3904631727282553 5.669904130386456
Pd 4.675411860982445 4.376909274559171 9.725125394921566
Pd 2.512789621278337 4.38920219157816 8.172949575772984
Pd 4.581330424114937 2.8732244350952003 7.383822833717091
