34
Energy = -143.25550176 eV
Pd 8.84494193842082 9.905001310673113 6.223498187960437
Pd 7.359585333260599 8.74372359292368 8.253980704449312
Pd 11.00127172647721 8.551390307232554 5.359552476039214
Pd 7.1944215857863 10.402134501075965 4.129337786468758
Pd 5.580009118313619 7.442253100749885 9.693986751517732
Pd 9.292868310767401 4.693745324177084 6.7899959138006745
Pd 4.649468598428387 8.680246176816501 7.4399401435535415
Pd 7.603576457596158 6.075869051548675 8.425590081633581
Pd 6.729125937129351 8.049679791023074 5.803060895231517
Pd 8.770686866339672 8.255438369402048 4.039882530295307
Pd 6.299864182832857 10.698169594826489 6.6571391623314256
Pd 5.861702962280202 4.710352925275213 9.9730077033307
Pd 3.7997200160536404 6.01110828865273 11.021192739332934
Pd 9.182399953048312 7.3329691555592245 6.806058795703398
Pd 5.081589745496068 5.896300897917254 7.5577167128941
Pd 10.158137132623098 6.081824957016891 4.673137079921264
Pd 2.9719863614955986 7.16913365164907 8.777895114485265
Pd 7.8797750447766335 3.4631590694571512 8.755034825645273
Pd 7.496189485902327 2.8648344211171333 6.171340248387164
Pd 4.693586343072206 9.622950180083098 4.820257634585217
Pd 9.138395236119509 3.6804749194665276 4.233875492882894
Pd 5.431096707928632 3.2343822210224755 7.771062312602824
Pd 2.491436798479943 5.559681493934417 6.741606903102153
Pd 6.973127890865681 5.444964219612954 5.657726970336469
Pd 3.2969528967862347 4.394096683261413 9.039608687913619
Pd 4.235118736739092 7.011320577729087 5.301453722674106
Pd 6.316216805614582 8.05819971024119 3.198508689629196
Pd 5.151410144107712 1.8362603718668027 5.510221695741974
Pd 3.702453554178888 7.988283871587072 2.931619456131634
Pd 7.860826221578988 5.818292301420752 3.235905525073273
Pd 2.967853623468957 2.866664375811948 6.904860855437126
Pd 5.16296779759856 5.7116862446801315 3.1499844659262344
Pd 4.426821154922036 4.355390683750189 5.303349185051962
Pd 6.480579761367077 3.4775759384214107 3.744162418018023
