33
Energy = -138.42373129 eV
Pd 6.50751663501765 4.975480285585447 2.331561891745955
Pd 8.612294898481688 4.353697013500035 3.862335825721553
Pd 8.178486957085443 6.951153281497425 3.069687105353921
Pd 10.026138324730393 6.38576712245007 5.06620079875056
Pd 10.109794837114265 3.897650847053873 6.016258419899142
Pd 9.655288129536551 8.818579518747939 4.144217838882481
Pd 5.590523792058663 7.10590513797409 3.5366235483336417
Pd 6.3160725277547245 3.002085518019007 4.046350507192033
Pd 4.276991245538058 4.734302648367073 3.8819066515378022
Pd 7.539014260383892 3.499502268811515 6.302321003063821
Pd 8.514772040422214 3.5533037422932554 8.729014927331887
Pd 7.312600620818306 6.044211065272476 5.4847246981170175
Pd 9.047239674674689 5.776548845294876 7.516495254085792
Pd 9.541804402434911 7.761080506886026 9.182085633294022
Pd 7.098339664781156 8.698470294905173 5.017470325321974
Pd 9.153438721865275 8.39941507033141 6.681938475385989
Pd 4.9251747462536315 3.5662594974841824 6.2640866104533846
Pd 4.800068110211463 6.195330415474534 6.07563898669853
Pd 2.989281994101415 7.102685274676379 3.7160085716615514
Pd 8.024136440570116 9.910762168773891 8.617552069332131
Pd 1.7081255717232426 4.931879289339497 4.392679302962616
Pd 6.183208798140851 4.845622945653908 8.1914051092675
Pd 6.896440450006899 7.541508651785445 7.835768846888005
Pd 4.36290958464547 8.693819092021275 5.309951423378481
Pd 7.866960520634305 5.820305769454563 9.97085626243239
Pd 2.456766910123802 4.0609158052648615 6.690526095477283
Pd 7.479176580952218 8.321897157372325 10.747169928493378
Pd 3.6328343978684488 5.564432133072054 8.448610692858708
Pd 5.922963690959832 9.891436983556055 7.0238985633133915
Pd 2.2834414742575313 6.780389730961798 6.310081442345054
Pd 5.366204737173495 6.9033899300747015 9.893828531029635
Pd 4.0328012792814745 8.138449877143199 7.903807144653354
Pd 5.485941442071893 9.608203592531753 9.605506381372187
