37
Energy = -156.84383544 eV
Pd 3.1737374940480367 6.7046613399077595 8.826096626171273
Pd 6.92282387834727 3.721736469072253 9.308614428584207
Pd 5.6900657552764935 4.918046138476161 4.840033322797755
Pd 4.220691469750999 6.36909804781046 3.1822861268508964
Pd 9.817294746178879 4.327940276710667 3.6026172202253886
Pd 4.3344174214884 4.53307086101518 9.953421124043452
Pd 8.219398256769084 8.615333683375797 4.073899222702193
Pd 5.904706992144043 7.649576125589196 4.769962946871838
Pd 2.340043910435226 8.724176777833456 7.237653176499023
Pd 5.559524852945331 5.041399169448446 7.603747835958416
Pd 7.175878140801818 6.960461514668929 6.953190621260849
Pd 4.179576241107027 9.546135178756064 5.48954818466267
Pd 4.358852185426205 2.922922679005025 5.725277558170688
Pd 11.081341172780789 4.490384795021708 6.005243599693448
Pd 8.19206494879764 6.025783572995554 9.23411683533344
Pd 6.806771221492986 9.743093785073656 6.330975466619671
Pd 2.7239704788472214 4.879060810388279 4.869779880503853
Pd 6.276440481562878 7.923369798655527 2.189290808107293
Pd 6.919113922625659 2.8957490017273932 6.63946656842979
Pd 6.083653934938573 10.254824733447032 3.7667466872860813
Pd 4.781826489511061 2.439431802303412 8.346626460352464
Pd 8.293872821306753 5.021778538885326 5.803154905475468
Pd 7.677543335849323 5.985341233751768 3.4155892721910757
Pd 9.35860561328291 2.4802404874944455 5.596202041226696
Pd 4.966686562308351 8.518430456583179 7.8170615630383065
Pd 10.10552410744643 6.425346901265203 7.5415066164797695
Pd 4.059936380645784 6.611531527244032 6.264554680517337
Pd 7.36361908879044 3.1827061498152305 3.92929862347475
Pd 9.17174831780981 8.605829410781743 6.5567330374173975
Pd 7.4883069533121445 8.709973563110909 8.830685394316745
Pd 2.3099296606901794 7.678521009199615 4.669305826779766
Pd 1.3351763192669786 6.289431073261607 6.801767412288178
Pd 9.986306520681268 6.75184510727704 4.8322994641906725
Pd 5.731311942140604 6.786975591802488 9.653060195768397
Pd 3.8750677860060203 8.978930614977527 2.90534124794288
Pd 2.9538560815952675 4.283809251736466 7.539476579868499
Pd 9.236839858473946 3.898701297334341 7.9647238736077375
