39
Energy = -165.96087072 eV
Pd 5.99552629381874 6.083242808838447 2.4716414107861646
Pd 3.538152884912923 9.471172369994237 4.460426373763018
Pd 7.855120726108244 5.16038274173506 0.812767022888165
Pd 4.112937683324168 6.9047300621533365 4.112016567407841
Pd 3.8250934935022882 8.831321221848818 7.089257846561181
Pd 7.6406954507151905 7.809430143733452 1.3225306151515748
Pd 0.476789324369571 5.757309720941972 6.64775638488755
Pd 2.770702282430809 5.029643500349364 5.511778954218177
Pd 5.1246624933739495 4.471175684109707 4.446163075814772
Pd 5.6004286787837145 8.706261126443781 2.799795349487339
Pd 7.30400924573336 3.7984131891916375 3.0386525964513273
Pd 5.932657911670565 8.832502454198565 5.428067645945616
Pd 1.9805115703966845 7.6400622466245345 5.579404475909524
Pd 6.9681977953211955 6.335183185905109 4.970827834763433
Pd 8.871754787516403 6.102732372320682 3.0512352371251157
Pd 4.781881836322733 6.379329812046407 6.653211846018128
Pd 2.510462871127535 6.658492093260578 8.085155408982137
Pd 2.0809492753832863 3.9976457596849118 7.8445719462434855
Pd 8.110017790802265 8.578065262930766 3.8301863699836227
Pd 8.40658544263555 9.359933632385 6.328402459805227
Pd 8.876055882578333 4.407104477104302 5.090833230579138
Pd 6.776408666921069 2.5657041078523957 5.369735497939878
Pd 6.765099613445328 4.57109119791929 7.0817259970101425
Pd 4.358752446418164 4.8394374376703615 8.872443366011032
Pd 6.177558379702369 9.608721627432724 8.006972728986366
Pd 4.840765230804823 7.544674976356678 9.190986052236802
Pd 9.538857465791564 7.023869642579823 5.517448183828706
Pd 4.4229602329963145 3.267729405265743 6.738086006265671
Pd 8.841670811810781 2.6345423270346835 7.090286904385065
Pd 7.291566087609538 7.237648454628978 7.527739360783169
Pd 6.3985988005518 2.188656346756583 8.136642861982116
Pd 8.654031778098831 10.175637397292235 8.846833382239465
Pd 6.6520517988483325 5.6462502419654435 9.609193889593604
Pd 9.326194396812028 5.294334878236825 7.545453175456557
Pd 7.3670082392286 8.177178153727343 10.027873172179364
Pd 8.291537944797703 3.669863222902536 9.464164960543052
Pd 9.825756909530023 7.872307197107952 8.093738691364537
Pd 9.208045887102475 6.12730163939925 10.09091449680756
Pd 9.90631536973561 8.625589753355184 10.635913677399145
