38
Energy = -161.35301396 eV
Pd 6.477699414448975 11.969186632586249 5.420672270254724
Pd 5.154507225974828 10.290357943114973 7.021036476159723
Pd 4.107038908422348 8.17779676568804 8.270167686180349
Pd 6.730782425171883 8.501221934256929 8.397162604783006
Pd 3.0905263435343264 6.091511505823261 9.549539273970598
Pd 7.918292696600498 10.140460952098275 6.602386812304341
Pd 5.759848037186014 6.2222056152041425 9.600290358647944
Pd 2.3454537668715316 6.426782782257148 6.92326729918865
Pd 8.37840993377571 6.92283310959697 9.74665017157205
Pd 3.4182225962591732 8.490181517418234 5.679926946478274
Pd 4.5581286495193 10.532876481255142 4.397470327569081
Pd 9.412149990868562 8.447549771363864 7.850905114846659
Pd 7.144067799822059 9.752181399540145 4.041809073819803
Pd 6.015964556270165 8.084275334028861 5.8052142063805405
Pd 4.932582081926747 5.970934635495153 7.094085656331134
Pd 1.7642331455813016 4.233296677555639 8.26459879381448
Pd 10.135579022277463 5.53476803846433 11.23078727551007
Pd 7.629316006900862 4.724882222213553 10.933948536703774
Pd 4.339641129309778 3.875969260988041 8.581383273496733
Pd 3.8089136918808357 6.066267204717326 4.606020194484825
Pd 4.972971841554847 8.11478236692714 3.3757716374523397
Pd 3.159828123576513 3.9019556587497606 6.062683847807179
Pd 7.6012695453245005 6.172102408823826 7.272858241016657
Pd 6.927974089951577 3.9027474449015034 8.585737327605825
Pd 8.665180377262487 7.87670507653219 5.338520850976508
Pd 9.485981673255083 4.515575733692384 8.820739339308746
Pd 6.541397838360072 5.659938989954776 4.804432027405241
Pd 5.837075670031074 3.475880704299768 6.266846622062305
Pd 11.005842003376012 6.724223623974247 9.057546701022154
Pd 7.530363684617061 7.329620914143932 2.9849116153514768
Pd 4.57522898441169 3.5889199857571317 3.9286294616334736
Pd 5.405728018047841 5.669838389240272 2.3984623884809904
Pd 10.19764862902623 6.01209106289955 6.644136327289226
Pd 8.513142363540315 3.835852916473754 6.401378451051176
Pd 9.12212466345646 5.432749931159604 4.301793431184992
Pd 7.373626356187832 3.279356438733326 4.019961353226311
Pd 7.969705457585223 4.902355523526317 1.9528747807303293
Pd 6.008464955022089 3.146464341855735 1.7702802569949796
