37
Energy = -156.83644491 eV
Pd 5.479407742949212 5.59717429762207 10.480681572419757
Pd 4.547864311866606 4.8942728204142 8.201852647070014
Pd 3.302389150187306 3.8704861995492257 6.1447004191175205
Pd 4.705309580265459 2.1655643752269906 4.594541101327219
Pd 5.914965819226116 3.129548794459619 6.753955875303491
Pd 7.214571258995049 4.268151464730321 8.815456536761618
Pd 7.281498473191771 1.5351673633475325 5.129387358572389
Pd 8.07777620272847 6.074173317088857 10.593638988388326
Pd 4.335841412644756 7.578949852170725 8.90261918354491
Pd 2.965453880317053 6.549244143296409 6.840018676648441
Pd 6.315360222874106 8.1073439132905 10.640012572103583
Pd 1.7840072893549752 5.524823937016874 4.679801707627916
Pd 8.584176948080247 2.6263020627506 7.239276655988002
Pd 6.714177965780559 6.760082180885781 8.03210325565003
Pd 5.306640726490941 5.644755364042472 5.722455259389216
Pd 4.049599221085351 4.583802354298439 3.6227626964164323
Pd 2.8173895423796727 9.20409586638305 7.382943069562499
Pd 1.4879879583920834 8.129429432676346 5.293783253958023
Pd 3.4874780320990717 9.835588467703209 4.773425964308967
Pd 8.748047112406589 8.454198119765344 9.64795689253729
Pd 7.910405015616593 4.98971011054825 6.20928593791511
Pd 6.65256310090103 3.87313906932994 3.9946709295105096
Pd 3.714849295112821 7.249460325622147 4.079420441981566
Pd 5.0509796533004625 8.390182185701908 6.305610091031515
Pd 9.338728785414355 6.1843000117808495 8.238795051284127
Pd 9.263269742375241 3.2890482772308642 4.634173764758109
Pd 6.514617581023606 9.375352101702132 8.296565850972542
Pd 7.320011305739601 7.400249942955363 5.219138698008492
Pd 6.012447330699899 6.31274682720703 3.0632428282083835
Pd 10.532119957719788 4.368745932157986 6.729101720525293
Pd 8.819909535749511 8.604384589201397 7.092091711018843
Pd 8.633510285871736 5.620183475328332 3.566668666835274
Pd 5.73357894030952 8.971414352061524 3.647425191441852
Pd 9.98628203757563 6.682155007078846 5.594759230960965
Pd 7.04314455606708 10.074958776899901 5.72247357171231
Pd 8.019254224248696 8.026969767519054 2.571264799037107
Pd 9.356912454957556 9.097133985024435 4.5707424115238995
