30
Energy = -124.99506208 eV
Pd 5.394247012177045 6.05877327025374 1.5021296935647106
Pd 7.045014875792617 3.9348396177852867 1.6303609911662116
Pd 6.004735506281699 1.5436380324274226 2.273439278494977
Pd 7.288347666299896 7.663627127616962 2.7509086493331827
Pd 4.636371773326017 3.7437245910969628 2.719478497625526
Pd 4.580211848887984 8.178426984949635 2.992912141691195
Pd 3.2443879903187414 5.914847212408922 3.156867050031903
Pd 6.1068056065473675 8.680168637341596 4.99267430730697
Pd 5.928274127211117 5.8266926328651 4.052138340733276
Pd 8.418295181346345 5.258202675340339 3.4317572072355653
Pd 4.6811702539232165 1.7645662882447628 4.544738513412622
Pd 2.709718139760133 3.6411112373831678 4.568036604109678
Pd 8.43393291605471 7.234464446790153 5.222393869693552
Pd 6.91492210229962 3.1140590315299383 4.218853431669684
Pd 1.4368163622410486 5.943926718906274 5.02519721604213
Pd 3.3172462975564225 2.057111943575726 6.7251455129587905
Pd 7.910025825155204 4.634896014963655 6.0285761444985155
Pd 3.801379388029339 7.017243881645449 5.533823715979032
Pd 4.791683917468322 4.431278802829004 5.950996276459774
Pd 6.2305346037622416 2.5093069436491904 6.814792370564927
Pd 6.248211825332877 6.602006742286183 6.610701695788555
Pd 7.575024313252162 8.919502488013881 7.23124782070318
Pd 8.708142002666982 6.501983053363805 7.851430261460802
Pd 2.399711500363705 4.647021219948297 7.111128244734992
Pd 4.826961072691964 8.761092794922153 7.370647298877752
Pd 6.703104676836901 4.729707511454882 8.418263129136331
Pd 4.378966060985761 3.555239616136911 8.60999994489556
Pd 4.18681300678561 6.183623116422899 8.248688895650364
Pd 6.5379516783615665 7.344122144500064 9.206907119686994
Pd 4.201247092610181 8.24504984567495 9.846020400820416
