30
Energy = -125.33456244 eV
Pd 2.7824872848256326 5.575994573104576 3.7054190289761433
Pd 3.0269001500432635 6.740988786462018 6.125923569837889
Pd 3.248031225373265 8.17348169797496 3.776002540471851
Pd 4.02949029697545 4.080628502152296 5.522603680696727
Pd 4.8146522502517115 4.102173345422414 2.839507541025673
Pd 4.507669218732239 9.007966692402162 5.853603165878668
Pd 5.353442529549735 6.260758200989963 5.043888252832014
Pd 3.9284117868313824 7.968073845530498 8.288024061055092
Pd 4.7010394681393874 6.654969516422112 2.1596815375442113
Pd 5.561263128543977 10.164949511035786 7.945109744814548
Pd 4.697880923917559 5.412526795810684 7.79839321721287
Pd 5.782991121277903 2.9920625256688997 7.198541450358399
Pd 6.026401394711363 8.381517971722277 3.7111137207866434
Pd 6.537268649483983 3.5625157003084205 4.6643836110326
Pd 4.962369222951837 9.270599913647834 10.364992601549027
Pd 5.822006780287312 6.805160023737202 9.85404161296063
Pd 7.041707161662292 5.7471868082768784 3.113994429870514
Pd 7.409642460607486 8.989689534867637 9.446688674845431
Pd 6.428002708536486 7.627461531448942 7.315754407517173
Pd 8.955456463795263 4.757110097342163 4.649103282805748
Pd 6.733854949593764 4.38139783545946 9.322501455771167
Pd 7.334466901313066 5.157767948642902 6.789133778647793
Pd 7.110203795227121 9.715181506671458 5.746123922814061
Pd 8.342942166375623 2.645676853589757 6.321391844324746
Pd 8.116747704443444 7.2929070864106675 5.060988120964493
Pd 8.398617875375034 6.526030537219245 9.05472674091763
Pd 8.980645533404836 8.570253125697086 7.33446025890084
Pd 9.875831375224767 6.156549539273553 6.800574688315814
Pd 10.771063800486486 3.715231089941715 6.297172861057541
Pd 9.216907134754685 4.0508855990656585 8.401869848259533
