31
Energy = -129.84707037 eV
Pd 8.363782046965714 8.16884695523724 9.065177657534438
Pd 6.7654861173484155 7.889714809459892 11.151059845973906
Pd 8.839847530913742 5.989741417015347 7.641854130950051
Pd 7.56334225848043 10.307934899622573 7.608417390420347
Pd 5.744362976400157 8.876293000781883 8.883321317633087
Pd 7.592012950395884 5.6998425259802055 9.949238936176338
Pd 9.320654113441329 8.534668766721055 6.57572035241748
Pd 10.439955599005577 6.3314022815170725 5.556834017537647
Pd 4.967368641172003 6.498144857593991 9.89239547902099
Pd 9.489098211728443 3.8531734149017356 6.2354542228552585
Pd 6.870639382904841 7.540464716696999 6.799102594445552
Pd 8.077393114535624 3.5154467647026943 8.469421552162204
Pd 5.220604107336279 9.519129588797174 6.280119099028269
Pd 4.204009146627834 7.237826785658143 7.420252010338626
Pd 7.627772398272197 9.94347883016698 5.022287129697053
Pd 6.002888233643812 5.0316469938183745 7.898303819928577
Pd 3.37001434822901 4.934197922714934 8.508353561809457
Pd 7.917123464031846 5.640740056762842 4.992075134246916
Pd 8.921638784940182 7.8548694430661765 3.9503043706357945
Pd 6.240370530917973 7.9118114691244275 4.189732440777334
Pd 6.910475904666293 3.3210937139589416 6.011831044475266
Pd 5.236217936424004 5.643307301302406 5.379224670927651
Pd 3.6497384273209046 7.830877755948895 4.868041047839762
Pd 4.25559257519591 3.385644622307485 6.560198286479324
Pd 2.5974235064066082 5.545178662443954 6.039085457893197
Pd 7.351980829013578 6.257787466030008 2.417861532397968
Pd 6.319081051937913 4.055435889712454 3.4573214042157816
Pd 3.619709032660114 3.9935621074422856 3.9459704361990995
Pd 5.162052118511601 1.9708032520261525 4.538980905187267
Pd 4.710452762890673 6.251673928404895 2.7696701410905384
Pd 2.171576909148117 6.109141140540235 3.503971102521483
