36
Energy = -152.28984898 eV
Pd 3.769642991568683 8.369468104480756 4.07904074494217
Pd 8.903192180942053 7.495648838178702 3.210633717593252
Pd 6.189321615899292 8.993445010346019 10.13966876460853
Pd 4.7647304396695205 10.185299517270147 8.236485612870503
Pd 5.1259297557570305 7.491887444419245 8.195785001323097
Pd 9.847007951727777 8.758567250272078 7.466350312838996
Pd 6.384417312836905 3.6369817760401326 10.284522315577771
Pd 9.83153024276633 6.82130232794976 5.58536048551098
Pd 2.9616278369439515 6.1304324171786755 7.1692831097003635
Pd 4.915157504068366 5.757724829541922 2.862777554169187
Pd 7.527533551746941 2.5471721405392054 7.86962793975868
Pd 7.462236804316093 5.682358560427116 4.510797028600462
Pd 7.922582041480939 5.094130051231765 8.845803432529264
Pd 8.374559998952483 7.669316480177588 9.428215592257457
Pd 8.18951227529335 9.025791061236907 5.345389249120525
Pd 4.895070012461606 2.255046098455897 8.606227316682705
Pd 7.557551906917152 2.9192640250772 4.983632758865258
Pd 7.3585211260824455 9.595425209518696 7.8391929419858934
Pd 6.17890573656968 4.5093846253437775 6.80454828181778
Pd 6.213303710084299 6.371265237662146 10.417993545548736
Pd 2.8753174314740515 5.270652666161673 4.615727371121236
Pd 4.672722369476961 8.051611508903825 1.5796142711613577
Pd 5.596824570322536 9.165486548371222 5.899855752560663
Pd 4.618686570658435 4.929820672494636 8.840179061145621
Pd 7.481989036687642 6.982720709899366 6.918266030602488
Pd 5.521389047670434 1.6953290949923903 6.141726222676282
Pd 4.997933005398393 6.532692108936949 5.554089285496708
Pd 3.1342682117482044 8.697647189425131 6.626358057117769
Pd 5.092830408721085 3.7187604818358584 4.427110804766743
Pd 7.057872903261951 6.546333402873191 1.5300824586526145
Pd 6.973793874329562 4.047298374399962 2.5548379616335293
Pd 6.391279438295294 8.092146106575138 3.622432689506197
Pd 10.194755595129283 6.212192247395007 8.148410634916164
Pd 2.491907661436549 6.764001007384399 2.494060259147217
Pd 8.988002021368693 4.4840612735776535 6.497517698733501
Pd 3.6422386717035633 3.6310573262866015 6.625737083142797
