35
Energy = -147.80651635 eV
Pd 6.450781284445688 3.5102346014446413 1.6335589966330684
Pd 7.756058127673336 5.789358822157351 1.525098100841244
Pd 8.519934794565888 3.9861680975782394 3.3980177962272555
Pd 5.089502071818769 5.740497123016521 1.4532148654278578
Pd 8.782455817221454 6.850332138917525 3.664546682256259
Pd 6.373125630501939 7.667739648370752 2.875765913087236
Pd 6.380632993676631 2.1564846343280646 3.807219918260375
Pd 4.241637619922141 3.782627617882937 3.2760925931209814
Pd 6.3342748896098415 5.151119031416707 4.1033100584740785
Pd 8.05663678464882 2.7688456628465707 5.7313378861308735
Pd 4.062898339545806 6.507174884250993 3.6991553957360135
Pd 7.215281216208821 6.947515146540733 5.817373885074418
Pd 9.864656831337484 7.795409015613851 5.902962068988746
Pd 7.723255730548033 9.25443892142308 4.76860288179927
Pd 5.280708476817265 3.273181172780763 5.868840265392067
Pd 9.304545125062797 5.152967637252205 5.688816665962451
Pd 5.123570695764977 8.508573202222811 5.0445893793983965
Pd 7.14803556830002 4.678793365448335 7.210134418640045
Pd 6.045666283428597 10.313620656525108 6.705551662034252
Pd 2.7256336215625225 4.798496877688945 5.30262016028121
Pd 9.056628405396863 6.356356248531947 8.040383759624051
Pd 8.040966430450588 8.880806625136312 7.584285784119874
Pd 6.256703531352566 7.0251363466311405 8.277164468522944
Pd 2.6166446917286503 7.613366331388154 5.552898013420943
Pd 4.756621746538761 5.93448183177034 6.413009731911858
Pd 3.4575942422757295 3.7708972159730236 7.6973371125548065
Pd 5.819040864181661 3.1414849509427456 8.745936007193658
Pd 4.201312974597146 8.556854714638282 7.497240494167334
Pd 7.403701405827781 5.193544649332382 9.896210402848583
Pd 5.945385031563874 9.368645465557208 9.35828134230692
Pd 2.5915135539029563 6.324460939545917 7.872717616594371
Pd 8.22867463719094 7.8127424004546375 10.078375552683834
Pd 3.575888411577325 7.785372201512877 9.90796928209415
Pd 4.629960868412895 5.381548042366366 9.43243048606656
Pd 5.86529227691546 7.130239588051967 11.02807741298708
