38
Energy = -161.27375156 eV
Pd 3.06532152264966 7.85382045032321 9.95746924960431
Pd 5.54140708326929 8.085542861903592 9.220479344693791
Pd 3.7405199450413615 7.498461224231768 7.347752447426411
Pd 5.759399922452953 9.292737353075236 6.972031293471855
Pd 3.827007211893191 8.993060599556557 5.131743601036361
Pd 5.051544105005045 6.4383709973475485 11.172172412117607
Pd 7.950051443167445 9.286946943781894 8.94037629978617
Pd 3.570996390661422 5.418435945523826 9.236682084452157
Pd 4.08576465803664 10.199152322559186 2.812629186449435
Pd 5.9774725466370695 10.599478812246145 4.672880472078564
Pd 2.3305065427800034 6.816659354367266 5.180552074064232
Pd 7.608987369643541 7.325912265329868 7.296561931052414
Pd 7.5424138935369065 6.802637296425739 10.190135474339657
Pd 7.891576749331205 10.768569370707663 6.618508138485849
Pd 3.2634591345510766 4.865736962858263 6.625625146832929
Pd 5.609574744017811 6.977620859629479 5.32092399840423
Pd 3.518206534819999 7.548304724815672 2.8850306150876674
Pd 6.255661524709692 4.361982836174232 9.95967174610174
Pd 4.453229849371072 3.1319664379315735 8.267319753646754
Pd 5.710006514957839 5.556674704429601 7.723715050701096
Pd 9.744891296558327 8.776568105559397 6.78281868472756
Pd 9.87216408252418 7.27156459313129 9.050085258014395
Pd 8.521041820596054 4.9973364856453255 8.575945366038615
Pd 6.019400626710502 8.466074368992276 3.0466421416506972
Pd 7.526665895421588 5.084263205546684 5.889501409692118
Pd 7.877145335392807 8.754254261888981 4.918482755017165
Pd 4.189913918878144 5.228798154880161 4.114023165075896
Pd 7.0469326380938515 2.9372457418540177 7.775174800798733
Pd 5.610479455230499 6.081644294361738 2.0189921590896893
Pd 7.72637755391701 6.5241853037292215 3.499986480242707
Pd 10.059186330427059 7.325413487623878 4.366063736179115
Pd 5.3555688514241195 3.461571489397185 5.740669019059655
Pd 9.986430214179729 6.094473457094528 6.635003990868285
Pd 9.47750402710994 4.641494513201898 4.266774150485794
Pd 6.589063135900052 4.0902897067959945 3.479462243315519
Pd 9.704166646557097 3.4963592817506246 6.74329205928279
Pd 8.754267107401025 1.1191592631036023 7.106055510124384
Pd 7.809057413905262 2.450595998985332 5.082130787263953
