39
Energy = -165.75513941 eV
Pd 6.849733269474851 2.936011015401395 3.563633932025329
Pd 9.207297917775616 3.894241175862711 2.5992806570280793
Pd 6.972114531415427 1.4762731905831254 5.870644733769469
Pd 9.166989821219637 2.9742816233171703 5.043195755046895
Pd 9.842384888690011 5.806038111340519 4.304279059233399
Pd 7.3402787149806 5.480282940001626 3.58004931440951
Pd 4.7636018022671065 4.803954251286734 3.1904158529686497
Pd 9.520975224623703 4.9453483860340475 6.798047595296368
Pd 7.059273756759039 4.313679240414552 6.0650869407677295
Pd 5.977639466217918 2.875910827716547 7.956569967619343
Pd 4.847251500861377 3.0161162089832922 5.320644848990611
Pd 8.640468476012872 2.6031884932219778 7.671188657769436
Pd 2.6466624980641993 4.505330922521106 4.9979252074684375
Pd 10.825149241252902 8.281866190747358 4.0149342423116
Pd 8.274615819480404 8.005574518162511 3.4808937073239767
Pd 11.029656953471928 7.066148510196342 6.326197095026889
Pd 5.666231525713835 7.45058281625142 3.6141284790477375
Pd 7.461083529340765 6.98811469138763 5.909668359138809
Pd 4.970112790510815 5.843941807734307 5.580864664781706
Pd 6.409449972380223 9.739357805811332 2.5853606564888514
Pd 7.7552922400452715 4.879679739564822 8.861338137677594
Pd 3.8105700922958103 4.325843079163359 7.48895072882878
Pd 9.054128296268628 7.17644003629191 8.119756401211074
Pd 9.191139209029256 8.984180351923078 5.994472297760838
Pd 3.095731330566462 7.005809607224951 4.035654120308078
Pd 5.787673433341524 6.390010753929338 7.990405674410339
Pd 2.534914788474806 6.569402705364291 6.670955505032377
Pd 6.736781817350187 9.62806607413399 5.16897338461464
Pd 5.215470769965089 4.569453592360069 9.823823598085347
Pd 4.723591104209624 8.406853387936795 6.445789780325023
Pd 4.182808648653862 9.57614569492795 4.085322423779737
Pd 7.206894535371765 7.316289767403501 9.97481122147559
Pd 7.1064406209914575 8.990236469996887 7.71004696854339
Pd 3.334382731453872 6.356468257612461 9.185936631351597
Pd 2.10838492182221 8.97454111053766 5.588487880619308
Pd 5.017419981815039 8.727937311414795 9.227102928995029
Pd 4.973962695801357 6.807811771989994 11.229556545450839
Pd 2.589126977854785 8.734950750765336 8.164321996279838
Pd 2.8942085551317684 8.472137616025902 10.761804056840667
