31
Energy = -130.04650666 eV
Pd 8.39333553791104 9.454644998884675 6.818708515968428
Pd 10.127740681030838 7.8252041061253355 5.59691612342404
Pd 8.736127151427938 8.489387480517156 9.353233726476004
Pd 5.859081912418957 9.635797583947621 5.807132497177125
Pd 7.5869655867011225 7.977293466784024 4.682092746819984
Pd 10.21818792349747 6.742761882189882 8.006459203216828
Pd 6.329982218668524 9.079508107609646 8.470147710061394
Pd 4.97822353980754 7.532636725788263 4.174288735914869
Pd 6.706166282510229 6.112435194960477 2.710598858256874
Pd 9.318007002720087 6.444598883859338 3.419283458504615
Pd 3.2563040526665774 9.084442329016873 5.368122438818162
Pd 7.681752561269149 6.949084872707306 7.2752958652146695
Pd 9.39254159734396 5.286733832615458 5.820318639035047
Pd 4.004484816761301 10.0593830182945 7.740202478178123
Pd 6.519195832121953 7.5794307038677875 10.64028260352949
Pd 6.682941285602354 5.556553964255168 5.275155783563849
Pd 5.96813559127505 3.4881992835236266 2.510460600163379
Pd 8.21291868091269 4.040879492198035 3.738328084327074
Pd 4.964530417452446 7.365432357569279 6.927152568453942
Pd 8.213404627039841 5.787962684098954 9.597800027089534
Pd 2.1798203592171115 8.142499234654604 7.616683974558918
Pd 4.102449182555735 7.943603737305804 9.482275652952183
Pd 9.761357017100877 4.100104239063232 8.163370041814883
Pd 7.181366139755062 4.1982969880397265 7.56286451763336
Pd 4.434850967679258 4.884439955674144 4.060643014506498
Pd 8.749455697077815 2.7269451369055306 6.018541506806062
Pd 2.909692694023083 6.342511828268317 5.666484819337041
Pd 6.174079047262382 2.9694258460075225 5.193029453962295
Pd 5.583430479239439 5.737799881007983 8.976334591072108
Pd 4.633652032755542 4.510712366696439 6.774530529940389
Pd 2.9581507827618316 5.737840331375984 8.35373743984932
