36
Energy = -151.33472129 eV
Pd 6.349849421642902 7.5761389564813415 5.003850741173351
Pd 2.1240282948456692 7.783162435650068 3.657683575409569
Pd 10.008649373602836 3.3009279207293396 5.655664885058857
Pd 5.894559206897739 5.891437923262862 11.781253117096377
Pd 3.9197413207069167 6.862659186746489 10.051148578270626
Pd 2.5261620032201613 5.768454980175132 5.339545152189898
Pd 7.54027569278011 5.837326105572677 6.6742677087608016
Pd 7.469460016359708 3.6297549501107707 5.196583231008856
Pd 8.58477581833216 3.757194268158176 7.9233612640718984
Pd 5.190497667932009 4.653943802322294 9.570233972174556
Pd 3.531549168015592 4.541415061417148 7.495290126097862
Pd 8.213760702875248 10.010316493755775 5.6101655061763145
Pd 6.819784820112233 10.116553171536045 3.3728572610438468
Pd 10.374307435921194 5.468113687902553 7.070747259975864
Pd 8.196759857023006 9.285051905653999 10.065720212210023
Pd 4.433276725323695 9.042835876089725 3.458680632059806
Pd 6.803625417077441 5.442387798533509 3.4693587915965596
Pd 8.462095322220168 7.043317158954165 11.439142586293718
Pd 9.482697099996617 7.701510020478169 6.184178002457605
Pd 5.968734434972389 3.554480174136092 7.36234012987668
Pd 5.525323565300007 9.946687856976732 5.8166942218217095
Pd 8.943014138892877 6.927198770780092 8.772273128969033
Pd 7.790336922576336 4.854708578663949 10.166238934438693
Pd 8.72022023877149 6.361457046588845 1.9334518725641527
Pd 6.861034634608992 2.541001045561115 9.551401619220357
Pd 9.32034672029074 5.642132376397941 4.505505989488334
Pd 3.7493756918720673 7.990573469067608 5.775296881406186
Pd 8.584823731077254 8.188965247497341 3.7261799298445832
Pd 9.53952024197358 9.646442903986445 7.861086702313714
Pd 5.187258834375776 6.645229056774414 7.535960232458379
Pd 2.526434962735464 6.9458249861781525 7.821798445326961
Pd 6.37904399479294 7.6982337275403365 2.161915223975905
Pd 7.036377184983719 8.615036474381654 7.5636706194096135
Pd 5.107327451766179 4.932705114554635 5.330781667942229
Pd 6.4359287423436795 7.360663585212985 9.724384502541763
Pd 4.299161494518657 6.3362762329093405 3.2714056460132017
