33
Energy = -138.73908436 eV
Pd 3.723076189402192 6.030717588425758 3.1580289504924783
Pd 2.433375375704332 5.292263359806918 5.405953645527574
Pd 5.07525316675357 6.802552429634484 1.0335462625409813
Pd 3.3472336548997506 2.9465161092803798 6.496293042496453
Pd 4.839582533150797 4.157659952706449 4.697970561225674
Pd 2.034395979326202 4.639199179634458 8.044471359881292
Pd 6.271365495758127 5.195377280498913 2.7278828397747747
Pd 6.00155266512039 3.143021917696908 6.910248444362435
Pd 7.461534489237542 3.6601497545767034 4.642961398031219
Pd 5.58885251735801 8.013943613896862 3.3577516519589024
Pd 3.9255261685471012 7.521451592844781 5.3524868092606
Pd 2.227774108704022 7.166172444886256 7.409600739402912
Pd 4.626908042120958 5.51126363963677 7.033220088897682
Pd 6.58206790578533 6.298300975354406 5.140218837055625
Pd 4.23753738434778 3.448751978106356 8.950454216409806
Pd 7.651052907484627 7.344573042892658 1.80269227747539
Pd 8.792710451683767 5.802530595732364 3.5709729409391446
Pd 10.014767064271705 4.274759560508823 5.316355466587022
Pd 3.840347023636642 6.150631180008403 9.485867275383773
Pd 8.059318443872655 4.736254566453453 7.0361550793224374
Pd 6.338516895622778 4.99824532629402 9.047697969222659
Pd 8.146587550142762 8.422553959133865 4.21209536149566
Pd 6.073811635942678 9.064700772158066 5.790294737018181
Pd 4.546628119750727 8.182602969877012 7.872003309173103
Pd 9.42028246285746 6.862208913734777 5.957323471529499
Pd 7.169428177678461 7.274756474824195 7.515366192684279
Pd 10.582579449734288 5.267042143262603 7.752814638463528
Pd 6.186377245593536 7.511492106416349 9.980437303722606
Pd 8.639535678562359 6.22398247960787 9.384414312925776
Pd 8.65074879370968 9.330736123521334 6.746183916287278
Pd 6.4566638056053485 9.858539977253791 8.33055834816407
Pd 10.459188469180981 7.867763257537882 8.166885240821696
Pd 8.520449723464687 8.908122011023991 9.576932794100406
