31
Energy = -129.90060553 eV
Pd 8.791223174079686 5.470614305317672 8.249762958650225
Pd 9.267460992764818 3.6186022274855523 6.266049867091566
Pd 6.710335156967127 2.582691721739775 7.821368309863268
Pd 6.753895978143156 4.651330243630405 9.59285779215307
Pd 9.747120062315773 7.883828670683925 7.755342888593945
Pd 7.636557265201297 7.437474665405013 9.703640427794058
Pd 9.157247304486633 6.258116603547546 5.7351166775895495
Pd 7.185066973190454 2.4158420334279076 5.089181596930731
Pd 6.900457967126488 4.749696260389622 6.483044763983943
Pd 8.229823699472368 4.648348684126362 3.8810029142729796
Pd 4.507921848859584 4.114537925660392 8.33420502910239
Pd 7.021921502762932 7.37297104027821 7.1490155039657886
Pd 8.036051902799223 9.853816583165358 7.914874435423978
Pd 5.175530653955753 6.62945845012097 8.880874096345615
Pd 4.680818193920451 2.8439216543645336 5.945255106270927
Pd 5.621137873854718 9.234587721690271 8.711087775538125
Pd 2.660979381609766 6.14746504729941 8.070233898209693
Pd 8.799378640320846 7.247149559665591 3.286360147925862
Pd 6.428009262235026 6.83879161905459 4.67252946071624
Pd 4.479508545713456 5.594953099535478 6.0841186868129595
Pd 2.346624873974011 3.9071875120672552 6.737686247915925
Pd 8.610797660757616 8.835529008934522 5.461462041740803
Pd 5.63628328396003 4.256161070965535 3.90082963607053
Pd 4.04356105452744 8.070209752217714 6.909795090383067
Pd 2.9828936112908946 4.164567686077127 4.210182364066414
Pd 6.070282073970513 9.605784770022447 6.038610859176532
Pd 6.617308816201424 6.116754734503673 2.167636804298844
Pd 2.329170124046707 6.783911747993475 5.2416394711179
Pd 6.7645954181698915 9.08749469356853 3.4542000340585512
Pd 4.2379521965086315 8.700024181537753 4.358780304310536
Pd 4.134930077623438 6.352571718887688 3.280742766953738
