35
Energy = -147.2855651 eV
Pd 7.599714822532012 4.016953006361662 5.313429157102137
Pd 3.7244373476092028 5.838775642557203 7.934227776526026
Pd 9.373728611324669 3.1244609171887876 8.742062239543987
Pd 7.573112620333032 7.9728337925915485 7.3586409031849955
Pd 9.45293606038742 8.256105682054903 3.8267404905716145
Pd 9.132365343477192 5.249401589540931 7.280425674322218
Pd 6.5539049331049055 5.606156862578973 7.871203789920958
Pd 10.43749862753525 6.281488012383501 2.5094739824477164
Pd 2.8385583360385733 8.177564472546527 7.183242241933775
Pd 7.645723279702764 6.954503473309147 9.923004563783445
Pd 9.883933718009834 8.023376680493449 8.747894469275993
Pd 4.8933847086216335 8.082867389908948 3.7295796914643105
Pd 8.130401351488267 5.12592093890085 2.9152915410093705
Pd 6.675672505856173 10.721264435979348 7.1346861666916315
Pd 10.085813202755254 5.143722702339727 4.813267830003848
Pd 5.631123567013942 5.456133153691395 3.950777524700108
Pd 4.60443811886359 9.797371881084365 5.832664916675025
Pd 7.185087585817292 7.610773556079631 2.699592887325847
Pd 4.839585778943497 3.6547348341940085 8.937429405375878
Pd 7.06346350426903 2.9522901480443147 7.58918121589216
Pd 5.195214787374817 8.872517333166966 8.377991092375693
Pd 7.733493281187005 6.611694476213257 5.143106363445853
Pd 5.760289006713241 8.466536508586541 10.873935488652975
Pd 2.5082286954270896 8.576092176578934 4.632146660257113
Pd 7.2998066182365156 4.253808875809573 10.051702185118724
Pd 9.806138566944165 5.552410291101138 9.741088499873538
Pd 5.32534133228153 7.240767773970088 6.163734552727594
Pd 7.188602706693582 9.27782450580215 4.9352264429555905
Pd 3.2280878067727823 6.078541393451814 5.212844869247153
Pd 9.219465655003523 9.898872776522417 6.794577431404316
Pd 5.035213006234532 4.2174766134462915 6.231698638630567
Pd 10.105571810685209 7.446904751155557 6.185922711681086
Pd 3.2746680837581557 7.74510955406351 9.757926013957455
Pd 7.719848372251919 9.659138440921366 9.381617612788245
Pd 5.175153545462493 5.963522688805949 10.217347041974438
