30
Energy = -123.50028889 eV
Pd 9.052652043275012 5.48405423444949 0.9445558165419013
Pd 6.655783880884859 6.612292211249828 1.2901744740692223
Pd 4.86087205732257 4.73318722835172 1.6946966747817571
Pd 8.854299349128784 8.061014662325572 1.3939418909920687
Pd 7.339914366617069 4.279408619392573 2.561167945664234
Pd 6.94984122280879 8.522690488108482 3.1713990420257767
Pd 8.655738045952178 6.354936487902573 3.426201051330206
Pd 3.1117942478612 4.854977779135435 3.6495844939426862
Pd 5.404189407622442 3.190445440441478 3.7996455494441648
Pd 5.569328287926149 6.271352433851407 3.818100218643856
Pd 3.1778570396021233 2.406491770651561 5.039479770915334
Pd 3.3622926173681855 7.019510949422255 5.371543597550937
Pd 5.387488698019568 8.859372011529146 5.207468036823362
Pd 7.880490987474162 7.608878191697274 5.463642606985301
Pd 7.335337839461017 4.7200745195322495 5.315535423865266
Pd 1.8390141310374342 4.8381557963774044 6.027112762200643
Pd 4.491741015509511 4.54982025705229 5.882623039107217
Pd 5.867474635329215 2.3737920174067106 6.2769315959626155
Pd 5.710825165622768 6.597388420187227 6.600842880672927
Pd 1.1598117352758484 2.3739247485225214 6.769575878383625
Pd 4.115919311931615 8.551493405538185 7.605803903376315
Pd 3.5720925298372674 2.7342187676967633 7.734001786940724
Pd 7.974299134610926 6.258121664171861 7.734422542299564
Pd 6.867550709529531 8.795377655753347 7.631351053754656
Pd 3.3409221862495806 6.017169524577103 8.013162223262894
Pd 7.806561289678647 3.5848412719072553 7.6914636142700585
Pd 5.432303111601088 4.404963382111491 8.373100438421497
Pd 1.6213660023639467 4.196008143955073 8.617436163546703
Pd 5.595145506365569 6.989449939412452 9.26634493057948
Pd 7.3578730827027545 5.1073676162601425 9.979470232615355
