39
Energy = -166.35621574 eV
Pd 8.441220162359501 3.5652484874245345 10.972445446835703
Pd 9.957481808676269 5.28728383774355 9.70742660883083
Pd 11.480295286893142 6.9380466929255675 8.347337141723912
Pd 9.074268382437541 7.690129318008023 9.013693723294463
Pd 7.463480644678323 6.040878637680168 10.689416677819901
Pd 8.112106660221222 10.030930691230232 8.314314347890166
Pd 6.429124134956536 8.038294446341043 9.164348768165986
Pd 9.908321936064013 5.2893942943072485 7.03559615626166
Pd 8.837222992273947 3.1722768037845674 8.368386453367668
Pd 6.338394757299313 3.4822664322386085 9.462779795317305
Pd 10.250695196812137 7.709513921150928 6.11546138806743
Pd 9.817123233534401 5.576401378713583 4.414415036791063
Pd 7.438884231007512 5.586315847036475 8.130703095857887
Pd 5.630991728387249 9.825440139368979 7.324569022705171
Pd 5.020210877271414 5.788690204282714 9.511216589364324
Pd 9.085076743865647 10.022270522554797 5.755175756050069
Pd 7.238077624054024 11.7728635511064 6.441221510594137
Pd 9.103330353532021 3.262015493966924 5.6448399695317875
Pd 7.68120981055545 7.9294114416713946 6.703520638784979
Pd 4.7762046181397455 11.577335513107766 5.4144855714016735
Pd 5.38332724025556 7.693179315126605 5.512512981889492
Pd 6.6905065178057965 3.19386721062855 6.774888219709757
Pd 3.3139997276654785 9.475612671505347 5.9806951601592475
Pd 2.6939158069755322 5.3818431694097475 8.162049327721437
Pd 6.672896145232701 9.869427508363472 4.597743052465966
Pd 4.238066639105144 3.197594622255792 7.956538592761121
Pd 7.425355031281461 5.591203547703452 5.461302547839551
Pd 4.095634463021046 7.70361125933026 7.878426702525124
Pd 8.399941582564074 7.893680028854687 4.118491138959816
Pd 5.078836698923984 5.420452048710083 6.79073295199574
Pd 7.588447865984635 5.6439872222151735 2.8059771799872233
Pd 4.250543951449776 9.73335493962535 3.493339644877677
Pd 6.955563201287557 3.322276523194903 4.083296975111416
Pd 5.902301293991301 7.716822937257666 2.9565159373993897
Pd 4.5248134660616905 3.0413266216707964 5.245441562912851
Pd 1.9015406811446418 7.317500887110452 6.402727719295071
Pd 5.117302605534939 5.30747789973835 3.9391333548021024
Pd 3.2737359156944006 7.306791932277734 4.0666207441465705
Pd 2.8527362321464684 5.055344455139867 5.478578778126908
