37
Energy = -156.54941004 eV
Pd 8.708332351762925 8.422275500374658 1.1054299427390117
Pd 9.39245532922153 7.93086818736575 3.6285419006048696
Pd 9.173493671086707 5.398665745202732 4.395005186887606
Pd 8.227246535864298 6.073490421106527 1.9815274572514756
Pd 8.392882005856066 3.5194170508124167 2.6795381323109377
Pd 9.577570551560342 4.655670168289398 7.0208697593954
Pd 9.667164881944442 7.297146435535396 6.1998072224706124
Pd 8.231053024307876 3.0609406777119434 5.287481185540235
Pd 9.7034490096126 6.7475905974878945 8.791166937857229
Pd 7.991696900480192 2.6175193366775655 7.871489515767538
Pd 7.207029794675875 9.503202135934666 2.8898381439027463
Pd 6.23763121861043 4.555495549551746 1.3673139717950105
Pd 7.6357794827031915 8.902517695279103 5.416118937828158
Pd 6.6493982049658875 7.0528886081833715 3.7753332154753085
Pd 7.982473919237952 4.8548609882017875 9.196661504403762
Pd 6.284524631567909 4.3891792869404265 4.055585424016752
Pd 7.380906073878635 5.855916797962007 6.34215090508695
Pd 7.625107383204422 8.161454837268288 7.908708943127814
Pd 7.501260153453333 7.203405494433967 10.364715745481885
Pd 6.395664996718114 4.944300353287772 11.337293481461778
Pd 5.90164465831181 3.7100587725247065 6.591245486066134
Pd 5.807041950733317 3.357428999819155 9.22573814352442
Pd 5.799049888034134 6.16924869549424 8.493725954245237
Pd 5.941777865300603 9.301625837773843 9.69905424923713
Pd 5.653507547996467 9.676538223616765 7.012154222388108
Pd 5.065240478461579 9.25286773973954 4.323642919570882
Pd 4.566713293456594 5.947505044922822 2.7639548656888353
Pd 5.136664670285006 7.201791023513262 6.0829028269783585
Pd 3.993554374713964 5.023144588555242 5.258667223365488
Pd 3.7854227030522773 4.687584464531924 7.8930936346008265
Pd 3.8968118181002254 4.579903847831263 10.534674742292019
Pd 4.764990780486083 7.082568400493959 10.705733797594899
Pd 3.9533790370342716 8.192588392861465 8.41187204445147
Pd 3.0864774150145786 7.447391185044898 4.268968186734795
Pd 3.1193306455433247 9.312095438086201 6.1540423898844665
Pd 2.4634050119554076 6.730387300206237 6.773961792611447
Pd 2.3398332009081115 6.42043163747882 9.431955467460982
