30
Energy = -124.73644163 eV
Pd 7.256005250210216 6.36753105485794 2.5006602145840175
Pd 9.109802172530385 7.460681416418327 4.1418604819263
Pd 6.862588274990828 3.7639188006853 2.5309222685853623
Pd 5.306668124916292 8.19172728102405 2.9822889131086936
Pd 8.899729752301386 4.719177579680164 4.143319717174492
Pd 7.136440296580209 9.648403275534942 4.436788702570672
Pd 4.863527966417482 5.439446216665696 3.282540376620756
Pd 7.729700701728696 2.2094203087437028 4.497205276234883
Pd 4.444024248769397 9.771708167861126 4.999367461748116
Pd 8.714995156298498 8.77540216548334 6.426792596753178
Pd 8.592119260156117 6.116612645982718 6.489588904552944
Pd 8.407734258000188 3.4652380795997924 6.649656347614224
Pd 6.6607022429707685 7.142140930140903 4.9217439938665155
Pd 3.992692712716777 7.159605535720198 5.179364311011915
Pd 6.507731920399413 4.520243926497557 5.103616616347106
Pd 6.116291501712226 8.894592240414946 6.848963143447006
Pd 3.8994690082325243 4.487948751937753 5.648027835768447
Pd 5.563570701219353 6.029007250440962 7.111021203581038
Pd 3.5222766113707578 8.760160573711811 7.315951933318697
Pd 9.748897555113093 7.483794049593641 8.48788709809593
Pd 7.794851672502735 9.35682180377573 8.865185231421036
Pd 5.796126040921677 2.5027581503848144 6.561950221516833
Pd 9.139656631188489 4.840535754583563 8.777703108664797
Pd 7.26679149929144 6.734079789618444 8.971431289029349
Pd 5.334450090269336 8.501763113847602 9.357531165834914
Pd 2.9244025183638507 6.121249551625674 7.544840910676515
Pd 6.594172848386959 4.121881589764136 8.598300619166201
Pd 2.8774858720075116 7.683379379918813 9.634977185218089
Pd 4.812385559623927 5.859042466289289 9.698281015487321
Pd 4.028186026121809 3.7752046245093767 8.19570833138714
