38
Energy = -161.42825158 eV
Pd 11.347645140853567 5.732706696576616 4.665083070283852
Pd 6.496849903005777 2.6606489554864496 8.647576874614913
Pd 7.7919172110533115 3.6225016427307124 6.4593733092101475
Pd 11.637033806376838 8.394136037441193 4.71271304407089
Pd 9.072869200734353 3.336448866036041 8.78480001866876
Pd 8.958361743608345 4.684064390705947 4.249968579264809
Pd 10.270991666078551 4.494491592892741 6.709665797752864
Pd 9.311059598853046 7.377904176788069 3.9388241800710833
Pd 10.294890157012837 7.1675853320781515 6.656139682274005
Pd 5.269363254226088 2.8428094818592933 6.279410538246011
Pd 6.535454291670651 3.7196141233851434 4.028244405540974
Pd 4.029419372123808 3.679789125743254 8.501290518062529
Pd 7.216776848284354 4.656444778165326 10.30481439883136
Pd 6.913358534724003 6.319721777080819 3.4399033205346434
Pd 6.210900273436554 5.2546848773372075 7.953521782249305
Pd 9.456004318633996 9.535322296904619 5.67509195600604
Pd 7.828296255383319 6.385075734077908 6.0228576988793385
Pd 8.851787540691785 5.950967928649209 8.534101013028305
Pd 4.02747247546489 2.8757196763265283 3.9355336221514494
Pd 5.224127722104627 5.4690760412257715 5.57963474443294
Pd 8.425096142651258 8.519670512848387 7.939447543062593
Pd 7.158921141351763 8.773726960712388 4.6235431915497855
Pd 1.9218582691880093 4.442829412251051 3.638652540844864
Pd 4.65200603490454 5.744695167626355 10.080741355331757
Pd 2.887948817871299 4.035280599952376 6.09146434368956
Pd 4.354079892222382 5.398175710963396 3.1101874392958675
Pd 5.91906543880271 8.04562433522404 6.987022942765554
Pd 6.816514841799173 7.283483660085308 9.66288019008051
Pd 7.22495599058931 10.566386415499721 6.629987915178231
Pd 3.577054890592558 6.170238961046687 7.603001977802635
Pd 4.762371677212311 7.750362369242376 4.301828685298478
Pd 6.558634518938351 9.843614512043072 9.293399463383686
Pd 4.338705672367108 8.255656625446376 9.118017315284188
Pd 2.5674657911204792 6.522948143885305 5.1069111839402375
Pd 4.990372158186575 10.215577646990447 5.186367029352471
Pd 3.3338268521295764 8.581767624734969 6.538466109423623
Pd 6.419106170880415 12.271419758143436 8.363879888541165
Pd 4.542966241123965 10.5834371990809 7.752527793889353
