35
Energy = -147.68241727 eV
Pd 10.514171651731157 7.3251405022527605 7.032968237735831
Pd 11.12738318561632 4.82437374981752 6.4465182560587
Pd 9.312528738501364 5.351062339470877 8.538509411683796
Pd 10.38743215060585 6.485402135596548 4.455919076764198
Pd 8.68199731869181 8.371923192135236 5.417701941101757
Pd 8.048307289817132 7.66735903254994 7.887270608126156
Pd 6.814383295758554 6.051255522351972 9.459150991333232
Pd 9.233113822208507 3.008119345592879 6.880904177859391
Pd 8.384325399198069 5.606069250704316 6.1121045440416815
Pd 9.665568658459824 3.819895288151246 4.394058204351191
Pd 6.028686857740603 8.664068043515556 9.354472643999879
Pd 4.373969207837746 10.240388714848123 7.779821399765879
Pd 8.826627739754887 8.026070532229518 2.8185992025190765
Pd 7.077550837307612 4.004971430253635 7.87437292020515
Pd 6.635382527228701 9.341030797854726 3.9116938509453867
Pd 6.346652979962069 7.0884229426034855 5.118288455704288
Pd 4.44857799098191 6.495713032867022 10.386910663548448
Pd 7.993156467473026 5.600788429249769 3.48333773342617
Pd 6.636861273668321 9.49881820739162 6.695165833369767
Pd 4.90609766280625 7.277425877284265 7.502936118143951
Pd 6.339651076778684 7.187808438574424 2.238237015840934
Pd 3.2651053057004873 8.6530084481149 9.569319869918303
Pd 7.11763725116732 3.2700913939348224 5.175580953489719
Pd 4.348832923825017 9.032930428870946 5.379955338245716
Pd 5.195233302646287 4.965486678644131 6.001590019636384
Pd 5.147008318827736 2.414602752106909 7.140051343096234
Pd 4.618545833880512 4.590014578443168 8.586200518469209
Pd 2.3450348632165126 8.656239785275476 7.098498264933628
Pd 2.5388357088012 6.253669367291136 8.445579948664408
Pd 4.140423176917184 7.083309706585014 3.636994094181817
Pd 5.537714077737944 4.761693234627772 3.3752770229569844
Pd 2.920497600172224 6.482192415315787 5.846674944275985
Pd 4.511868677555734 2.617917337134171 4.608393415885568
Pd 2.843431814606903 3.8555688435551807 6.638015219149336
Pd 2.9456638001800686 4.665973483714864 4.022925912249219
