37
Energy = -156.64214908 eV
Pd 8.920630276195812 6.847936735806123 2.4292299098475763
Pd 6.978896458873498 8.747835328581953 2.1401462337536765
Pd 8.807995402317214 8.961841384002161 4.079160038965971
Pd 9.876739296757655 8.53712031035556 6.542200163696219
Pd 9.393075667581101 6.503033766355114 4.974478618092368
Pd 5.897320419188806 9.921410940999637 4.2347658175921294
Pd 6.429235151803968 6.3006910447145374 3.0238369041963846
Pd 7.698753372954201 10.125231464917482 6.240954125618017
Pd 4.487247425455184 8.064694714210873 2.996132406622205
Pd 8.278678928151242 4.486529147483279 3.6561170918905077
Pd 6.8085642074335615 7.765426381080662 5.231509231345068
Pd 9.760161496110856 3.9786530349526315 5.814265811292833
Pd 9.35684777653626 6.019373436544609 7.542526819466286
Pd 5.084901801149966 10.760430157099895 6.587099030477479
Pd 7.691526572259742 7.958648867286523 7.897391036280423
Pd 3.8978256498291537 5.412682480565186 2.7425444908788186
Pd 6.658598023706686 10.257048519275527 8.654191256022274
Pd 7.141055175002948 5.343583012334005 6.074100130061788
Pd 7.501484146745773 2.651639279420605 5.487846000562392
Pd 8.145549271577444 3.703619178369391 7.932123333259393
Pd 4.115523853077284 9.734103312068347 9.106319210022976
Pd 7.756219972503669 5.863558483309775 9.679463003055806
Pd 5.6905906812983025 4.087947310718076 4.229926951781253
Pd 3.771190274913592 2.735913688404177 3.054952307085681
Pd 4.867028222658258 8.267786202596039 7.093952988546233
Pd 4.48199924297822 6.559227868482665 5.0887232083797596
Pd 6.047109078323717 8.059906903291937 9.947697317147954
Pd 5.67073431868739 6.008800861155243 8.126301837573056
Pd 4.915781665615867 1.8027031473780424 5.30895484500808
Pd 6.343848706475433 1.6901764998826507 7.636129136899559
Pd 6.050122484191959 3.5978527103851694 9.463729266851708
Pd 3.5289077788027674 7.1559834060466185 9.412456519708215
Pd 3.066791155774616 4.185006538919976 5.115061387321211
Pd 5.3331271359813135 5.692933229622207 10.920930775242635
Pd 3.116692620074191 5.882098717634851 7.12205251481457
Pd 4.843963447709426 3.7633959647731996 7.03626547391059
Pd 3.515298761934882 4.495191891608057 9.306480727361977
