33
Energy = -138.83325664 eV
Pd 3.7285624680782448 1.831412736650538 7.394353471484889
Pd 2.5675612591514865 3.9894990078236816 6.370966521125392
Pd 3.68237239332864 4.041921448858417 8.800962992272135
Pd 4.920658298785399 3.0427124538504966 5.334304684850833
Pd 3.665853618411972 6.634554143330145 9.16763894862642
Pd 2.7502515160357137 6.627264246037371 6.614958566360112
Pd 6.055578453875498 2.9705555167261126 7.997573209917209
Pd 3.8182166344706405 5.387246607699449 4.381739773507165
Pd 6.011628773594255 5.309100171850132 9.314022169756061
Pd 5.007466104462911 5.279915702728885 6.804439088050221
Pd 6.152415947531787 4.415302129886099 3.426215102795957
Pd 4.108868566219596 8.024307509193632 4.842509533475335
Pd 7.309370569444694 4.0153262640926535 5.9234183055027705
Pd 5.853797226111757 7.906838764412056 9.889380727537674
Pd 5.138416950749834 7.925354502797107 7.311687531776966
Pd 8.38497504008326 4.246013553627347 8.559664779636867
Pd 6.683624038540397 9.920915379966695 8.263189801977777
Pd 5.18190181721911 10.24292615850406 6.008945509149411
Pd 7.558489961276234 6.420979327391349 7.301923448564086
Pd 5.15500737744324 6.892042861390531 2.580833188718085
Pd 6.429134573169999 6.648773087090967 4.871976585129284
Pd 8.043444229419428 9.213872878814199 10.429298910465103
Pd 8.26359526684208 6.613362714468165 9.921244383300284
Pd 9.845810712418658 4.596310789609798 6.2840904183827355
Pd 9.00307547530051 8.553161412681913 8.082671033723482
Pd 8.650747023424364 5.328850436909714 4.0530216021278935
Pd 7.57163726795012 5.983684895653415 1.7657271111824149
Pd 10.333266104354932 6.24811797326315 8.262079250536889
Pd 7.4681711508391935 8.903760288787861 5.899650196703357
Pd 6.043903181007183 9.364571685128883 3.663941619624356
Pd 9.579906925049723 7.24095753291596 5.800658188724278
Pd 6.868059996063698 8.482735613224598 1.3485334216079348
Pd 8.368334601919065 7.952753391903268 3.504397148501003
