35
Energy = -147.27182061 eV
Pd 8.973070773824713 10.106560657892281 4.998193599413021
Pd 8.336679784038164 7.081878917368938 11.210395801393116
Pd 7.459310194617499 5.899423839507415 9.049791472954237
Pd 3.5640979416307235 8.849450030337287 8.737483509738224
Pd 7.554235475681517 6.12110244644 5.918105234184477
Pd 8.592938326738606 3.6430898939173644 5.659590288295486
Pd 8.734498140681472 7.673308733075707 3.7707807676421323
Pd 11.534787903814564 6.773611860695981 7.073717001755791
Pd 6.774483070138566 8.582752145772137 5.223670668777817
Pd 10.9849153904921 8.419518039847226 4.989329111168445
Pd 4.389412400829488 8.679001578424721 4.206399237137678
Pd 6.035008154485601 7.728908978614276 7.704457527864217
Pd 2.8644362469959064 8.091477131610782 6.343626494761204
Pd 5.8023189651079425 10.210951587103633 9.192310762735694
Pd 7.846650366580821 3.3058875561470784 8.257831486665786
Pd 6.510626957512478 11.169035826926976 4.953198040666547
Pd 8.052584814593288 8.82286769825361 9.289210923937942
Pd 5.847369130808537 7.614232804137624 10.394586768345599
Pd 5.766813280421417 4.661997606757247 7.299050363621245
Pd 3.756758234778921 6.268324360712647 8.049888839610334
Pd 9.110302313763606 8.105810868445783 6.909212033957487
Pd 11.18393189103558 3.8655043069581696 6.304461743701857
Pd 7.505866603336524 10.29521735750306 7.230659513193335
Pd 6.390445539696756 2.2671040724290474 6.311763823861153
Pd 10.112672377931279 7.175215484654796 9.2937086339959
Pd 4.191607535875344 9.466636445612126 11.174137559327239
Pd 9.516662470985919 5.229214019866306 7.696580027153158
Pd 4.8258590199983 9.902296341948944 6.6241077903434356
Pd 3.3372274652812792 6.910255903864746 10.605229071879082
Pd 4.743885093273775 6.4285198911225 5.574926218994126
Pd 6.080524529882306 4.266687016247045 4.590541679527316
Pd 8.348358046878172 5.033971514304296 3.340542102149787
Pd 5.1113676229147895 5.0025690076882885 9.85643121066824
Pd 6.257579159971276 6.684914674098398 3.395895055543414
Pd 10.17077158712397 5.866475151262317 5.041842655336141
