31
Energy = -128.05888225 eV
Pd 5.925129455357519 9.141643601547669 4.738885772201117
Pd 10.128609459171734 7.415944614497647 3.510784672174585
Pd 9.964541065935817 4.582302622293337 6.900682128302676
Pd 5.208282334208736 9.195767210006835 9.34915913110881
Pd 8.614689451370726 5.634965726015998 4.84034219214328
Pd 1.7836815021245795 8.20463107003985 6.7206052641965
Pd 6.338880265699466 6.819846552925387 5.842978587654369
Pd 6.224128521536812 6.914080215329845 8.73840125224255
Pd 2.669299853222172 9.315765449997754 8.901363554987766
Pd 8.689953223075367 2.6646454167716453 8.231175217946388
Pd 6.57424580080572 5.265752234123778 2.787996682084716
Pd 7.478156266938152 4.930506161430495 7.576356678675989
Pd 6.393977091610995 4.215864328285496 5.169218239900389
Pd 6.086352226145077 2.6875304844579455 7.413990183473089
Pd 3.837211239864163 3.2842601909199987 5.706976548527716
Pd 2.5997981289593453 4.095660589080858 8.010489389631982
Pd 2.61210739277532 5.814185323572224 6.0803327386298305
Pd 6.9383393899091095 9.228042152146449 7.33116552918446
Pd 8.67934026304216 7.1961588920731065 7.6757669222794584
Pd 4.324676280446209 5.519535140914074 4.153371920817188
Pd 4.862674299194224 5.117966591270236 7.3625840134052725
Pd 4.9208161181825645 3.1442059580617596 3.182086510835484
Pd 5.971679750527624 1.547374823517954 5.031725436928651
Pd 3.423067138847523 7.920760966634908 4.640423543720215
Pd 5.084397655356388 7.573652812602766 2.629280609926969
Pd 7.592153707042228 7.59086810276903 3.2198781135015824
Pd 10.734083142150698 6.904030415632806 6.029824625681139
Pd 3.2881591534031758 6.754174894629925 8.624097302892855
Pd 8.400947187758481 2.7273157183358014 5.6606793824475865
Pd 4.448379747954562 8.452218192785175 6.941117449328557
Pd 8.625384145926066 8.563484805871044 5.421401663711973
