39
Energy = -166.60648418 eV
Pd 8.666548300152627 4.081015089307181 5.458385507651462
Pd 6.539087750928632 8.328522426789867 4.213426563336476
Pd 2.134870333910977 7.509031062242844 5.874370377904057
Pd 8.78135071712176 11.053598571583022 7.238899022206475
Pd 8.812681092821467 6.258279946380874 9.671005787034526
Pd 4.227528088727876 4.18223621529469 5.586058527568219
Pd 2.1148763774633332 5.040901196911296 7.143975500021469
Pd 4.44437956589217 11.108748397637662 7.341566074801343
Pd 6.389509809886174 3.491968627400534 4.095825890940971
Pd 6.567995452719977 10.500628093524728 5.826481841156215
Pd 4.400875476402135 8.78522918933655 8.580196098580934
Pd 8.541608883896538 4.379476731152458 2.8163398785792944
Pd 6.60841840487512 8.111981799822608 7.009381608085904
Pd 4.296433240045122 4.088901530508059 8.291922725733782
Pd 4.256586513477696 6.82983884937777 4.250787452068398
Pd 6.642541625442645 7.904739924483991 9.826201196640785
Pd 10.920389449484464 4.822830095350292 6.868094322458443
Pd 8.79624765440073 8.960027495096737 5.573518163490411
Pd 10.986904341212401 7.035789745499868 8.336714235032339
Pd 6.573464557920979 5.657722707944439 8.24987440998752
Pd 4.347793320265634 6.540781283844186 7.002180862167859
Pd 8.81445476748011 6.47536023956838 6.8898129270637725
Pd 6.623519715936977 10.307643512269816 8.600470362688675
Pd 6.460370992454887 3.315771272559516 6.786181915549831
Pd 4.331123980185055 9.019812673336904 5.724855294721138
Pd 2.21488607281761 7.309093984020482 8.55661316710123
Pd 8.834595065199952 8.72268078002172 8.544654994251772
Pd 6.530132043414158 5.808803293909342 5.500371074540108
Pd 8.752383396902589 4.004444446113952 8.155084881173908
Pd 10.947886887309641 9.438748183903128 7.104655373616721
Pd 6.412968201979914 6.001272155532359 2.8592443725039556
Pd 8.714416368149587 6.741686035359808 4.076823720668473
Pd 4.363118579781017 6.3438644957390675 9.749555938579181
Pd 4.212886831892267 4.490767753410572 2.9337177445873817
Pd 2.096825885957127 5.2367686995869285 4.430050438455433
Pd 10.783902879447629 5.028766099180681 4.178555558682417
Pd 10.962472070502997 7.300004903078265 5.538941402910731
Pd 6.590880565618154 5.470725998572456 10.977270974890441
Pd 6.548334052473101 3.2543075240444885 9.489297946504657
