37
Energy = -157.23105159 eV
Pd 6.568248730053355 2.089385700046036 7.714235333254217
Pd 8.599071792907065 3.8172639620244344 7.486890168464623
Pd 6.288563070445507 4.676744018155711 8.57842917156857
Pd 8.017160610179886 2.338739287073861 5.263905412458421
Pd 4.105892975522908 3.402807694405676 7.975126535825325
Pd 4.580216134480577 1.5820243740265414 6.022222736385694
Pd 8.448996138581403 5.953869424392361 9.20949039798561
Pd 10.269970868806945 5.8997073144441785 7.2655324541806685
Pd 6.019298279532555 3.87379682730697 5.851095350443387
Pd 7.151005282803942 4.1664945842849725 3.4772272248442704
Pd 7.482386404571237 6.074134622400815 6.456456884468586
Pd 3.9475472044736315 5.802757322053137 9.268996644525314
Pd 4.874574273295046 2.8029490851511576 3.6566276037452816
Pd 3.146128911032457 3.7822957746210566 5.482759187805117
Pd 6.147379531635594 6.482426911981053 10.614599274770471
Pd 8.930156077475342 8.188361437852913 7.731331600383354
Pd 7.964465809512591 8.378421790634686 10.226626451603206
Pd 9.226981169853373 4.7288233892912075 4.992660878529209
Pd 4.674185864111982 5.918173043711406 6.634490005524651
Pd 4.439044824487681 5.403012675394776 3.836613184422747
Pd 2.0451318213863776 5.084807741317634 7.5613559064457005
Pd 6.063416120808866 5.710444235811977 1.7366537836384282
Pd 4.303841504823826 8.465522960788547 9.703224950190565
Pd 6.2001081469477555 7.544889178750086 8.203862890551651
Pd 9.469425822738652 7.379868174679093 5.248596138775147
Pd 8.661731462431899 6.342744483400265 2.82780595201829
Pd 7.137465207718543 10.078193247466611 8.364710059854263
Pd 6.549719002862003 6.980488334022019 4.168820830598059
Pd 2.30307429652968 6.339506383456358 5.230733714953538
Pd 2.9377806873162364 7.674674036778703 7.531330563707151
Pd 4.371217534850443 7.679764793559873 2.5053017416751664
Pd 6.99897850499369 8.924715091979072 5.948699200156572
Pd 4.282301599229262 8.111892162420052 5.155967155977217
Pd 4.741054089254606 9.627568563434677 7.295675749486986
Pd 6.898985760533876 8.213285039501988 1.6185926156070134
Pd 8.409663049215377 9.030264762586254 3.616331862547586
Pd 5.8094319213299705 9.650973578205686 3.6443523468400376
