35
Energy = -145.61555059 eV
Pd 8.483883339470774 11.124075459325336 8.242413812877599
Pd 5.366192394519536 8.973537241294226 6.063597441324728
Pd 6.839362743596989 7.514234395574328 10.335612730547652
Pd 7.594307963663561 10.084253805209553 10.700484296140633
Pd 4.96465421229528 9.368015548184568 10.547222951609628
Pd 3.8896268212187284 4.0965649623175135 5.131154797405515
Pd 10.170282810712894 10.308790085844715 10.111847718736785
Pd 5.388695788917077 5.528648888178945 3.472604408657145
Pd 10.212535540729963 4.842585024984293 5.13197446906672
Pd 9.29778465888496 8.06004338089446 11.241831310385734
Pd 9.447833434990116 7.066129405004222 6.409456253137232
Pd 6.3407733754070295 5.123643713166514 9.450475406257373
Pd 9.008805812176353 8.502910614605193 8.562073878294704
Pd 6.641862757136924 2.9802597976259952 7.893036586412401
Pd 4.141442103101363 10.439470871249515 8.03893581663349
Pd 4.6375532386311695 7.227952856152098 8.699694935532635
Pd 7.431449676732031 6.913115356173046 2.26047510952433
Pd 2.611402265683335 8.855847019499944 9.50945324227385
Pd 2.9234709574376723 8.298313601301672 6.964309869619433
Pd 8.951625328458341 6.0943972664302555 9.482925380920314
Pd 6.481859500056986 9.368959780160258 8.401431205077008
Pd 8.450631084290965 3.5283465401421914 9.777460327164514
Pd 11.426680892708633 7.129857570041958 4.691531350642091
Pd 6.3580558176376565 11.37192292548549 6.6801800168180785
Pd 6.383734287645139 4.574855029796437 5.856654758998834
Pd 9.163437737155796 8.221517088825252 3.915601969584351
Pd 8.72400985846042 4.62287532163172 7.351807277459218
Pd 4.477823781249585 4.686567983613134 7.690248348397322
Pd 10.028905172214571 6.005117589399096 2.695716531873391
Pd 6.943921257131247 7.2303614836361465 4.834811594108366
Pd 6.987435718001237 6.810697392244357 7.432810071208968
Pd 8.409986028320931 2.873477198847965 5.443055415921008
Pd 7.953008554005734 4.881682658925083 3.786776668341311
Pd 4.475944931759674 6.572542269179692 5.800571646477647
Pd 8.094820943035932 9.367545820908905 6.104565488983289
