36
Energy = -152.20258062 eV
Pd 6.709718645423888 4.476911566511104 9.993631131394098
Pd 6.654702936185425 7.155562214552811 10.495108023628628
Pd 8.489270097211657 3.4375258355538545 8.277981841961665
Pd 6.449898967348026 9.843654041037874 10.526840780388241
Pd 8.323355657223775 6.083650333411806 8.692658326776892
Pd 5.936109173160286 3.5943449740348488 7.557213796065821
Pd 5.487987603264524 6.1449710157778155 8.249883817412645
Pd 8.234122835350739 8.742780064223664 9.029884428457429
Pd 10.394398510667333 5.147101296260611 7.27466653377195
Pd 4.657540119149379 8.484089868679058 9.292671011648025
Pd 8.514349178412772 1.0870172913930114 7.192817173080477
Pd 3.602295493809407 4.610746516216707 6.88578494684458
Pd 2.882222436852263 6.790669076444908 8.23249178640833
Pd 9.948932035663706 7.72732279373478 7.249419484696827
Pd 7.699198632050263 5.112537668610368 6.228936138495691
Pd 9.816972233884627 2.968129943002416 5.95168206681405
Pd 6.269249756675194 10.068052087492717 7.740700243908571
Pd 7.238876003236407 2.528176795351618 5.454125749004079
Pd 9.191838366488739 10.273402357789765 7.162148563878142
Pd 4.598030448210476 2.6362412436118006 5.434918211147507
Pd 7.144897645097118 7.754498577217711 6.760725424168392
Pd 4.31606329164368 8.459823353979822 6.705544381542177
Pd 5.210985159594929 6.232153194864587 5.518895453296733
Pd 7.302710943827434 10.881062766175974 5.476083021596533
Pd 2.5017296059440572 6.758322750719028 5.631860947440909
Pd 8.729686052961041 4.176971857572415 3.8208004920466645
Pd 8.759245979799367 8.73180031519367 4.936435566819717
Pd 9.793401740961038 6.2720381625568296 5.000124329448673
Pd 6.008538140329876 4.293633777771005 3.893663579501101
Pd 4.689589051040056 10.760797413795691 5.480405038399284
Pd 6.117798032019016 8.752146389575504 4.399384340682271
Pd 3.3926430682225726 4.615160433666478 4.144870577106644
Pd 7.435780964320463 6.564199748359793 3.842106662927779
Pd 3.4917961024950177 8.77236496146183 4.149349505277882
Pd 4.929157596283461 6.727599046170519 2.9535834020768634
Pd 2.2911922148811756 6.7180354525284445 3.029080643743123
