30
Energy = -124.1147943 eV
Pd 5.612869647571594 5.04363798922345 2.1527167564001504
Pd 3.267845162771915 4.652737023310774 1.0713326496409339
Pd 3.585950563341376 7.107892357571748 2.064493850067231
Pd 5.810532038885437 7.260401938366451 3.6060408673344515
Pd 7.962195699585398 5.654885238339114 3.1063318218363696
Pd 6.9480643697609334 3.040635884814368 3.540613571974204
Pd 4.112544106804094 2.9632121263558555 2.945894951540905
Pd 1.6198868503902064 4.1975131595662045 3.036646298146953
Pd 6.058135571930225 4.8502703859232685 5.073100428519358
Pd 3.5151783842778723 8.227004617524553 4.584042763484206
Pd 5.959905757309213 9.081695126817696 5.566175592327579
Pd 0.2361726781211683 4.95590205148435 5.167664191770272
Pd 1.4507498153244485 6.7858595403626385 3.6798753677098905
Pd 3.726468843408359 5.390270923524024 4.107301118840392
Pd 7.696419666850603 7.013532639992074 5.4122823389128625
Pd 8.797961440307507 4.551132295382952 5.357603617779974
Pd 2.4351308474159423 3.5356778928435912 5.512592499055082
Pd 2.3402353756964547 6.183380509131254 6.224059164039595
Pd 7.187122464684568 2.679649881790792 6.390494740585005
Pd 4.815527181204294 2.524193618936629 5.401459919491955
Pd 9.365322664396567 6.304267950456461 7.295696755021759
Pd 4.909848210053958 6.8700796737099585 6.399111482038026
Pd 6.886612333050295 5.08471724326584 7.610450123716129
Pd 4.269481721218163 4.450606481407103 7.255933691952902
Pd 9.098744234817419 3.7000300257298817 7.887685179978693
Pd 6.994985823614161 7.921402162005934 7.809618140213382
Pd 9.906172900525036 5.450459684155495 9.712159140310895
Pd 9.187863275604226 8.015630545493003 9.249871031772823
Pd 4.920512831013711 6.408639899696333 8.98290820552156
Pd 7.4074175798192865 6.180539172571578 9.881701779769656
