33
Energy = -138.2188923 eV
Pd 10.898651055349381 7.501693365860676 7.065481635825036
Pd 10.619285536605275 6.61293956265722 9.520289433722214
Pd 10.498409149350659 10.111312868753064 7.064174146035898
Pd 9.867524070734783 6.026430355433658 5.005511834005728
Pd 9.285458913093317 8.916336316076903 9.091979484913459
Pd 9.443753500488022 5.158261767715539 7.592651582898178
Pd 9.20809067667608 3.5072706491296715 5.556955898018357
Pd 9.47691394273875 8.704227126029993 5.05511312699281
Pd 7.836053915303227 4.423441462109007 3.437210853303003
Pd 8.298165760250598 7.525690917620602 7.136806081468571
Pd 8.036397541958827 6.520632038740575 9.579028435703886
Pd 7.8339631851606 10.090756588203194 6.993226630210337
Pd 7.322228293154124 5.655095014153441 5.623010557879714
Pd 6.51088139927494 8.800764028754715 9.031175648378403
Pd 6.661045577377363 3.036455023726041 5.779169037147145
Pd 8.32215644373134 7.14450958998842 3.185357679622707
Pd 5.5150979066327 6.4858827277608455 9.984085457217608
Pd 6.80235691135026 4.633016855310081 8.073979164645362
Pd 4.831333395816173 2.863172222767024 7.683380839135627
Pd 5.832413156295151 6.384070568043035 3.502190271165057
Pd 5.332915706197987 3.8399564033701155 10.119274089313643
Pd 6.821458952237177 8.472456538874107 4.9748646746534915
Pd 5.196305310411587 3.7724495490421823 3.5838281658717226
Pd 5.2015091488901986 9.686148129828199 6.783263876149962
Pd 5.648736436233975 7.0256646152203945 7.16905831968608
Pd 4.6734747593335495 4.863695032623209 5.908681152780805
Pd 3.7899709303921085 8.04868214291112 8.632478025386623
Pd 3.823968628981145 5.228773719624424 8.416188654683085
Pd 4.270759535647549 7.912448400815034 4.9781730290417086
Pd 3.3049471484347666 5.682277104301865 3.8114807015772403
Pd 2.5561991005070985 9.159233439139811 6.557532420963476
Pd 2.606945582724947 6.5055836646977525 6.532117080686061
Pd 1.7123901186310566 7.719083505917198 4.360144001966457
