34
Energy = -141.55381029 eV
Pd 10.109220104735607 8.79664005019357 5.28137164891176
Pd 3.857041725595589 6.628107518953334 9.138686640471812
Pd 6.681786125276277 6.322572795914671 3.638379528480181
Pd 7.812653476303124 11.391400566613003 8.098144443976569
Pd 10.54654925591764 6.444285725961152 7.725984252818721
Pd 6.946549066555654 8.766895537013957 7.842222403752079
Pd 9.67902399813757 8.914977165478213 7.863808331687813
Pd 10.199137946524145 10.994340519157188 9.370776573997212
Pd 8.672985630622046 2.4749154464329117 6.444961129920958
Pd 9.374311591762645 6.359455451685515 4.017454735380827
Pd 7.92382054135171 8.605605907756637 3.6862892950197246
Pd 4.382088143588299 8.945303767340977 7.827561597078647
Pd 6.09171084785694 7.655644681694721 10.0248351242184
Pd 3.945932055320785 8.973628300055841 10.547543907368503
Pd 6.288450609169264 3.377606130007375 7.173411735601177
Pd 10.03852273651753 11.201449444476781 6.628539449384909
Pd 6.173473355271209 6.124253740476325 7.669338283988782
Pd 3.6630610121059735 6.843782936456442 6.503597167470581
Pd 3.9606703518884134 4.424539424400265 7.723980960979335
Pd 11.67988182475231 6.722579177133294 5.359943356730724
Pd 8.421565280203348 6.774373075421519 9.248938617835226
Pd 10.291652004531581 4.528291010981779 5.8146996020488455
Pd 8.02908591254261 9.65391225028111 10.138064540287282
Pd 7.708957320675263 4.586146120137907 5.247907580002923
Pd 5.683484002419882 10.612362418296048 9.448372132004987
Pd 5.1100047713100505 4.918624165972664 5.346043127305406
Pd 4.130010586495128 6.923035729371876 3.90636140431965
Pd 8.339774164127165 7.045807453808755 6.307740287120986
Pd 7.781623742876458 10.107829302004397 5.7753311883882015
Pd 8.534945199584268 4.598301473349028 7.939023259617588
Pd 8.122184517215686 7.707698610497519 11.795271379482951
Pd 5.589991130720432 8.037637561822153 12.483024370731407
Pd 10.317755651894691 8.289893506294424 10.345918705905026
Pd 5.885948982227887 8.10178836532404 5.517598488585271
