36
Energy = -151.69722464 eV
Pd 3.9242786614088665 1.489515933872117 7.641734233516949
Pd 3.223511115378089 3.8910402504778983 6.776640353913419
Pd 3.5970523413017976 3.4476313246869545 9.403641787036255
Pd 5.409978937527601 2.516856952436024 5.711549103873939
Pd 6.002483521927206 3.063056016782819 8.268772187564778
Pd 4.488900489280496 4.712444810182588 4.538882025270385
Pd 3.093066282238751 6.4883663450528895 5.95739789415922
Pd 3.1944227932196942 5.917623328462509 8.624901030067583
Pd 6.857267448575392 3.54087513455295 3.770021800077032
Pd 5.367667740464227 5.42308349278244 7.109589364065148
Pd 5.592089650852532 5.194406524396999 9.829290804476729
Pd 7.573580121116518 4.043189605804955 6.280252525444763
Pd 5.9008396566699215 5.58060260803555 2.3733308852899557
Pd 8.31829069969523 4.579202564926284 1.8078905726249197
Pd 4.421233790498858 7.2961018846653936 3.771346927463656
Pd 2.9884206054749733 8.414772308517412 7.814256642363573
Pd 8.038767937820985 4.700156978010674 8.785321033505387
Pd 3.0474904238892777 9.084275827397052 5.235617694516408
Pd 9.1231868970783 5.091598757192431 4.310167933041749
Pd 6.744522156056086 6.264931529416285 4.851397465679834
Pd 4.635806361786974 9.9230075975382 3.326666002710762
Pd 10.106410420024067 6.239838362887126 9.437759790766858
Pd 8.165425840472462 7.050385165505065 2.6736944300617846
Pd 7.549305209848039 6.9728721970510685 10.155861909564338
Pd 5.2623933622501475 7.713726918878483 8.953854061965146
Pd 5.920749747690002 8.152788785025564 1.7404806811661595
Pd 9.73465284103036 5.596315912378205 6.8437712125564945
Pd 7.501458236241349 6.995400923510573 7.448994408692395
Pd 5.297405838145825 8.2471281148961 6.316309353246333
Pd 9.092979426404948 7.6730404097552105 5.129918543508885
Pd 6.869309237892325 8.904031073844616 4.159943177029788
Pd 9.56091306388079 8.754461772920722 10.211494352303518
Pd 7.237418122083362 9.397698370007332 9.091407364377279
Pd 9.84392548515059 8.190347090125035 7.641174224166807
Pd 7.710132527045809 9.542628771183571 6.5214212539078495
Pd 9.362812196897801 10.692927470213796 8.267099413950474
