36
Energy = -152.2885401 eV
Pd 7.6040056369509275 5.382665442214263 10.545562852646098
Pd 9.434972633998159 6.421439158663877 8.929012591114276
Pd 8.742657561492473 3.6764490319476093 8.72845073421774
Pd 4.017205828232021 3.260203053615784 7.251265844459876
Pd 6.039721016164789 4.526261582454562 8.737632451679326
Pd 6.780127099045511 2.7063632716097126 6.8586024110360135
Pd 7.946378181860363 8.013935207919884 10.529317015631468
Pd 5.426341216426307 7.075603323436494 9.909941808509997
Pd 5.102711318123474 2.6717542837165653 4.738754011088796
Pd 3.1555679336226232 4.504086149952377 4.830799077841431
Pd 7.0953852375619855 7.175579069448044 7.972365543815988
Pd 3.89457315632196 5.915336607821133 8.102097765532303
Pd 10.736314413506621 5.083690884236754 7.064529282180724
Pd 9.403024556370726 2.966709393788867 6.055994652856285
Pd 9.110281157425995 9.104000349621883 8.3831813309012
Pd 5.490934261490117 5.069989500007517 6.142123460859936
Pd 8.046284265398453 5.138387699444196 6.749754382354727
Pd 6.517124582834507 9.647508708631197 8.946222030553987
Pd 9.390642279596 7.44520991913399 6.326178934736251
Pd 1.7384824329351645 5.014624847470027 6.957832923320774
Pd 2.2777379192543425 7.6779720370116324 7.013445460778628
Pd 4.835799780024086 8.373696027431976 7.360319045944914
Pd 9.682575964684109 5.350090739093314 4.578486312605884
Pd 7.447282665325919 3.912254971688351 4.4224844746510295
Pd 5.356583128390927 5.029163761051783 3.38478684415558
Pd 9.68182856490105 7.851694061663459 3.7467261068716025
Pd 6.869085382179441 7.045950604903445 5.176993853959112
Pd 7.326880458819634 9.435631806839734 6.369772564875121
Pd 4.0744537195099815 7.014319618107 5.174102385761554
Pd 3.0951883511912595 6.123573092320469 2.602169072419793
Pd 7.706681975995576 6.24039367022625 2.8820230059490326
Pd 1.4484520753941905 6.60383338959904 4.721585364749995
Pd 5.065302014627391 9.461706106116756 4.9151284462225
Pd 7.415011449173335 9.102102554052966 3.6865211198540466
Pd 5.326855386159995 7.636700244467455 2.8036244000664508
Pd 2.872903146476367 8.619864698386952 3.496906043138594
