34
Energy = -142.6188094 eV
Pd 9.988516068604227 9.431758012964675 7.605861353808
Pd 9.424521343850113 7.339532430662051 9.182854093959966
Pd 9.690672537420703 7.041000432926832 6.484939176288703
Pd 9.140888057899032 4.949736547076109 8.090049841177695
Pd 9.157388327141062 4.66499791493012 5.369461219185161
Pd 7.4459712050144935 8.778687512621685 8.098853152592607
Pd 8.6049887050425 2.5882137325782093 7.07174381961076
Pd 8.417038364308334 2.247811837662712 4.406200288743272
Pd 7.161657331834356 6.146867458125263 9.578701877990591
Pd 8.285069265447152 9.142764071737131 5.611465558653384
Pd 6.641459613709075 3.737836665745533 8.474887187018682
Pd 7.1567230333856395 6.327905792832246 6.954295890580652
Pd 7.956486149148728 6.816865932794975 4.368005985194201
Pd 6.625369128265154 3.914933929165267 5.825175331180282
Pd 6.547076160518545 8.410475164082388 10.551883907624235
Pd 7.36446053608345 4.46259439191101 3.294405749323383
Pd 4.883945856880631 5.051220167103922 9.987416951166075
Pd 4.138111956850718 7.361451213589862 10.956728214690882
Pd 5.763041569452497 2.294922419342199 3.8789485648145927
Pd 3.978585878442239 3.599395326164976 5.3392911045785185
Pd 4.707127991153372 5.258429727885697 7.325402971480309
Pd 4.683383857739015 4.433265786862867 2.795965988376005
Pd 5.364877434001101 6.067573002536409 4.792482394541587
Pd 6.176400832668113 6.639221041480523 2.281990301864651
Pd 6.590291700207006 8.988555665649029 3.572215370805944
Pd 5.688477747470048 8.458076021507047 6.046275128818693
Pd 5.006092133574435 7.730936599657621 8.490993887801302
Pd 2.111301880886658 4.958198266146192 6.674484034823987
Pd 2.727830090464775 6.338688525161035 8.89282695525622
Pd 4.909146303440752 8.880741515336474 1.539638321478347
Pd 2.7462112626715762 5.842522989412122 4.276613568413092
Pd 3.533142371435324 6.610601676326114 1.8766574113107182
Pd 3.2728685098830548 7.403839334352988 6.426947263663893
Pd 4.018443138361602 8.224016333562572 3.963394698608486
