31
Energy = -127.67108416 eV
Pd 8.282460940429257 6.2772662242227355 2.09499705004937
Pd 6.711767658606508 3.5842359354805313 7.813814143716216
Pd 10.28194310480597 6.609832525282859 5.806690806522064
Pd 6.232867452556855 10.046206440135132 9.71922084049452
Pd 6.190276928616857 6.762331813284355 3.592113697159067
Pd 2.940033341759198 7.043706819864324 7.538261775276689
Pd 7.821487955219501 5.213410878230702 9.469212903867138
Pd 5.86604938146297 12.311443454015535 8.505926228919101
Pd 3.334262682627272 9.013827417373987 5.613565452529169
Pd 4.872398125618305 2.3560965703183645 6.4043242315209135
Pd 3.5745529784739523 4.629142443768843 6.690214248444249
Pd 8.50764221453114 7.877421490204303 4.238402232674221
Pd 4.7155882243266705 10.902165457204877 6.69678325868212
Pd 8.93324774995869 9.45240237126882 9.213206739199888
Pd 4.320983256665954 3.3509844916451175 8.828006677271881
Pd 5.831286393116418 2.2115555751059426 3.975697682211311
Pd 5.3413756440583 5.872922383368163 8.254476742539982
Pd 8.971738504944767 4.6549336821461695 7.06221830027749
Pd 6.747536520023095 4.293468699119223 2.7849047267756193
Pd 7.061916185328185 7.679677624569586 9.11485859851551
Pd 7.2756112914065625 6.672573598651859 6.482726788459196
Pd 9.675108258470788 6.87483069006651 8.372740189115836
Pd 5.101766386488969 8.582373682215932 7.743544448195124
Pd 7.892783747698088 2.7657649500633856 5.524505252285175
Pd 5.976869221181788 4.588742815046349 5.354514042465406
Pd 6.197936141924832 8.969262507693212 5.241769548690023
Pd 7.238605477865754 10.449272360599025 7.330737623790414
Pd 8.573811161238725 5.139515048999066 4.4591964300713745
Pd 8.93046162514125 7.224248654832898 10.850788729904723
Pd 8.95498801341143 8.76207415400693 6.622553890554001
Pd 4.601449545220768 6.7871153543944835 5.558832833001918
