34
Energy = -143.01888283 eV
Pd 9.055650837401691 2.366033350938184 8.788776355048533
Pd 8.824999066964047 4.9646855882682965 8.530462101238536
Pd 7.257344833845236 3.8096982384457165 10.33757632773436
Pd 8.92126446196874 3.3464073650715314 6.354106038996455
Pd 6.687384201336974 2.9867099113135698 7.854581257690455
Pd 8.782456629833705 6.002708817397593 6.030841187533667
Pd 8.543138953544663 7.531842193238302 8.159884284919709
Pd 6.83816601116516 6.418718165860833 9.979007234518923
Pd 8.717974416712682 4.41594245368401 3.8564628474257394
Pd 6.452070729268501 5.650249577434921 7.435067084647145
Pd 7.508958213122628 9.01887347897915 10.037938601228158
Pd 4.91768512907919 4.615424901562538 9.374545309123166
Pd 6.507393845972681 3.906174119208272 5.310077866995533
Pd 9.491772059808378 7.064198051979006 3.690433109937447
Pd 9.32787616017105 8.638646121232496 5.853068910820659
Pd 4.380701276890914 3.689865562655336 6.851129569642505
Pd 6.775298906118567 7.905544786392602 5.931317606682972
Pd 4.046596770853619 3.7709700374705784 4.1940813892051585
Pd 4.797518127268427 6.070898544443426 5.301966703152297
Pd 5.655923949306883 8.233763774782144 8.364838354951003
Pd 7.540930757275671 9.99845327353405 7.535819739453062
Pd 8.477664552971255 11.060097012375113 5.279701145867629
Pd 3.775219270200245 6.481934873701097 7.783977087741402
Pd 2.4242436442128765 4.345690236743345 8.476824499263714
Pd 7.683292005365367 9.069610064013805 3.677972918066738
Pd 1.9451889218309761 5.078344578797523 3.3120227081613485
Pd 6.922900040158119 6.434229686293829 3.6608280109247238
Pd 6.224063402896003 4.0913804744959625 2.669435685201325
Pd 4.112339895452297 8.620358042447917 6.2218370237770095
Pd 5.946126773730381 10.365403943729445 5.381849101004363
Pd 2.2972292945633277 5.167695303388702 5.932549731201348
Pd 4.36685559807791 6.046378873882187 2.6565822488535535
Pd 5.071601803030725 8.432824048477286 3.6750138963157304
Pd 2.662659813445887 7.359297611397672 4.379791020068987
