32
Energy = -133.97808455 eV
Pd 7.397065620127159 8.842590984541275 8.595972980810592
Pd 8.87595015534015 7.818047038797717 10.569017702582059
Pd 6.201430246655077 9.077598204237166 6.25863922653543
Pd 6.55057842223739 6.691076443281626 10.113748435506476
Pd 5.152584296231146 7.447496161190755 7.958541636666828
Pd 4.275229722388649 5.389346889951986 9.297858130014319
Pd 8.79874089933582 9.3727846411073 6.269647247900257
Pd 8.972001497312421 5.2913679063826216 9.764045292918967
Pd 2.5402098314293036 7.1347112458519115 8.006764664940036
Pd 1.6962424940566037 6.638517836001085 5.360553233809432
Pd 3.812316685396773 8.087475119486555 5.768633335960737
Pd 5.0747787346569195 9.520426947191913 3.8875776009021514
Pd 6.550414941281015 4.05436800263827 10.100478211353103
Pd 9.714842988805154 7.590972504819258 8.07261528833522
Pd 7.251699799267371 10.872215942498302 4.61653955728789
Pd 7.5006314669580885 6.17507262724694 7.710938566676269
Pd 3.730984890479083 5.294842463237862 6.559957017102294
Pd 6.028596753869955 6.449632826899968 5.434959999038506
Pd 10.122478614633222 5.060965965301728 7.3635631264321795
Pd 8.307271757966557 3.238702598984679 8.20797095972438
Pd 9.032584424181739 6.791110928229981 5.585274967521948
Pd 5.8514440728621 4.119152829899873 7.566051996841525
Pd 7.63356770921262 8.353503734614968 3.9628284933356457
Pd 2.944606956206092 8.029884394226483 3.254065065554142
Pd 7.703837534821077 5.709803057275203 3.514277519638098
Pd 3.5649562155636274 5.497251930787122 3.922518858745642
Pd 8.108363025100125 4.314988975454664 5.747613473924753
Pd 5.355437181886657 3.8904273098310695 4.971284720073536
Pd 5.438270296868643 7.120165218378766 2.934203318507059
Pd 6.9279185839699915 2.0341867853800193 6.1948530415174865
Pd 7.392824915977818 2.96824350491261 3.5767949280142552
Pd 5.555558444767738 4.545848789339169 2.4006640409452897
