36
Energy = -151.96822016 eV
Pd 7.618439024629912 9.427280935785337 3.335710151141485
Pd 9.272183213083858 6.853372117904684 7.340204911608223
Pd 9.478591865384836 5.736232571241908 4.9710431441424525
Pd 8.24714420118387 10.73400056061382 5.56327161115769
Pd 11.007250981008779 7.871191435611507 8.98182555853497
Pd 6.888927256247898 7.210223780596335 10.991742577486336
Pd 7.1662008283829 7.658053734146164 5.56443549721714
Pd 5.708716937865917 9.918872975626709 5.250282335102556
Pd 9.640319063963862 9.451588269184864 7.3128623215725215
Pd 5.064209479981882 5.898315616616083 5.369949472610326
Pd 3.775873807852066 8.2433180633498 4.232592289245299
Pd 9.720894290970568 4.23722847653499 7.282763989675575
Pd 9.337652668245077 6.064538303593535 9.974254051314244
Pd 7.654720482168707 4.826177324349723 11.541464823893454
Pd 5.112997166055824 9.825010939190367 2.7007471183955745
Pd 8.663389569564435 3.2211223834446097 4.910369320698083
Pd 3.8575817232936305 5.851774926884558 7.973896091606476
Pd 3.4161270138386 4.003318316582978 6.141848774947068
Pd 5.975178598828302 7.324849339555536 3.1846668433184284
Pd 4.470909406459479 10.176282400180742 8.412507760630573
Pd 6.282863026864184 9.638677039411474 10.238357129422292
Pd 6.603199020153286 6.930659206348482 8.30359110031919
Pd 5.8764289772675 3.1852421062414678 5.250710899209345
Pd 7.0972907976349875 5.0498305744625345 3.7650601975164366
Pd 8.57465827118118 6.974668623181768 2.8236082142408736
Pd 7.602604365232792 2.3892263328234518 7.2261436735470905
Pd 5.400342599556843 3.7440853108431194 7.872568215719966
Pd 8.602325561634446 8.61372698372668 9.545169534460204
Pd 4.470499980923672 7.809489141028181 9.637992999732854
Pd 7.671347342324971 4.330131935291541 9.016928484792638
Pd 4.501724523857879 8.13706769598382 6.801130884484949
Pd 2.527340015712843 6.549719389974962 5.766343609276884
Pd 6.9004360859903136 9.578446505125761 7.598130611956473
Pd 9.546365588463422 8.424719387705448 4.889340823163697
Pd 5.311651204844313 5.238873614333962 10.116472553974523
Pd 7.303404447347742 5.0884685418511255 6.519433357878757
