37
Energy = -158.25552549 eV
Pd 6.914854991052886 2.1388261561270125 5.369900058365324
Pd 5.427960980810253 5.541825879881085 4.217566223617123
Pd 6.90914582091467 9.739011958504038 4.576151925216635
Pd 2.4541697647878657 3.220738457685583 6.4884802887130775
Pd 5.607544295881113 5.628121095104993 1.4280171216010629
Pd 7.833680290436371 5.729185828903839 2.9201941242111187
Pd 8.761494632811562 3.7193683026730966 4.354803996196986
Pd 2.7179061582515565 5.17928784498577 4.716705564898242
Pd 9.473694449220869 8.933410053031324 5.452023308150328
Pd 3.7354031851203544 4.14476846006556 2.481341075860095
Pd 3.5461565732761873 6.915814052846096 2.855605659713395
Pd 5.8220586204122124 4.373691391120895 8.929533285387267
Pd 6.451120834006662 3.3999940503395867 2.9670032458944253
Pd 2.152853954959105 7.678656943812868 5.2065272818577535
Pd 7.073127526249384 4.6635967616872795 6.183443128415901
Pd 5.48942211911635 8.789905894174812 9.126298105485157
Pd 6.326329786469709 6.482995010233862 10.50438867205536
Pd 8.172140526412425 7.966057898883647 9.42304354019946
Pd 2.03283014442983 5.8904285620968695 7.343912695173861
Pd 5.0669381577163275 10.155794462069599 6.6923324065469165
Pd 9.13332867228958 6.9579549376840575 7.169750152816688
Pd 9.641080255988854 4.351884882174375 6.765626654366535
Pd 7.353539975515199 7.146071325748481 5.192512128113215
Pd 7.716931185065719 2.763429063041446 7.8813034789018825
Pd 3.9926315102881946 6.3470031295508775 9.294767777559473
Pd 7.42020434055697 9.122632959697963 7.140805685038047
Pd 3.584055358529422 8.086064718646613 7.375195873031423
Pd 4.466845018446227 5.155576121309334 6.712864014637431
Pd 8.318018133559919 5.223656842281583 8.973601167105588
Pd 6.315479840725752 6.770347505932451 7.676180564381557
Pd 8.721566586628217 8.243857602098727 3.030727852453326
Pd 6.094008650764627 7.864318108512418 2.789220982259785
Pd 4.499389203844096 3.085895001218569 4.78569613099502
Pd 5.026308510864567 2.4631432691274813 7.306902438668859
Pd 4.787667327014952 8.03715405109642 5.102086630147885
Pd 3.204199719065457 3.8546818382122314 8.899992427852869
Pd 9.823630543388283 6.198511344705579 4.707714605519864
