30
Energy = -125.05341064 eV
Pd 8.013610936828643 3.9501264546084554 7.499733654941636
Pd 9.659401767005383 5.976064834593016 6.777053793821588
Pd 7.667359944014593 6.470530283170478 8.452830801377203
Pd 8.966161907892326 7.571250375658503 4.569814675878517
Pd 7.560496720882712 8.998815140607407 9.309099695317084
Pd 6.93171416921868 2.830633729489841 5.318749587607895
Pd 5.830264162500048 7.129554510824641 10.213137577621685
Pd 5.952545668555762 4.531228643689538 9.306205194748328
Pd 5.816195116648327 2.401766523884877 7.723853220609873
Pd 4.15199070154735 6.324968183494718 8.342331781576544
Pd 6.829949038117948 7.60467220308778 6.240063506159529
Pd 7.186333399237512 3.880132746444241 2.8319295030689595
Pd 3.552024885595063 3.79174597131608 8.181444542139067
Pd 5.747719569018008 5.048576161976111 6.653856256930572
Pd 9.095206319714935 8.519263900898828 7.163294376621379
Pd 5.260834387761305 8.677177752562308 8.085803543980271
Pd 3.997023032517258 2.909296383813181 5.736317036658657
Pd 7.103182786074798 10.33092245693543 7.042052453011076
Pd 3.2089479944045585 5.445530255339098 5.987850087131093
Pd 5.420391000259057 0.6925030614482816 5.670233219394228
Pd 3.0876512217853076 8.092370421365317 6.654817999708154
Pd 6.590847781222824 11.558382075309412 4.805970696924906
Pd 7.94049890995031 5.2015423289770055 5.015040865557257
Pd 8.919462091326352 10.194309000239109 5.084003673044692
Pd 5.033526566009042 4.751429486847795 4.087117807602615
Pd 4.745797979362511 7.295757978456334 4.7238158934799745
Pd 4.788345142810891 9.842849589072197 5.709478307623997
Pd 5.20266564480984 2.1422585407474743 3.4530427906843344
Pd 6.784964584717475 6.562206078013058 3.1198082121613364
Pd 6.750043783930991 9.046447027812029 4.018055525108695
