36
Energy = -152.38642999 eV
Pd 6.9205130415212865 10.720038613250507 9.433606181775305
Pd 4.528016464603286 10.200563328984583 4.6754405098868785
Pd 5.490576560394271 10.602757302136856 7.2336144513039855
Pd 5.280109655652491 8.716555507776798 9.125700616068949
Pd 3.185820558020754 8.010076895091622 4.090212166228088
Pd 8.07693005577149 8.452350266642654 8.828483846339923
Pd 8.192300642255441 10.483464830177377 7.094185997383983
Pd 4.063078686562205 8.458783760012924 6.6347365692298945
Pd 6.682053580135804 8.960808222635729 5.515468334304048
Pd 5.729305851721298 8.345631788907022 3.068260345330997
Pd 6.37252076605453 7.00961000735351 7.359950079454682
Pd 3.6331571604913036 6.697044307662223 8.552024055384917
Pd 4.678236334998948 6.956618384303606 10.973132776715907
Pd 1.924223031303465 5.799034848322302 3.5650356155228318
Pd 2.674165953381085 6.256083919825337 6.111366236892794
Pd 5.238452624810865 6.492423195686392 4.988299275990583
Pd 4.344585022260712 5.978131547248882 2.548633641754192
Pd 6.935355982705243 6.303864000231492 9.828060581268852
Pd 7.817348585084771 6.984245468533642 4.1700663552766075
Pd 4.7060993310141805 4.75948338955179 7.127457293468161
Pd 9.025386594897517 8.083873378131667 6.300422260524266
Pd 3.7229801982532456 4.209726893008887 4.61663957239729
Pd 4.877897152624742 4.590412802715025 9.765470399396955
Pd 6.885011679776813 6.207924862320482 1.8526866651522458
Pd 7.177983455037117 4.036377123278608 8.420904018512237
Pd 8.788575201553241 4.718632854352762 3.128894541099155
Pd 8.901358064518757 6.038166523679553 8.022002834585573
Pd 5.096661408855377 2.343906658301875 8.331276168323447
Pd 7.297058243895683 4.910134653326217 5.901656608944434
Pd 9.846700109795906 5.747491010111989 5.468025767800703
Pd 5.569780151115621 2.7389509800426537 5.680686668242583
Pd 6.177171587302662 4.230266575473215 3.50875374290204
Pd 9.42210706091994 3.5706560471717617 6.990173180724007
Pd 7.474615454953321 1.7247317668889364 7.176922565676129
Pd 10.562421273539801 3.3858935648478887 4.554450346120093
Pd 8.074821117010925 2.6508542194114724 4.751465401059963
