38
Energy = -163.17290095 eV
Pd 6.026848666643927 7.940434603538619 6.026848666643927
Pd 8.026876534550492 8.026876534550492 8.026876534550492
Pd 6.026848666643927 9.838683849999999 7.932286791936441
Pd 6.026848666643927 6.026848666643927 7.940434603538619
Pd 6.026848666643927 4.113262729749233 6.026848666643927
Pd 6.026848666643927 6.026848666643927 4.113262729749233
Pd 7.940434603538619 6.026848666643927 6.026848666643927
Pd 4.113262729749233 6.026848666643927 6.026848666643927
Pd 8.026876534550492 4.026820798737361 8.026876534550492
Pd 8.026876534550492 4.026820798737361 4.026820798737361
Pd 8.026876534550492 8.026876534550492 4.026820798737361
Pd 4.026820798737361 8.026876534550492 4.026820798737361
Pd 4.026820798737361 8.026876534550492 8.026876534550492
Pd 4.026820798737361 4.026820798737361 8.026876534550492
Pd 4.026820798737361 4.026820798737361 4.026820798737361
Pd 6.026848666643927 4.121410541351414 9.838683849999999
Pd 6.026848666643927 2.215013483287852 4.121410541351414
Pd 6.026848666643927 7.932286791936441 2.215013483287852
Pd 7.932286791936441 6.026848666643927 9.838683849999999
Pd 9.838683849999999 6.026848666643927 4.121410541351414
Pd 4.121410541351414 6.026848666643927 2.215013483287852
Pd 2.215013483287852 6.026848666643927 7.932286791936441
Pd 7.932286791936441 2.215013483287852 6.026848666643927
Pd 9.838683849999999 7.932286791936441 6.026848666643927
Pd 4.121410541351414 9.838683849999999 6.026848666643927
Pd 2.215013483287852 4.121410541351414 6.026848666643927
Pd 7.932286791936441 6.026848666643927 2.215013483287852
Pd 9.838683849999999 6.026848666643927 7.932286791936441
Pd 4.121410541351414 6.026848666643927 9.838683849999999
Pd 2.215013483287852 6.026848666643927 4.121410541351414
Pd 7.932286791936441 9.838683849999999 6.026848666643927
Pd 9.838683849999999 4.121410541351414 6.026848666643927
Pd 4.121410541351414 2.215013483287852 6.026848666643927
Pd 2.215013483287852 7.932286791936441 6.026848666643927
Pd 6.026848666643927 7.932286791936441 9.838683849999999
Pd 6.026848666643927 9.838683849999999 4.121410541351414
Pd 6.026848666643927 4.121410541351414 2.215013483287852
Pd 6.026848666643927 2.215013483287852 7.932286791936441
