39
Energy = -165.49557258 eV
Pd 9.088011792850226 10.570439733470515 3.4406681011778937
Pd 6.663200395002659 11.11537259442663 4.3041119726221435
Pd 8.553776470324504 10.218612287909538 6.044411534230794
Pd 7.182477612732037 8.728397798518396 3.111576141169637
Pd 5.919081897761294 10.425744708066045 6.746164472752846
Pd 9.507314854241706 8.236872963945975 4.511917200880783
Pd 4.779452707267385 9.24951585890088 4.474380970286845
Pd 6.956241014787243 8.08594503198708 5.636785924540968
Pd 7.782736507622697 9.767973316322635 8.554945735916025
Pd 11.559162548852482 7.8239977293536915 6.099229149943556
Pd 5.431271205084667 6.698620548418817 3.745053703457671
Pd 9.243670799270697 7.979165619351499 7.34576331246335
Pd 8.035526409977203 6.23049224617619 3.5521695712673265
Pd 3.0651374134095963 7.267781774193328 4.848690785173256
Pd 5.27472327479458 9.5091023615605 9.223204409582923
Pd 4.381522355148132 8.314393181708617 6.9663315010967155
Pd 10.523662950621969 5.823134266444844 4.7028399589238035
Pd 6.62038227424953 7.2727284216370505 8.111328279935844
Pd 5.352901755361845 5.804459074631157 6.326567373229105
Pd 7.247055520498766 8.084791411941392 10.53001922605207
Pd 1.3548813916298488 5.2606182536433055 5.283437112351172
Pd 9.045505898278114 3.8008842623425294 3.8306009247822606
Pd 2.7025541827299393 6.276916091896525 7.258609742805697
Pd 10.578521351056864 3.49822908567342 6.001619490886568
Pd 4.117129743441406 7.15122945892498 9.321803703102626
Pd 8.267149323199114 5.640744433726888 6.229500579009828
Pd 6.426529092025094 4.239791945118066 4.287172316077099
Pd 4.4178716098490955 4.520013310104606 8.573983095354533
Pd 8.672688874141821 6.089226576781817 9.293047211895066
Pd 10.692560565279926 5.7405462895154304 7.483542233463527
Pd 6.157358358559891 5.6370035910103224 10.360071829010385
Pd 3.810373181767956 4.612796564092101 4.590716323170213
Pd 1.844866054745326 4.716079327823497 9.091181034966912
Pd 9.459872169521462 3.6457700923558853 8.397984342770123
Pd 7.958084605559145 2.994977797848802 6.145253631188972
Pd 6.951513210743097 4.322306909051221 8.196601934867271
Pd 5.2916238641511955 3.07800764482714 6.435298121434945
Pd 2.661475584502064 3.517583011315171 6.817936619562976
Pd 3.5801556013104574 5.287570397332622 11.01111822851943
