32
Energy = -134.38832462 eV
Pd 7.730463783112874 2.3564451974188443 5.043174907372378
Pd 5.135576717166442 3.085305250146294 5.118681249405193
Pd 9.431666429697955 3.1688481407864537 7.03420884260121
Pd 4.284343069131679 4.308132735248312 2.775513806698829
Pd 6.895589793804332 3.88233111480495 7.0821518107318475
Pd 8.567681112177263 4.925432772750367 8.93058289690876
Pd 6.883031682174223 4.1005599886596995 3.229210567063664
Pd 3.2957717788091596 5.039572556415406 5.077049038402925
Pd 4.30751906740287 4.164691287858058 7.48684586953964
Pd 6.051093492561372 5.882266839803401 8.751293580732765
Pd 8.799745507359196 4.759508621689159 4.998198121093972
Pd 1.8769812098975989 5.380426951734532 7.27265997551673
Pd 5.9937695763348104 5.589263803088187 5.202757796660607
Pd 10.442866874565219 5.600101558343447 7.008769422387449
Pd 3.062326113403413 6.703986566088841 3.051486110394531
Pd 3.4616640343188347 5.904532919244118 9.379325037766344
Pd 7.882407356181179 6.521944761637671 6.890753645377056
Pd 11.222237845672662 8.106186693813314 6.933069221382994
Pd 5.712469696084206 6.605774693959995 2.7958919142593723
Pd 8.391596343241888 6.301041753570713 2.86265181879338
Pd 4.315898410611331 6.783468559133049 6.915686439044817
Pd 2.110051061843027 7.47110720032926 5.503575883136858
Pd 7.241906849134217 7.957693211167435 4.611150821007564
Pd 2.019681926822802 7.872930965146475 8.222444495461872
Pd 9.778735766549556 7.258132909243925 4.917539447379374
Pd 9.645269876538888 7.364947612529557 8.924799224264385
Pd 7.204762186915885 8.212932753828744 9.09477160324579
Pd 4.597974736118439 8.195309076535533 4.656456904652299
Pd 4.584883111024799 8.382997439949284 9.045933675495919
Pd 8.716181074194871 8.987842302813664 6.849157668421799
Pd 6.0806943938133315 8.899319330977779 6.785892326534266
Pd 3.5057674384430055 9.477062740298654 6.753397378760875
