35
Energy = -145.46623755 eV
Pd 10.543513635669719 7.104777897651398 2.9968803438522205
Pd 7.521173195715506 6.245734436598799 6.048752353980251
Pd 0.5222649385575673 6.232277083888914 7.77537039774887
Pd 6.293946558094353 2.500976080646274 6.080718610169089
Pd 11.206823037294521 3.85823218697659 6.454853882348944
Pd 6.590092838138723 8.918742498898075 9.614953350305552
Pd 8.001933818286242 10.745187777582817 8.336497152313262
Pd 8.359474144027695 8.14088116958932 7.655424100663489
Pd 4.1080695915849645 4.949515756026463 8.687973849605832
Pd 5.837629822842987 6.830139924480634 8.138166399277216
Pd 2.066656024591066 8.169731715244387 6.9092843447812635
Pd 6.681273479832319 8.35042180021748 4.633065710035098
Pd 8.571233733959286 10.12518841920824 5.850503733481625
Pd 5.191950359879746 4.858598637310292 6.163894588708091
Pd 6.303993476237197 10.912706510360255 4.709359541653708
Pd 8.791468691889728 9.107280643598088 3.2352814232733453
Pd 4.60587804986875 7.541063811526813 10.672468543276858
Pd 7.986688521511096 6.536876364808886 3.17029965868792
Pd 4.106769564531795 8.892615836094274 8.45406594882311
Pd 8.561051255283202 3.810241410520717 6.648951880267034
Pd 2.510994442720235 6.887134871571307 9.248826807374266
Pd 6.018848537926924 5.402466376366306 10.498960996299985
Pd 9.681392401465951 7.789376616237487 5.364088110294819
Pd 9.976926337122393 3.8825861725883706 8.80486241049122
Pd 5.424672301235643 6.131302949757456 3.854213000814652
Pd 7.963683310342039 3.6241859102197114 10.4238926601664
Pd 6.479443462445482 3.8659465980178735 8.314587641215935
Pd 8.208214555756543 5.915564194247665 9.077695019790934
Pd 4.508088037689345 7.559475632143039 5.943023959301631
Pd 9.795781905063494 5.1796511966631105 4.650160245530897
Pd 10.167198880387168 6.120483132812417 7.3009759089305435
Pd 7.249296684803912 4.224126188135867 4.338836550719797
Pd 2.735585034742032 5.627203633153714 6.5699845530884895
Pd 6.070093282134736 9.576171798392796 6.957829668260086
Pd 8.569547688177458 11.613617597136127 3.7001670513303426
