34
Energy = -140.91308065 eV
Pd 5.32087585093801 10.716510207749831 6.895255851595345
Pd 5.971869096406489 6.512918475174171 3.5536674435052342
Pd 9.487554330608523 6.969093750690976 9.463585166600938
Pd 9.698623100156537 9.364642818256357 4.65023845650703
Pd 9.724193314195887 8.13530885178257 7.061695707435297
Pd 8.844058197927362 11.043397837460434 10.926778254814632
Pd 9.63486304931692 5.608483680621158 11.670846880717697
Pd 7.334661086516811 6.673423124753297 11.608704837563726
Pd 10.068675392583472 9.544731666591291 9.241686227414359
Pd 8.459078068130221 2.1706382669097826 5.396011042554333
Pd 5.939177599568985 2.5886455760350535 6.180877375556217
Pd 8.195989964978157 3.3789111144352515 7.710326248031376
Pd 5.890172053612494 6.904629129821896 9.164903379855199
Pd 7.822139056432398 4.845255890188851 9.842433409057389
Pd 7.234362783066242 12.54902468960485 6.539238975465765
Pd 6.648182023122738 2.872846121456355 3.52873934780582
Pd 7.32337716212396 8.71287269134771 3.125809952061339
Pd 5.340208857199247 8.618257225104122 4.992498877827583
Pd 7.102063445535949 8.617261498654068 7.37691527810949
Pd 5.144853756577532 9.746513139564657 9.386734501959026
Pd 7.369116487027039 10.283899384843668 5.251460435195304
Pd 7.521823075826436 8.934306120020011 10.129690958415255
Pd 8.133059993692411 7.216105197574075 5.086941136955716
Pd 7.948653225282538 5.070622134028251 2.8804167660042195
Pd 5.79738392095163 4.453705676099207 8.090119441450828
Pd 4.857412903860956 4.472329382448628 4.630990245315269
Pd 5.285875020756435 8.205768038569833 11.443298890796937
Pd 5.6305895020892835 6.338599975424053 6.327080189584429
Pd 7.391182887540514 11.112771839230142 8.710340975883092
Pd 9.507253571300497 8.371602666046169 11.707021334613442
Pd 7.523302394162491 4.635052478903085 5.374115762552888
Pd 8.118842591254595 6.051106270841691 7.4813297784134924
Pd 9.29760847674699 10.730539550334063 6.980266991860331
Pd 4.308773215974046 8.281272267256998 7.429947293840264
