38
Energy = -161.65749486 eV
Pd 11.54825339296429 8.900688707244003 6.22262939516976
Pd 9.556045359286577 9.805601665763692 4.7658146145779465
Pd 7.274132940503728 10.25346837053889 5.893166209036304
Pd 5.277418069028933 10.029625960470518 4.222663101735059
Pd 9.973959978325201 7.20591837965299 4.955808258538173
Pd 7.400254598563674 8.21414454158455 4.135062428532137
Pd 4.795569584659147 7.5304664458590524 3.7328708253811627
Pd 9.40137493404018 9.843830145727745 7.491566034320307
Pd 6.766767957884358 9.765962924605372 8.430242496886224
Pd 10.552127618178902 7.227727068414538 7.984938217243363
Pd 4.850332682332051 10.749552643478978 6.758480164184945
Pd 6.635198526367202 6.105152693613118 2.5111513963489505
Pd 7.798325932940041 5.686382044250129 4.809494689783591
Pd 8.171196428947926 7.615070507672675 6.881489339650734
Pd 5.66787372128453 7.962827652399435 6.301757931833848
Pd 3.232363907742724 8.81834294851791 5.623327623829268
Pd 9.638545935016753 5.176553316129949 6.634938707477135
Pd 8.70562002053257 8.329980621922244 9.592174047764415
Pd 4.1694789695060654 5.1145033529370965 2.86192207141165
Pd 4.162893666144187 8.743421640640085 8.343362973271738
Pd 7.94944661446077 3.1977176087611467 5.907327956173294
Pd 6.342847106568749 7.2560452960575565 9.00671239326903
Pd 6.885717602503899 5.202392745436869 7.362231574571842
Pd 8.71486521200251 5.684016748046796 9.25976763349896
Pd 2.466347777608931 6.48790812908628 4.5742902694206435
Pd 5.117282316220041 5.377540999250336 5.364691517081933
Pd 9.26995239077086 3.17991814193296 8.245025614655765
Pd 6.345029924911436 3.6712570393512847 3.78725140962644
Pd 3.3439955957581247 6.506935497547658 7.060530676525117
Pd 5.303487375248279 2.755553807093913 6.1307357497449
Pd 3.9252533426857195 6.412867912894769 9.655127300252051
Pd 4.413278666944284 4.310559216775064 8.069053142849262
Pd 1.7942232540694936 4.187734189354733 3.4377595395164873
Pd 6.121954423067712 4.904621667075089 10.068829681912149
Pd 2.8556836286742486 4.097048425668455 5.898762286782381
Pd 6.642737025202362 2.7524930898833917 8.420632086028395
Pd 8.165941361690805 3.3879951225053726 10.573772139881545
Pd 3.874443730814247 2.61992030974788 3.893874071502812
