33
Energy = -137.46707832 eV
Pd 2.4253690044478278 8.172710086240782 6.899801705745115
Pd 8.07020221336435 6.261847835338315 10.716380502925682
Pd 6.943481633792434 7.554583247158142 1.9870119110191504
Pd 7.177813824224487 4.044520143232725 4.9521061568722144
Pd 5.008062146509189 8.919469789800052 6.635965643955965
Pd 7.212147315939186 7.84824505025015 7.7404028463114365
Pd 4.311999008474168 6.474541476587568 7.916867125379206
Pd 5.039206862697454 4.024381340987596 6.8868125993405
Pd 6.434819272434771 8.675784398644437 4.400373357415118
Pd 7.970476749789808 8.995210650874451 10.498650847024905
Pd 8.911539622638351 9.992045259198289 8.102711397836426
Pd 6.272554712739557 10.117526721091082 8.800834152880384
Pd 8.74665949229915 8.376415176733307 5.695988339677517
Pd 7.116448373771541 10.489255192120574 6.240745200497637
Pd 6.627956014838005 5.334826998353341 8.57948294602253
Pd 4.92568483033832 6.690716659222784 3.3675395982977316
Pd 12.076636343043795 7.675958626942468 9.313826909698975
Pd 2.687672028548371 3.7284767950437803 5.903991104036044
Pd 9.165533084048144 4.479594949967719 8.903852309957603
Pd 9.4452823089887 7.462940513592128 8.938422291804828
Pd 6.044032589185979 6.33111926195873 5.795916597720272
Pd 8.068441322776383 6.425749036931177 4.056194413435698
Pd 7.525254853671547 3.2029841624785043 7.348097836623983
Pd 3.2894752618039114 6.182936058050966 5.440686876464482
Pd 6.556766437432931 4.855470733688166 2.5174929488427007
Pd 3.881707472727313 8.914038341383392 9.02714194759374
Pd 4.573489884521786 4.1398012637174135 4.179977853375823
Pd 11.107343987362945 5.818908174811823 7.683821000166704
Pd 8.667754416707641 5.745202776121187 6.58397784985115
Pd 3.596387446126369 8.642943564806759 4.475855443526659
Pd 10.89230213006631 8.475540488157375 7.09743533036983
Pd 5.846380650858556 7.453610724872048 9.962515451754518
Pd 10.700664056415572 5.725930333134428 10.57914841742322
