31
Energy = -127.88813397 eV
Pd 6.839854040706031 2.9016326348412864 9.801833219511568
Pd 5.584228904138786 4.933006176949149 10.978907012560748
Pd 8.176701163867538 5.092105561213431 10.441677333508173
Pd 6.401599104793119 6.522407095903326 8.999750918078181
Pd 9.695434896618334 3.948845105824392 8.654166491629434
Pd 7.649466227438814 8.864117487288693 8.738980966480947
Pd 3.9158149798933155 6.8460848136070425 11.034076407625689
Pd 4.763768818680815 4.304365728880371 8.638403945959691
Pd 9.206090398068522 6.6412708143404595 8.548605172527543
Pd 7.299817116663779 4.464292106765591 7.711932476204561
Pd 8.80230803246906 2.7714719060376796 6.38222092737907
Pd 9.756417626991317 8.767432343730835 7.166867955065863
Pd 5.157204966077487 8.738629873177294 9.808926208969126
Pd 3.8008585022872112 6.766117162541453 8.43501930248987
Pd 9.768575730474009 5.270831915819558 6.252166905076809
Pd 5.067767515888626 5.6597669892014215 6.3875841623101435
Pd 5.6173547175036145 10.68336053604549 8.160600057706144
Pd 7.6612597954702615 6.804387263786062 6.35073507855152
Pd 5.647152778779192 8.31969265580126 7.0491182794068985
Pd 6.988732911449914 4.42108441210788 5.065055506097737
Pd 9.907921254654164 7.531903144944313 4.928957836502914
Pd 9.394713317544864 3.9118206641518616 4.086048917110822
Pd 7.401371089923863 8.788042685655409 4.653249325411523
Pd 8.293346158672408 6.214696039958377 3.4982408043840247
Pd 5.837029365286516 6.756472121619222 4.168179113401703
Pd 5.194429581806184 10.232894056032542 5.326704423035892
Pd 9.73772772853228 10.1683814556637 4.893831293535312
Pd 3.842890855605406 7.948282054774547 5.269826981849457
Pd 6.072721894431712 12.500371325072107 6.3372670123296775
Pd 7.438217089989957 11.450934596146277 4.288377491713687
Pd 7.86018642538345 10.556262262209348 6.723651463675818
