32
Energy = -134.14047276 eV
Pd 2.4078413838694344 7.5814141167628835 8.049456846185285
Pd 5.1063789965134 7.724850752989601 8.742000569388019
Pd 3.8303481223748532 9.520635381160758 7.0341806990321425
Pd 2.5696061515648805 7.747073103795989 5.251426826692268
Pd 1.8642321399718584 5.402731954141074 6.644304750117741
Pd 3.653081647664385 5.3436101425326346 8.661586942612391
Pd 4.577939169794267 6.577524300727479 6.499523197948318
Pd 6.430984471783761 9.421505064031708 7.122129550625046
Pd 7.811580090791386 7.395629979351064 8.425804603053594
Pd 6.267066995506787 5.301176594179277 9.239706255044059
Pd 5.058511044892579 8.660980806238856 4.881136772054189
Pd 3.997318977313051 3.822835024700998 6.376847974720592
Pd 3.1355393351020684 5.271848752449385 4.345248877030719
Pd 4.762779479872641 2.9773303844909527 8.721063121179597
Pd 7.457373389817673 9.808220090950316 4.634245582153964
Pd 9.022896344015772 9.207301011744107 6.652352673331851
Pd 4.168313491555786 7.183974393621938 2.866630173884936
Pd 6.5142966998880265 4.630633852061352 6.7740240964752205
Pd 7.356523638029968 2.8037191344933903 8.67812562147489
Pd 9.256006962510002 7.64141809417822 4.321891987171105
Pd 10.105537406693374 6.860372617126817 6.918338079098799
Pd 8.802043753277902 4.9283567306744205 8.075405633783623
Pd 5.79153448796868 5.574400413536504 4.314255397193516
Pd 4.683830179065092 3.1302251246313557 3.8878069878087027
Pd 6.803169238900678 7.739392968808992 3.119724824931913
Pd 8.736317057272428 2.7712025308836474 6.435447392286155
Pd 7.228188967751078 7.182360684192993 5.920530248249817
Pd 6.002307977181764 2.0697499779814184 6.3013646025893095
Pd 5.521001825081622 4.910479014403553 1.9060136376682766
Pd 8.900606962907828 5.1812195808151875 5.3285151981241565
Pd 7.275359885738237 3.3811141608962876 4.313506099256855
Pd 8.088441115263908 5.4685672872606395 2.802371622863596
