39
Energy = -166.46255607 eV
Pd 10.827207831608069 7.329572998801738 8.02004874492306
Pd 11.240842083373911 5.746377690051057 5.848731681120674
Pd 9.439714480598063 5.126284714809011 7.716630598817016
Pd 10.70186065705753 8.398702674756667 5.469712786126147
Pd 8.147691066853248 2.867284329641922 7.349707971854354
Pd 8.484060832673077 7.951266737512325 9.181816207632686
Pd 9.31934504581061 4.017821463909788 5.1923844578015705
Pd 9.747433805837069 9.78124275799182 7.615981809066626
Pd 6.333765949406522 3.421485546748549 9.177855675706263
Pd 8.464209521153654 7.335662279359806 6.596685245646429
Pd 9.284437382946608 6.507517101545532 4.228910969257126
Pd 7.273712437969732 2.4062178027537744 4.8559284584789895
Pd 5.498278682336719 2.268416679035615 6.9460040622461126
Pd 3.7801116953433707 2.856954594911055 8.977337407892716
Pd 7.044748393742547 5.008125892864787 6.125461231698764
Pd 5.789235562733689 7.984771328757265 9.390302404537325
Pd 7.111713267408171 5.792043234180834 8.7423587246771
Pd 4.640920159749052 5.4775835887057305 9.904473852245124
Pd 7.087760932007139 9.655353275076806 7.6793791786834245
Pd 4.753772607079616 4.9439170293484285 7.308493730062564
Pd 7.26178435617188 4.8521609664867515 3.49904810169962
Pd 5.79137293282418 7.4268951225862105 6.724180173072408
Pd 4.939761728793709 3.5095235155950766 4.7542379085999
Pd 2.2687859078175476 4.960705553439341 8.563811845964874
Pd 6.98643609088217 7.67713016269591 4.209695836570913
Pd 2.8560581548410533 3.2621417738539122 6.430332966758851
Pd 3.466622459010955 7.328861186332959 8.26195422479056
Pd 8.3392294466929 9.650205992962322 5.305329671129057
Pd 4.459872338633969 9.80091062309592 7.846529233811476
Pd 5.668143124716707 9.76246470075212 5.35672781053736
Pd 4.776307002568072 6.13558628871909 4.531071039827839
Pd 6.024895955291579 6.681594683806481 1.9987851691311438
Pd 4.9521160190959925 4.257002305719286 2.2832796971394607
Pd 2.5177996628251806 5.945995829118866 6.146535313465199
Pd 3.362489918468292 8.484295578009105 5.831355729455764
Pd 2.6766549287114563 4.5543439305813465 3.8608717899402825
Pd 4.426444067927313 8.4471030573205 3.36963097107099
Pd 3.387163249867201 6.3668184271872885 1.9219277960795365
Pd 2.0157999103200797 7.2432445087867485 3.9473773433328754
