38
Energy = -161.18255928 eV
Pd 2.916044214673025 8.394813540519992 7.261532813119656
Pd 5.9727848264900745 6.454938731832612 11.125155966740014
Pd 4.345893239983191 7.399366903970125 9.307772127403528
Pd 5.476726986406298 9.004254854033311 7.621566783114658
Pd 7.437728562580853 10.623696519475036 8.346920121019659
Pd 7.353460741934287 8.070662893517687 9.519677481827063
Pd 9.727813180237266 9.26065116444715 8.80002689978297
Pd 4.3059962059970305 9.725469577233454 5.347652132268714
Pd 6.8393960376759715 10.334186898362539 5.658399118291758
Pd 6.480175529985458 3.8472915173781286 11.191610118712436
Pd 9.360014763746966 10.676919070566502 6.409860779966319
Pd 7.998977367532424 5.405993013184021 9.68632634231301
Pd 9.584411401306347 6.676323969351073 8.059735149694484
Pd 3.0994421139235255 5.706649038394458 7.530543202297875
Pd 4.607519852152217 4.7080647235691355 9.553372453413559
Pd 1.839364349930281 6.835299705465261 5.381619347149982
Pd 4.640359148455461 6.968175351959717 5.783624191030897
Pd 6.1676841375950255 6.109447453587983 7.8577072420361285
Pd 7.978813409003806 8.334169713330768 6.951957300362669
Pd 7.210126881780676 6.517575182609418 5.403721713204185
Pd 10.758520634228267 8.418266642541393 6.386811394309126
Pd 4.798746755817689 3.7629286442422982 7.094633405482529
Pd 8.343223249211158 4.63305557134307 7.006565772272583
Pd 3.429705575764223 7.954149687613461 3.5904257965074184
Pd 6.1711092963645 8.417187072479859 3.886561853955196
Pd 8.825634939232126 8.718688004725424 4.469307283560344
Pd 9.809170069478471 6.200680752036791 5.305592701649631
Pd 3.32113715967917 4.688998460903438 4.926397673113591
Pd 5.92835988722378 4.414683885776806 4.812113656738772
Pd 6.826297316336797 3.187957741687283 8.663359409298506
Pd 4.4464972266164375 2.1346785511907194 5.038646820900311
Pd 5.159616377134823 6.111377560519306 3.0024023335763284
Pd 8.119670149669187 6.55142087117418 3.0132912878378093
Pd 8.486002788773606 4.082733426260239 4.323292518384276
Pd 7.04455826826858 2.456744423521604 6.14484955122853
Pd 6.903959265179778 4.380018617802056 2.1124051290560035
Pd 4.420929344220629 3.513322623401246 2.7097825851299047
Pd 6.6967906292898185 2.1102904787209766 3.4939846809632717
