39
Energy = -167.25340041 eV
Pd 6.028724187664883 6.028788991345017 7.408414878693441
Pd 6.028913162911296 6.028788991345017 10.187731702114196
Pd 3.6874799189351983 6.028788991345017 8.828831797502446
Pd 3.703024705998496 6.028788991345017 6.028788991345017
Pd 1.4411303156694486 6.028788991345017 7.385531619351733
Pd 9.839247844047375 6.028788991345017 7.404355673498402
Pd 6.028724187664883 6.028788991345017 4.649163103996595
Pd 6.028913162911296 6.028788991345017 1.8698462805758382
Pd 5.3051887467166905 3.8020608894547676 8.829093560434002
Pd 7.9232673386253385 4.652262754974068 8.828837136647993
Pd 7.9232673386253385 7.405315227715963 8.828837136647993
Pd 5.3051887467166905 8.25551709323527 8.829093560434002
Pd 3.6874799189351983 6.028788991345017 3.228746185187589
Pd 5.3051887467166905 8.25551709323527 3.228484422256032
Pd 7.9232673386253385 7.405315227715963 3.228740846042045
Pd 7.9232673386253385 4.652262754974068 3.228740846042045
Pd 5.3051887467166905 3.8020608894547676 3.228484422256032
Pd 5.310145502596152 3.816828286995535 6.028788991345017
Pd 7.910884066137156 4.661535053298638 6.028788991345017
Pd 7.910884066137156 7.396042929391399 6.028788991345017
Pd 5.310145502596152 8.240749695694499 6.028788991345017
Pd 4.610878185495967 1.6653086226900362 7.385367581086701
Pd 9.740133947041922 3.331921664525625 7.385465071486426
Pd 9.740133947041922 8.725656318164408 7.385465071486426
Pd 4.610878185495967 10.39226936 7.385367581086701
Pd 1.4411303156694486 6.028788991345017 4.6720463633383
Pd 4.610878185495967 10.39226936 4.672210401603336
Pd 9.740133947041922 8.725656318164408 4.672112911203607
Pd 9.740133947041922 3.331921664525625 4.672112911203607
Pd 4.610878185495967 1.6653086226900362 4.672210401603336
Pd 7.205875361426887 9.651967812536686 7.404246942902393
Pd 2.9463304108268487 8.267805231628621 7.404389080213196
Pd 2.9463304108268487 3.789772751061413 7.404389080213196
Pd 7.205875361426887 2.405610170153347 7.404246942902393
Pd 9.839247844047375 6.028788991345017 4.65322230919149
Pd 7.205875361426887 2.405610170153347 4.653331039787494
Pd 2.9463304108268487 3.789772751061413 4.653188902476695
Pd 2.9463304108268487 8.267805231628621 4.653188902476695
Pd 7.205875361426887 9.651967812536686 4.653331039787494
