33
Energy = -137.71504888 eV
Pd 4.803263421319056 8.372252656396741 6.341716192860109
Pd 6.462366155642903 10.057594875240106 7.494749722807409
Pd 10.57807419649636 9.66818488796827 8.532476970114846
Pd 5.5430749578484635 8.025857710202764 9.025644217584544
Pd 5.025694612905022 5.602477378306498 6.953924477685829
Pd 3.792920591502714 6.27555192873266 10.328953337597259
Pd 11.138262797966597 8.069170432882206 6.3739770956143955
Pd 7.0014935310702295 4.69433252834194 5.402093530913028
Pd 9.887917630283829 7.046268345716988 8.527043891616932
Pd 10.565841004626705 10.753892934513885 6.102532315326356
Pd 8.137384501617687 6.713168924002963 4.1388928404398975
Pd 5.343449693744147 10.856603930590495 5.292007120308172
Pd 2.4288992682177444 4.6176648533982645 6.744170625264795
Pd 4.074486492428645 2.5096457821428384 6.699411345627773
Pd 8.719058609426257 8.919777253029078 6.758948684051873
Pd 6.016709954246848 5.3313594212950886 9.43703407582572
Pd 9.477342456746495 9.120925350856474 4.233834475589183
Pd 6.866750589433439 8.853905352803297 4.759033366855078
Pd 7.245142102153869 6.901996702766139 7.299128484289619
Pd 10.751466372434948 6.795420189601684 4.130643598156414
Pd 8.027057876424536 9.27847497179731 9.318795332987646
Pd 9.496067706159566 5.7708398009244215 6.246891073057572
Pd 10.015755075383208 8.379127354690374 10.778126212359041
Pd 3.1239763928647353 7.006779498895014 7.955873361068491
Pd 3.851891271401331 4.029061832630763 8.856611524586294
Pd 8.472128693384008 4.814390469237733 8.60854946719423
Pd 8.79539962873294 3.202340201372518 6.589899409830904
Pd 3.0398555205322566 6.7189504293126845 5.2592309704057225
Pd 7.875989210005723 6.83520628825052 10.285956181576369
Pd 5.541436593595254 6.628090074918506 4.343720310633344
Pd 6.363693784728883 3.3281716899080975 7.592338475611765
Pd 7.991126370969888 11.179130065028923 5.502634640698348
Pd 4.320951155600898 4.291107341615758 4.753527537961351
