37
Energy = -156.99860605 eV
Pd 4.655030514547166 4.949578711956982 0.3687428492308606
Pd 4.364103838140022 2.277139003109437 0.5027356079277207
Pd 2.1840262622082567 3.9883972982562836 0.8740609493068566
Pd 6.561065489792341 3.484440741025584 1.7113713635389962
Pd 3.068107058832422 6.212092860293748 2.1693913731142533
Pd 5.7142838086334935 5.834910913234083 2.699691223986083
Pd 4.086966880240463 3.7659578571542522 2.795657926791222
Pd 0.4601125656373 5.648081466461062 2.3677046116427047
Pd 2.5031575896277354 1.6411390411513382 2.331317629424267
Pd 0.07775537411040953 2.891762778572427 2.0605959583679225
Pd 5.260747051652489 1.4001089738337833 2.953538851542844
Pd 7.3822889793932145 7.644998930929445 3.6670015727429157
Pd 8.065071944095372 4.95757086441572 3.498856230480955
Pd 1.6562324800239345 3.899345194582273 3.8448298640369054
Pd 4.476270109132621 7.942626471224952 3.6566298758612277
Pd 7.763717321679912 2.2187812751830815 3.7021482380334345
Pd 5.856928098979317 3.799461698624887 4.821391601708565
Pd 3.5534159765421434 5.498114830019945 4.844535083069543
Pd 5.953451584775273 1.2056610493212256 5.552481731384001
Pd 5.977093068709376 6.385094771600183 5.47329176363453
Pd 8.341271762001732 3.765326701973617 5.866456005234778
Pd 1.7945633969983237 7.327732526915779 4.24722334066299
Pd 0.9165577263971636 1.5009651038302667 4.449946671612587
Pd 8.523291309172185 1.1691417703302214 6.058832648804579
Pd 8.551821266225517 6.371012228050807 5.795075800332611
Pd 4.582658076759025 3.0274930924864787 7.04444455057778
Pd 0.08869251089569209 5.493431251652625 5.12718366573843
Pd 6.043321567308967 9.0740252575313 5.572626466068354
Pd 1.6621962882524535 6.539567023510628 6.935214557089429
Pd 2.153124048818163 3.9237848951970715 6.458951836433355
Pd 3.480711299223108 2.0812088127976374 4.88890244499242
Pd 3.709004738795255 7.960749116903898 6.207350210745378
Pd 4.120339972319579 5.575334813111733 7.523874270643229
Pd 6.885548407743265 5.177232953419675 7.6237574287398076
Pd 7.038130571747808 2.4798848353415845 7.814503641516987
Pd 5.845560441352163 7.604681684867115 7.85593623535919
Pd 5.357755708586212 3.9975382904794117 9.348121008973827
