37
Energy = -156.9760496 eV
Pd 7.024076609101474 3.849286749002294 4.129287231450254
Pd 7.484309683584234 1.78518544728675 5.741410662069804
Pd 6.611043290871104 5.914641730795748 2.4824348685243542
Pd 8.9957159925353 3.958051607045265 6.147568819926965
Pd 6.024740368159471 8.21024078646603 1.2036533538227685
Pd 4.071665509118035 6.896302424534793 2.3223920777048397
Pd 8.522890202301427 6.02010248609879 4.46035656590289
Pd 7.837288105320604 8.246451492707429 3.089758412420525
Pd 5.171248255399161 9.013805591097745 3.598079248629005
Pd 7.389372568442719 2.9392911154317267 8.186716512210896
Pd 10.42437212924255 6.166540339196362 6.432746130022452
Pd 9.690550976340129 8.375595650963467 4.912875332230394
Pd 5.973049179640366 6.8431414984469106 4.911618897761115
Pd 4.519743655848833 4.842781377275194 3.967870726374482
Pd 11.567638655091597 8.547294751168879 6.762475671810914
Pd 7.957778322139936 7.08561617358374 6.943279429637298
Pd 9.111310879683725 9.519100663498845 7.221753892129705
Pd 4.969694951161341 2.8253927531698664 5.656301793158428
Pd 6.519087703471838 4.802770458813924 6.54835505180445
Pd 3.380366660230292 7.245377461933588 4.867807854006222
Pd 10.127569661151739 7.575068581362259 8.742765626865312
Pd 5.680029270588732 1.0315690522275045 7.49978444340562
Pd 4.566964021540218 9.283366383518723 6.194614117854836
Pd 8.875845851113404 5.16069534820853 8.547263846738124
Pd 7.131766558400688 9.247337584204413 5.455726337792644
Pd 3.7776849691483902 5.146890306789515 6.505319399106807
Pd 8.753295418762626 9.691856434082334 9.780518207435877
Pd 5.349068798404084 7.153179542519454 7.539911473959557
Pd 4.630309631817397 3.2952864782224007 8.29622186566797
Pd 7.6582997061105615 7.341309579233334 9.627390124406451
Pd 6.251338779890727 5.184262152161524 9.24278509085065
Pd 2.7361647470421766 7.50971437733084 7.4079025225893185
Pd 4.002984579333818 9.530039279836995 8.787006261649122
Pd 3.542605615193638 5.487513385043732 9.146973584887748
Pd 6.582781867012625 9.438686363403969 8.14406173764998
Pd 5.126585901741481 7.530897769250634 10.149997099144603
Pd 2.5124497349439068 7.7434228135956165 10.015403200647912
