39
Energy = -166.14367747 eV
Pd 6.455737035147206 3.2684961278152818 1.0361806100274698
Pd 3.8272412087545677 3.1319486023092717 0.22236251678103586
Pd 4.913374291814462 5.655396877002175 0.8281597547322024
Pd 2.3411167878355816 5.032063503855015 1.6223448826400477
Pd 4.641593195456859 1.155682723125649 1.9894158394158128
Pd 5.776608186657017 7.834864918963317 2.401196398980924
Pd 6.6734592315658 5.276261069642472 2.878286092418747
Pd 4.499249096556452 3.6600680617981087 2.7155363473895533
Pd 2.0923258855411917 2.374483430249565 2.3160773430910964
Pd 3.13949860710221 7.70133567391514 1.5980495081125055
Pd 1.4334452775378177 6.710370399891696 3.6139841244024495
Pd 2.549918948657194 4.253960781444318 4.333380575513734
Pd 3.640404582466164 1.7657018303946876 4.470652309029415
Pd 8.567694925895369 3.4411062819091955 2.8231447913675196
Pd 4.1376070889438346 6.1168651843602095 3.466917793147475
Pd 6.08678030833476 9.304428171571386 4.636223374177403
Pd 0.16845297623319933 4.231874521416238 3.146531130339893
Pd 7.308109161540871 0.975022522372582 2.136266954148716
Pd 6.485849403692702 2.529008370461354 4.026411903018207
Pd 8.03263466080877 7.292265089756829 3.8948696763528523
Pd 5.110856784665118 4.332149750469114 5.34052569706633
Pd 0.9809099962229202 2.2826241518238226 4.925080476387486
Pd 5.9156766615443255 6.820577341653777 5.285665451747538
Pd 5.683230610680182 0.09841858123970029 4.331065905195331
Pd 2.9136885649449136 6.4688172350797855 5.8832304956859405
Pd 0.5434154396446385 5.084585863961434 5.742179093335971
Pd 7.98212695494822 4.801165102713785 5.1589491579243365
Pd 3.5480247557327904 8.53736900178879 4.199304492537546
Pd 8.018931924493218 2.1456985299559848 6.01854521943159
Pd 3.0981627618947196 3.5954863932974477 6.8493339317214375
Pd 5.305734332148732 1.7115985718837496 6.551702234188169
Pd 2.6039299630365456 1.0656175726000658 6.776702061404854
Pd 4.486607626232178 8.3570341193016 6.788716400408524
Pd 7.331711002480765 6.445298497736302 7.357732038994656
Pd 4.680584510304724 5.768583730193669 7.7673387528250455
Pd 0.6465857843025535 3.0414672791511927 7.479779473254446
Pd 1.88936015608523 5.5030625668030275 8.095129740303927
Pd 6.681850004903463 3.9309328351909745 7.352586135435344
Pd 4.676974594011688 3.167772021719524 8.809904605883215
