38
Energy = -162.56441326 eV
Pd 10.241487161702487 6.320726934564466 4.759358541568937
Pd 9.97791172417093 4.469917082640945 6.715642111807819
Pd 8.645403436045028 7.141047100508722 2.746825938558153
Pd 9.01142439583478 4.052203693991766 4.246781777907945
Pd 9.453670164859517 7.283596419466391 7.133600664427626
Pd 9.043919905941713 8.692115717057979 4.955129277597758
Pd 7.5115276865259615 4.819862293883065 2.2331276741034887
Pd 9.707395594623424 5.619996165031811 9.20872151287416
Pd 7.758981621513144 2.938755351974143 6.315254109294426
Pd 8.658042425092978 3.1833588674550004 8.788043688784128
Pd 7.640375751778911 5.427627888569386 7.403266438177228
Pd 6.633635597166107 8.563414528257631 3.7809317903148276
Pd 7.522937296624871 6.114065717126754 4.8892593105242135
Pd 6.1544479661770595 7.089195833164115 1.6729319789752595
Pd 5.485965541307482 4.695574804171098 5.997500119335928
Pd 7.88922670789628 7.561322281376248 9.311192517841757
Pd 7.142838158897628 4.977606935597599 10.067679229415283
Pd 7.278354064440924 10.664776201871367 5.195984656394711
Pd 6.505428696898955 3.0754661573146542 3.9817109489909437
Pd 5.129890724778801 7.260023074710854 5.622734970676716
Pd 5.9781656587553025 3.3868056155868533 8.328953075015129
Pd 7.111753958427467 8.645423438488809 6.918101456665082
Pd 5.725280432073601 7.021233245423456 10.908366662986577
Pd 5.834729557896448 9.241814017471993 9.37037763847522
Pd 5.185742936998207 5.366969184661145 3.4040349501121785
Pd 4.680586542798851 9.868309970804118 5.044612064342519
Pd 5.573217092377065 6.747619362257452 8.16856278140219
Pd 5.709556417019091 10.93447744944491 7.327395232205386
Pd 4.0434694632136035 7.833023686924734 3.266138439078519
Pd 5.313900519270162 1.939514640637411 6.191141097255003
Pd 3.800843507045536 3.274540356740842 4.45937262384907
Pd 3.466556388437826 3.7587909173061296 7.290479180200433
Pd 3.999146177336652 8.95391514672096 7.470810218231106
Pd 4.261595686922355 5.034029544112206 9.566460387106552
Pd 2.9409121873538706 5.725939999591603 4.808197742270308
Pd 3.447472466436123 7.668921176692873 9.689692882408155
Pd 2.4928106340854055 8.270411539686501 5.4210616172985535
Pd 3.05155570469407 6.387767612132165 7.350724646944383
