34
Energy = -144.11006409 eV
Pd 3.5203827949637545 2.088951242174652 6.768219771861816
Pd 5.906562835574706 1.8768987807241038 5.622594862032357
Pd 5.517563587015822 3.216701624900955 8.139207045051434
Pd 4.818554399698768 3.2682862221667888 3.356835744508635
Pd 3.2349057368175136 4.516586981499845 7.81124452846433
Pd 2.631341417340437 3.916069545856441 5.078599982076801
Pd 2.9645802200663303 6.435253206317603 6.012978826859037
Pd 5.2554112333112855 5.498558532624972 10.012586083581475
Pd 5.13293674099976 4.366144474016588 5.6381484375057065
Pd 7.770957105238342 3.432010506371477 6.756950045898046
Pd 7.581968792423613 4.34619130602715 9.27394874521751
Pd 6.280450957817824 5.519039617805311 2.9894143013799512
Pd 3.253034250140059 7.0134761391109635 8.670168738737896
Pd 5.566654780431575 6.055161467690403 7.579663756233581
Pd 7.51580993534475 3.364918876776692 4.018139477158429
Pd 3.6237031656068366 5.797377060328334 3.411692292169308
Pd 5.351160130249721 7.022058038618943 5.055758552020538
Pd 3.249344101928032 8.496252703772752 4.288399018738877
Pd 7.510380375852356 5.670492011397883 5.443952534986612
Pd 5.224881320568534 7.967179820513825 2.534735798979245
Pd 7.698912824077723 6.941949287705421 9.346491324162264
Pd 5.474756690453128 8.374494058849814 9.12048461721676
Pd 9.109849906706346 5.680835011983699 7.493657167194204
Pd 9.856048152063979 4.307857009703582 5.27880937765869
Pd 4.264254719686 8.705967757664435 6.783295387640548
Pd 8.968762825167769 5.569971958711607 3.0983972446685346
Pd 7.19079177596508 7.975321992826315 6.826750058117598
Pd 5.841419495676128 9.639760470390707 4.721651094701844
Pd 7.841047261782894 9.588400727693145 9.287474477244071
Pd 9.602239664475489 8.311970515076947 7.747117974172824
Pd 9.745161145277628 7.182789888982561 5.271819028466247
Pd 6.3224631183998286 10.385500255038673 7.2779610419575995
Pd 7.618539827571453 7.8206845982056805 3.758501476956234
Pd 8.52302660536495 9.691122495997858 5.494449532172694
