30
Energy = -124.27833161 eV
Pd 8.525810910398445 2.9902183243301 4.753677109967428
Pd 8.494444539132582 7.541244632568996 4.398630021957979
Pd 9.062704425343068 5.280622510789467 5.783658708023681
Pd 7.39293737307609 5.248693177572638 3.6144164781526538
Pd 6.154266406466625 2.851461622800292 3.57686525212592
Pd 6.587156261480575 1.6668124960655686 5.9273710983622045
Pd 6.897905898460629 9.518491037548605 5.443275460667529
Pd 9.621571018040195 9.709538582145695 5.442374533239112
Pd 10.125226173330548 7.438352725763776 6.7566629954976225
Pd 8.7921937160448 5.720223781409724 8.481815475748684
Pd 6.322568948105155 4.643596114051006 5.934910848642056
Pd 5.787483175175094 7.224503349597487 4.5847641201593685
Pd 4.5967164858559855 4.960477035377137 3.944408565676919
Pd 7.9974469664503705 3.4026176906035204 7.4729001124005725
Pd 4.274928862920731 9.206427447707577 5.655460370515407
Pd 10.96801846795085 9.724757591697585 7.773874729953555
Pd 4.193912085056186 2.8032171162838346 5.43567449928121
Pd 3.2097881603581966 6.737307087367303 5.188031881549315
Pd 5.273780695451147 2.8735922194597125 7.8941177974382555
Pd 7.396334584074551 7.2256981624137415 6.789222872924922
Pd 3.7637599738655156 4.860566348368666 7.017440489600754
Pd 1.6859701058644416 8.730815128260554 6.041136554297505
Pd 3.164044767957406 9.283455545702385 8.1418899751457
Pd 6.144562253589819 5.234038656149907 8.58944754879308
Pd 9.665125824857833 8.013855222304917 9.369886995828017
Pd 2.183793139073642 6.8183956442879206 7.745711813445954
Pd 4.83702025168878 7.249873333089893 7.454023771329947
Pd 8.327762712327951 9.582724230922155 7.757980615880552
Pd 5.749014254420064 9.700843350344886 7.906131046978584
Pd 6.927861047676909 7.689376751164598 9.30966563780038
