32
Energy = -134.26155429 eV
Pd 5.346836814912226 4.39426216645904 8.346743010977647
Pd 6.716982725542747 6.6773581982737324 3.646412811530614
Pd 6.717250848225805 5.371739060395275 6.04793052071567
Pd 5.358229361869798 3.130432812925207 5.994324950651927
Pd 2.3557991257605786 6.727110423703087 5.3262133605650614
Pd 4.5037900895897405 8.093521458855863 4.469917991516373
Pd 2.2702549126513136 6.716737533842863 8.116094161355756
Pd 4.555888227933067 6.721420616946005 6.863281314225075
Pd 6.717031911788786 9.407205854821136 3.709323731271047
Pd 3.1796950265994797 8.95758942793062 6.770932104856772
Pd 3.1790660218917606 4.487849261775724 6.7672680502064715
Pd 5.360006833344505 10.31458285009787 6.015926144183313
Pd 5.3398993403126305 9.056018931397913 8.368364416377258
Pd 4.427400480602544 6.714866388187421 9.65923423585832
Pd 4.486832647855116 5.317012389967056 4.4670310979477446
Pd 8.878997565601772 6.721444020570031 6.8633462311766085
Pd 10.255309654332569 4.487775392958195 6.767305113814469
Pd 11.07850824266039 6.726998052069992 5.326154184729537
Pd 8.075739435196157 3.1301804623375853 5.9942124899460865
Pd 10.254779301430966 8.957583373080743 6.7708473942593725
Pd 8.930707023762315 8.093536719260888 4.469565567070992
Pd 6.716940965756849 3.977095568071685 3.704452291178632
Pd 8.947499566632729 5.3168487148573975 4.466889713628439
Pd 6.71734573146304 8.098448561741282 6.0574015853155885
Pd 8.074047704057628 10.314709104031206 6.01583208210335
Pd 6.717318653531942 6.729385002565143 8.336799974834161
Pd 6.717028233988405 8.100634022422486 10.560483130728045
Pd 8.094197682614588 9.0565203277045 8.368714393462913
Pd 11.16407456195049 6.716635686336742 8.116420318877905
Pd 8.087282410141757 4.393863730177536 8.347111931779843
Pd 6.717014461515552 5.3243998312131655 10.554260759872243
Pd 9.006714145339107 6.714703617414241 9.659674497374699
