35
Energy = -146.71177298 eV
Pd 5.9982212377147635 3.31501560349466 6.658893780061355
Pd 4.305016236068425 5.891715711216608 5.429765658941176
Pd 5.613698525220651 6.450367621034333 9.997487106578552
Pd 3.4027955362426603 3.3792217643812563 6.2547004440400125
Pd 1.8548412259807103 6.858533931965339 5.043042931813101
Pd 2.9229963413972375 6.5635522689122965 9.512436825745226
Pd 2.05938658269775 5.411267249483119 7.196675092516877
Pd 6.9188386832979685 5.169664848554995 4.910021791444429
Pd 1.9234268347382308 8.030123247035927 7.450279898099606
Pd 3.5750808831355845 7.533601344709323 3.162151696406707
Pd 9.62050120931601 4.300496842663515 9.016203435824393
Pd 5.311201797359212 5.7044737329345505 2.7892940939332633
Pd 3.780411098748969 8.625297686052269 5.541520152947872
Pd 6.848395626195017 8.553705253751255 9.031478910966376
Pd 6.099011040103683 7.740853585916582 4.432075268257076
Pd 4.539344531556487 7.854530879219693 7.916294154038031
Pd 4.5446167763764675 5.021735402940361 8.032762954486632
Pd 7.747638782874506 10.965137053074482 5.293661094492529
Pd 5.025893692670565 3.4163823781348115 4.174439429306541
Pd 7.79702096917156 10.806251365375038 8.007517075196452
Pd 6.0824249607701475 9.396386398112863 6.493090397367579
Pd 7.926159190065119 6.47176825732899 2.711026658865646
Pd 8.315830579888345 8.885189399571717 3.852092292798075
Pd 7.106534470901979 3.7814625348736604 2.49456727216259
Pd 6.846877254996161 6.679314670797654 7.1305334274813115
Pd 8.306286175611914 6.543159200617617 10.079869982513008
Pd 8.765401093588105 8.822826221664428 6.502134733783599
Pd 7.039831775528997 4.561758563003812 8.749120508764538
Pd 8.157204217203745 2.309998905987248 7.741791593139523
Pd 9.145791414461996 6.658014966560391 5.086000911292494
Pd 9.435003204166492 8.901106290393768 9.084151072662326
Pd 7.729638227737039 2.505102996152128 4.8389600494452445
Pd 9.377066028809729 4.366474654156921 3.7622886457521436
Pd 9.458991387119164 6.63706285693336 7.731618700823368
Pd 8.933913545405183 4.391990028726922 6.441226116560508
