36
Energy = -152.11931851 eV
Pd 10.440032505969288 9.98062907568568 8.173332842025122
Pd 11.245198941032196 8.1094692530675 6.502270180522557
Pd 8.731746808831577 9.031763985941312 6.271527566970887
Pd 9.752890174808087 7.681511524890854 4.293830282589434
Pd 7.905411564573736 9.831729881199728 8.665536635752273
Pd 9.393092994917918 7.50879531500557 8.465432102326858
Pd 6.114119751158242 9.280604240181423 6.696692778371989
Pd 7.040745763331935 8.343020436084341 4.310032841343166
Pd 9.867865114893245 5.871017575027135 6.3387750386251325
Pd 5.3410301417684956 9.774953117043284 9.222880631648984
Pd 7.379574299553117 6.708353929592191 6.461170815615783
Pd 3.5073638297295333 9.149662636236762 7.389819522693729
Pd 4.3344978430058 8.604999584249514 4.819873049134211
Pd 8.17710415127802 5.624456163467447 4.117597108360126
Pd 8.112888709917103 5.15996683853811 8.466674882009183
Pd 6.742775654661392 7.462720056305187 8.982726290432263
Pd 4.065905611428902 7.448058617172958 9.459017963766001
Pd 4.760269916668879 6.860454536930505 6.941633458419876
Pd 5.456183595861683 5.117242772539089 8.980438051105791
Pd 8.396243143817903 3.7296962453758584 6.150199217538522
Pd 2.2424037650203172 7.247436875134624 6.045095185935308
Pd 5.239419706420366 7.777584602996013 2.3910907558507946
Pd 5.491926955480829 6.10714562996552 4.436162885743979
Pd 2.7508559025510437 5.527763048186395 8.205365520928535
Pd 5.857998486154861 4.393109110241718 6.415348244445193
Pd 6.4606598210735395 5.341104126944265 2.114339435225792
Pd 6.765151621016005 2.8126198396899005 8.273302759863745
Pd 6.672758946467149 3.4400693960921185 4.02023723682899
Pd 3.0134392101247447 6.541468421110821 3.6057790275396493
Pd 6.97225867704592 1.524419645335095 5.846144156207473
Pd 3.2426609609108095 4.757127950740696 5.685015349475405
Pd 3.8998408017043436 3.206344576854106 7.88187264760435
Pd 3.955766969516028 5.771007374267593 1.2531919969308312
Pd 4.1843261875365405 4.074585434822328 3.2850895447756887
Pd 4.460883008558198 2.3532519467053623 5.320186606569993
Pd 5.042751201564402 0.9066972375481182 7.51715683992613
