37
Energy = -156.87752085 eV
Pd 5.795136464400239 1.7396938151822634 4.388250208818706
Pd 8.212339813377442 2.6374161140377708 5.196734548930485
Pd 6.259451021871061 2.2233616492197243 7.019534408957163
Pd 8.859670227853837 2.3174688700643817 7.771144713304881
Pd 10.2541208629381 4.123140814002467 6.013866634621704
Pd 7.175291413859223 3.478482904912534 2.8397932460572286
Pd 3.801577952007259 3.08162295027415 5.6806893600037105
Pd 8.483930454923009 5.194852245965798 4.3280461459357635
Pd 4.536359051058778 3.686514588741508 3.0515543996122503
Pd 6.8323039097954155 3.4722904559757155 9.358473092983939
Pd 6.1081990285883565 4.367035877763955 5.335764146658623
Pd 10.445120084714432 5.635635397660133 8.182312014745794
Pd 8.02024291020874 4.722826753383633 7.375671457974428
Pd 6.087134653638379 6.011991084578647 3.2107580691319315
Pd 8.132006477264078 7.761221124519527 3.8112264424483246
Pd 4.858744088977439 4.266685928290061 7.8024704130461595
Pd 8.545487630633705 5.420244446631584 10.012184391600956
Pd 9.725390909531049 6.893604188431923 5.887309425769177
Pd 7.025407427193458 6.744765697165621 6.1374415110729235
Pd 2.444311668653799 5.161230957488571 6.839027046730942
Pd 6.156999119790202 8.489200789734205 2.1582680264983813
Pd 8.522827230388648 7.462063983979738 8.30826577604071
Pd 3.8048011632132024 5.605084942322298 4.604843904091324
Pd 3.732058285526042 7.642867986832041 2.936744170115088
Pd 4.5101005432116965 6.823768932193837 7.0070528175920685
Pd 5.484390125896157 8.315269020802395 4.799897840475238
Pd 6.160951185409335 6.247573077152617 9.08237556022976
Pd 8.18608739088858 9.177618385984125 6.176804957926994
Pd 3.421800854117 5.718881900368388 9.387664375433157
Pd 7.2145334136563255 10.240573033204749 3.8588155806425632
Pd 2.5147754116528813 7.710733086243115 5.3791335988583
Pd 2.0076595416017926 7.570425268715437 8.050842220452791
Pd 6.239651839725035 8.739352131004894 7.885039047476432
Pd 3.58602095133074 10.020365272779031 4.482935204600621
Pd 4.228531844175187 8.231803915333762 9.477023131129414
Pd 5.8397658252658475 10.655639625715843 6.071627942723602
Pd 3.73103241776762 9.414786228272552 7.088063955960899
