38
Energy = -161.44536041 eV
Pd 10.860874383147468 10.031127949110276 5.420966245154048
Pd 9.516384478942692 8.185120092398344 4.152877818916529
Pd 10.483440013560745 7.695855778924598 6.63522309192765
Pd 9.250399810826544 5.748576407474311 5.143357632964825
Pd 8.211729389070838 6.482013801174715 2.739356286231147
Pd 9.809118393601354 10.061292779803887 7.836995849256396
Pd 8.235174793045493 10.149211651833614 5.673010430379885
Pd 9.70413405780574 5.491429677584797 7.76571890638112
Pd 6.676140000993468 4.8352522583125825 1.4659212074893986
Pd 7.806331176899231 3.919450407168142 3.7108663864331755
Pd 6.9395601387162715 8.613949035079875 3.9174462554033087
Pd 7.775610221452341 7.703614763236597 6.516017172345862
Pd 8.888401460492542 7.870239371894476 8.894110207790785
Pd 8.58959817493413 3.4031031832223917 6.249384508724086
Pd 8.82943443218841 3.3590765348194456 9.009424615166331
Pd 4.947567228328107 4.321977508034288 3.3535934941418413
Pd 5.408405038882646 6.923579187692298 2.5331573227883037
Pd 7.205205049287609 9.995213674137373 8.23269057499297
Pd 5.686389661924881 9.511401105620775 6.0630479944757045
Pd 7.071974043878979 5.303586333306092 7.356851576086926
Pd 4.301527667237924 8.868359143904083 3.9389393455832713
Pd 6.485119041831962 5.99308613926761 4.812200819741711
Pd 6.469774176854437 2.7752506451920165 8.108836276576232
Pd 6.22249583792258 7.715410740747781 9.114887972356728
Pd 5.987364214400984 3.3344732238100616 5.563560913188415
Pd 5.088465443365253 6.96803974212855 6.838392011942416
Pd 7.776256571892815 5.660225632533093 9.812601777658902
Pd 3.6839796077776334 6.417421175969119 4.62384827118407
Pd 5.148587931479315 5.468459067421321 10.000839470537352
Pd 4.56800034967288 9.793548208874364 8.396382272566557
Pd 3.36675525857717 3.9041610784201324 5.377778346498599
Pd 4.5211370563197555 4.504292472062703 7.717221207502568
Pd 3.077121244109372 8.528844865091287 6.375990161121173
Pd 3.526143295765554 7.474889204049798 8.9289730737964
Pd 2.388112520027912 5.960694841766437 6.926300518996529
Pd 4.235758080641587 1.8819037357025667 6.975356013590326
Pd 2.566477662170476 5.151628879934641 9.55254394400675
Pd 2.0681031589239516 3.371290769245999 7.64238109305321
