38
Energy = -161.03990545 eV
Pd 7.726263068769146 1.7361138334388295 5.626780266536786
Pd 7.991092122294328 2.801659307254817 8.20219051628431
Pd 9.52206116289488 3.6628538978798337 6.133732303053206
Pd 4.9434837423903355 2.2328618221567322 5.784978639244282
Pd 8.6073239201791 5.460791850296379 7.8728641690245675
Pd 10.587180946500572 4.475795615777992 3.8965198764763445
Pd 7.975601623515701 3.9489569452186455 3.923876647103067
Pd 6.988476083809795 4.651709702701055 9.88527345609374
Pd 10.15449871752746 6.3164648664110805 5.758278187983754
Pd 6.709202935433618 3.9898642319300386 6.308919320416704
Pd 9.032487630452339 6.462768042889286 3.178629693843618
Pd 9.19531213266264 8.047620510582105 7.569818744327682
Pd 5.2561397005760515 3.216687191850582 8.408441919032766
Pd 7.39716283355983 7.2745393893588535 9.468675111074663
Pd 5.2873568256638785 4.357856890357633 4.083153680049353
Pd 6.797062169830932 5.447634451251057 2.1252046065440515
Pd 4.665227684073263 3.924925378070726 10.935409804434457
Pd 8.805215043593103 8.569249449418525 4.8984553322110145
Pd 7.515358119163536 6.260507723872808 5.371781107782415
Pd 3.8069360534501016 4.552177513747944 6.489237911932675
Pd 5.798548055543554 5.9237369255949845 7.795059334705658
Pd 6.66978783902315 7.812674201835733 3.3869870926303487
Pd 6.684427075133554 8.3093605470005 6.898213153268348
Pd 3.109182471113319 4.729406051607097 9.020338467229287
Pd 4.441888704939765 6.538915309509526 2.5963976952931893
Pd 7.683047671367963 9.819362872484065 9.12160284927568
Pd 4.895455251676932 6.77969000448052 5.324424313110426
Pd 2.756916145407435 5.3451567149205275 4.259867817256328
Pd 4.8537362159686985 6.4808907055317455 10.165342938297158
Pd 8.476212008858294 10.536241485667027 6.603692196183898
Pd 7.865804075561939 12.299196016949393 8.412411402296028
Pd 5.0997776012232015 8.836293642850817 8.989975238475456
Pd 3.3812966036557284 7.019443871511527 7.764937236708207
Pd 6.451932706939097 9.997109622901535 4.891238496232985
Pd 5.8778925817057965 10.952887358375085 7.424705392201181
Pd 4.207648973167398 8.906708344156208 3.8255912513392647
Pd 4.185298239929492 9.223077284856405 6.4512742404376615
Pd 2.3408422613877162 7.677573452770774 5.398211201876216
