39
Energy = -165.18471985 eV
Pd 9.052418069985018 6.260970392341555 3.859201763276955
Pd 7.28517196482668 4.200791430621157 3.949238584360247
Pd 6.805713570209629 6.248963548198558 2.369397136267879
Pd 10.201350381306897 8.752113683786034 4.340981395815414
Pd 5.02423354251403 4.240131524761743 2.4667253095908457
Pd 8.956983811180429 4.6096407594576485 5.945208678346552
Pd 5.283532502573721 2.6370688808495046 4.5787156843456644
Pd 9.585656244935468 7.127566575125398 6.3701879230445195
Pd 7.820672742949339 2.1878791836982416 5.612841827626702
Pd 9.338316507704885 5.5602344186043196 8.427340963855817
Pd 8.137913065014471 8.452133926300599 2.6986617924892666
Pd 8.271245869538202 3.140823152387066 8.071016557880807
Pd 3.7204309700734743 6.6011833346166355 2.742705567606318
Pd 6.936485430376833 6.480454802013056 5.4689073913633734
Pd 4.589523497710963 5.198581386426432 4.94261648185668
Pd 4.9944549584893805 6.096872222071177 0.5821701989169622
Pd 5.6707586780732635 8.12638718116762 3.808522602786396
Pd 9.84624840073124 9.771167142350741 6.755228353522349
Pd 6.195624489955088 4.011402244705263 6.692862041687813
Pd 4.601105696098075 4.7556234290865795 10.809898351355741
Pd 7.725131731597269 9.055669122351722 5.284313324585449
Pd 7.388865208555392 7.570713256905116 8.001479311175467
Pd 9.81721027655819 8.13270323476458 8.894421788460328
Pd 8.701326868591316 4.034574796605934 10.50729273821789
Pd 2.0224390491746393 5.444928099266195 4.433239506257815
Pd 9.35685735757614 10.694196604050944 9.164073319436117
Pd 6.66219049673593 5.084731557891214 9.11715987561135
Pd 5.088411534811963 6.54314431480558 7.337714112320083
Pd 3.403817622301399 7.601453019013677 5.140958465222827
Pd 8.440880609338683 6.664012441649765 10.66142697043075
Pd 4.117701129689621 4.221587759478114 8.272203575948433
Pd 5.307389614198367 9.037372811421866 6.274704526571212
Pd 7.497759697749362 9.11662965946278 10.249712937400583
Pd 2.49338806801399 5.859842307374539 6.982263833484407
Pd 7.24950564084383 10.191932575653226 7.668183004918226
Pd 5.843671354855629 7.068601230026671 10.611121930827796
Pd 5.1637463135315915 8.987890842055485 8.927452933467823
Pd 2.936218502589252 8.530584292080782 7.5764122886432315
Pd 3.466984040833133 6.7007783683650555 9.404772462815885
