31
Energy = -127.54970965 eV
Pd 3.905653155655704 4.367441865745666 6.497875364454484
Pd 4.054197212184473 4.864948227158286 3.8701926616589093
Pd 8.645490785933726 6.260153969878887 8.430836183772985
Pd 8.68579887607297 6.874901177163833 4.051644107063824
Pd 9.789933730600515 10.50636603475402 9.89870645446978
Pd 8.902030385748661 6.53496349034701 11.074951068469899
Pd 7.068369190171495 9.02346071459859 3.836804335935116
Pd 7.80229152947094 8.657550299303226 9.997680817862339
Pd 7.81008277473255 4.325006324744492 10.08309192245656
Pd 6.218655251891368 6.60196582786662 9.520895928098689
Pd 9.105964546065236 9.285088959714646 7.679974487141328
Pd 5.038493945931822 8.887739761982498 5.463080648047511
Pd 6.625390889485196 5.742806776658778 11.925262483027119
Pd 6.046079400986549 6.563603782153821 4.3823124896057735
Pd 5.719576493095688 8.923778093744748 8.15642034263679
Pd 7.492433710543868 7.680681215368872 6.372171989288307
Pd 7.113289357298969 10.374578974405669 6.16630550489148
Pd 6.1970651463121245 4.091951746797968 5.233565229756692
Pd 7.3761207613745565 10.95569636559142 8.771308456633479
Pd 9.887599046122052 8.754034942386626 11.849635587838158
Pd 9.38470096470194 9.369943698580096 5.091443054226281
Pd 11.214166503527323 7.763291664886358 4.153231860521892
Pd 3.0602297908719853 8.773534573139745 7.128724568916615
Pd 8.414637835266504 5.119574078949156 6.090409581426855
Pd 10.322482563695301 7.213432037851329 6.62959099008232
Pd 10.582484205187416 7.881536532916748 9.392879764686352
Pd 5.149657260242669 6.552462877148443 7.029595346439033
Pd 6.516179564084328 4.4297535946187665 7.803314639979019
Pd 10.679184572154174 5.308262326983092 4.81411516528205
Pd 3.7533271310344754 7.259864862041166 9.092896659252562
Pd 3.2741282549598543 6.890026177100504 5.31374146684797
