32
Energy = -134.72516609 eV
Pd 10.51014561234518 5.62407405053469 7.3544365389621245
Pd 9.205889433618902 4.45859028842323 5.2042432548110025
Pd 8.724722305064024 3.7309578816041564 7.806753502835516
Pd 10.471453082179103 6.975050450437679 5.145919203222737
Pd 9.439081327547289 8.208681854967846 7.3574547108776365
Pd 6.467429210801144 2.383065164205736 8.441386703330835
Pd 7.523081881939856 4.109898312195061 10.254973533478898
Pd 8.50803341258863 6.220866524447338 8.943918690639874
Pd 6.879234909073182 4.957904950771077 3.8517450508168642
Pd 7.880322872605857 6.402412820358894 6.177494979458742
Pd 6.719849004592933 3.4470855886180467 5.956528575447819
Pd 7.410481430009012 8.570574801810178 9.230760565941242
Pd 8.689728817145633 6.650345001804665 3.242744721944269
Pd 6.376751720540002 5.079220231872297 7.958558240247812
Pd 8.681837025787779 8.867212795413177 4.696604150397232
Pd 4.852500898448746 3.9192824746551365 9.99584337838308
Pd 6.910627808780856 8.944551921688628 6.695137443273999
Pd 6.970250021951602 8.4510819408519 2.2760937846065232
Pd 6.384406428230308 10.227532202564479 4.333052992258749
Pd 5.9676464830757805 6.436513153482765 10.096893903822755
Pd 6.201361640578267 7.501751116085786 4.506356332802239
Pd 4.31336330996644 3.5995733002445776 7.285179644406258
Pd 4.939125713562101 6.5014656021599375 6.438224811361122
Pd 4.466051895264566 4.594767342874864 4.77234529040959
Pd 4.922786097693785 8.273115740065945 8.346847045957102
Pd 4.8879707636514125 6.312674670101621 2.6461025682285815
Pd 4.37280711350177 9.213317760025088 5.773522892174426
Pd 4.346982857826617 8.947679902472201 3.07720742773728
Pd 3.632543826980308 5.875766903842223 8.692935441538072
Pd 2.3619276493278654 5.20590217440832 6.392156145735188
Pd 3.1332065641737783 7.044333864923272 4.5774588019390166
Pd 2.5478655155603067 7.795639183229714 7.152403036017071
