35
Energy = -146.05072842 eV
Pd 8.257111224891377 10.359863155057091 8.088105283218546
Pd 4.2309824893768315 8.281339853726724 8.777235485639347
Pd 8.017384423227893 9.828700330903613 10.800493116418167
Pd 5.826687924247325 10.512838322002303 9.229161207779102
Pd 7.147246831556259 7.97457190030363 9.169982628962401
Pd 5.462489532061353 6.263783780448154 12.301298880550153
Pd 9.748403198711648 8.038139441888745 4.62152881851966
Pd 12.07977998948239 7.829417795748697 8.300305735189763
Pd 4.441956013305038 5.4756320261282285 3.020767000573073
Pd 8.414908642130836 7.697945932580915 6.96103943702127
Pd 8.090677857867982 8.45459845407192 2.664685898536876
Pd 5.272227123635547 5.92506881046315 9.71924742267087
Pd 7.773005151326902 6.14259959536373 10.888437341283895
Pd 7.50536776893387 3.3397381900024663 6.4724532979871165
Pd 4.221921310821595 7.158743081572655 4.929764042362105
Pd 9.776313237101608 4.289024669821825 7.465458500408189
Pd 9.71596048379292 7.805494906145578 11.53782393368565
Pd 5.429364326696725 8.566750320774421 11.039266565767463
Pd 8.171583413177343 10.049732357566658 5.37377723051296
Pd 9.809918996188195 6.489623920372287 9.062538016016632
Pd 5.653265915180931 6.736272150914345 7.11198718502703
Pd 5.907008525946853 4.92593456134752 5.165811967306551
Pd 7.532703770197028 5.238912539605005 8.379579573189606
Pd 6.0063659581315365 9.26640191657405 6.821348811087611
Pd 9.493280520715604 6.1564457737670395 2.87294911998862
Pd 6.9348342245375925 5.974073248529445 2.969834068515777
Pd 6.523509432371647 11.78746306124295 6.821683177815228
Pd 6.713241694543352 7.7758355839866455 4.772186175850706
Pd 8.562125754881881 5.538223533753527 5.327316190454262
Pd 3.477894673029073 9.053256654983727 6.438120959027192
Pd 7.36906709817812 8.048598639814495 12.756268361643329
Pd 10.770543841178855 6.516249170139707 6.496587861039745
Pd 5.189338137102643 4.192921878073051 7.602829703556026
Pd 10.488205302143058 9.442150349038178 6.761033063014056
Pd 10.09149904178905 9.083608901256968 9.345904588039254
