35
Energy = -148.18936224
Pd 6.101339221823846 6.102739240870922 4.3008385676626295
Pd 3.3479780162389106 5.471163715436758 7.899500501434093
Pd 6.08720430567635 6.105499465077617 8.256774480161774
Pd 7.937667034429357 4.011634903360601 7.824461477715452
Pd 6.101648584727861 2.226714702529078 6.854917325521081
Pd 2.68058020295095 4.107148967223447 5.475334233855517
Pd 5.399846532589249 3.629056956927228 9.002317991528646
Pd 6.995775038800009 7.408792533983844 2.164557589924075
Pd 4.8831910461554555 8.467963875162535 3.642967079053479
Pd 7.818233429499532 8.226839900076339 4.759071255756327
Pd 8.751226683016247 5.976285577012941 3.6412250348706094
Pd 6.784462377993284 4.6466674264433525 2.170543974114374
Pd 4.5034547939698335 6.215166670524891 2.180775922780767
Pd 3.3917680001996433 6.53992099623441 4.744595950961997
Pd 5.232109660935654 7.625055791957895 6.249116043817411
Pd 7.845851554324936 6.0944658877090765 6.25677220251403
Pd 7.087980854425371 3.55206069770918 4.7646614244233305
Pd 4.663855823000748 3.8520600971036254 3.668948812378373
Pd 5.20411646929981 4.620979167787427 6.2577830990638175
Pd 8.560147145760883 6.75811960289661 8.994707433729758
Pd 6.985896276656187 8.769714210772086 7.828128440746485
Pd 9.563981873941376 4.155881108666851 5.443605750800707
Pd 9.46217188944479 8.066568735176928 6.8743596106410765
Pd 2.697763801061618 7.945610007574298 6.894055100848543
Pd 6.068823853540299 10.082366122557291 5.442696440927505
Pd 4.28817826620119 7.880833603791898 9.008449061703901
Pd 4.5347283484040455 5.6839199824781526 10.441783649264464
Pd 6.525058176860055 7.672561505376918 10.397156149224404
Pd 7.227844419437173 4.950594071135455 10.395704675295105
Pd 4.518069588232821 9.982528602214481 7.525263560248937
Pd 3.4929310847267367 2.723711326691257 7.517514884592361
Pd 10.273048094805217 5.494624976090244 7.547739716106
Pd 6.969857806810851 9.954583101535325 2.9607067852410247
Pd 2.3267001245954835 4.899580150609782 2.9740437278482834
Pd 9.01433745600755 3.4264141558447236 2.966749881787267
