40
Energy = -170.446366 eV
Pd 1.8332139597247057 4.677324406589683 6.399436503320059
Pd 4.217658593686874 2.7827338363197884 8.616141603308604
Pd 2.70723076336507 2.549050564126375 4.9760568770224465
Pd 3.1286606251056233 5.019337719039951 3.970733617428293
Pd 3.4707440169928803 5.364189594274935 8.50967113148023
Pd 2.820918236182462 7.978369105542692 8.206595158257308
Pd 3.5582046431592387 6.63987920738448 6.119631104293264
Pd 3.9204903590784452 7.493793725889814 3.564699669603452
Pd 6.624636026520357 2.8883755547157417 7.501105445872348
Pd 3.255007565165297 9.33396841263522 5.75633268465893
Pd 4.965451364958923 1.4389614572238443 6.044839639050214
Pd 4.446526275921406 4.029624314519155 6.342397519365103
Pd 5.0280759231773215 3.15599993658777 3.83496478782363
Pd 5.3287094112801 5.438871462904794 2.2451786738339883
Pd 5.11065705286571 7.2270905060958 9.439381608899188
Pd 4.984047158817595 9.962381994550293 3.632692639036855
Pd 4.991314816081624 9.465080772246028 8.000527177472259
Pd 6.126385328375342 5.755354912220419 7.4048908385365895
Pd 5.964634313680672 4.564522236269693 9.699655762786138
Pd 5.793200258589572 5.707013812551864 4.756968585498343
Pd 6.578563444006201 7.839693188598743 3.0302902239713188
Pd 7.198280607866625 3.244708853622501 2.4397117129237333
Pd 7.949672847854519 4.626152679164717 5.860957949664505
Pd 5.604621734475175 8.234703639443525 5.664711231167659
Pd 7.267054264115512 2.2652068817076505 4.957228887492448
Pd 8.454140803485599 4.343120555556168 8.60715983082461
Pd 5.372146206047232 11.105938561434778 5.995042634098006
Pd 7.747194516181388 6.609103127648267 9.808796083737203
Pd 6.824129205480334 9.220602805787992 9.988613143673986
Pd 7.2642446611453435 8.058279684376773 7.60733669517655
Pd 8.045072520586551 5.576934464618282 3.161976577258375
Pd 8.063942984435089 7.284493933920639 5.1623390921421
Pd 9.456875129178147 3.486879560933264 4.040174199998834
Pd 7.575735979023965 10.579398827512929 7.5403058223350135
Pd 7.482066108042431 9.888066601815217 4.830934136859209
Pd 10.358136898958149 4.0508003526794925 6.7144746725732425
Pd 9.333653096740226 8.771328553139499 9.077442129172299
Pd 9.433434317584583 6.500010442810917 7.405182347925826
Pd 9.595387410021754 9.036194983864116 6.377431781285902
Pd 10.289050246316183 5.93798191362701 4.815162615465108
