48
Energy = -208.01696916 eV
Pd 8.395267071072627 10.573451699055752 4.03214506313704
Pd 8.140854755446478 8.277010068286126 2.755939195704517
Pd 9.892277519207678 6.289195401995916 3.005019745778463
Pd 9.747237639357394 8.182429122578046 4.974501790066734
Pd 6.2270523631145664 10.14098143380855 2.4757306060688498
Pd 9.646501164187654 9.445045706752106 7.371487757403074
Pd 11.08929772405813 7.132961031469011 7.3058813050893345
Pd 7.3614190867388105 9.156648225130615 5.962695936160287
Pd 9.987778574981261 5.4736274403688485 5.560182301686754
Pd 5.808776758161695 11.087043830806255 4.90864722510992
Pd 6.1486798527769055 7.851318304793863 1.0509359828242195
Pd 5.661148341872992 8.317109688788875 4.2382483870392775
Pd 7.440699828099746 5.6493294023383696 2.047393589588873
Pd 9.38380525388253 7.630103066698714 9.493214204816635
Pd 7.528234390672296 6.479035626624808 4.565028660655784
Pd 7.241900487581184 9.20937140179197 8.644402192802675
Pd 8.40937955621109 7.024016676194029 7.111206433214026
Pd 3.894666130496379 8.767050831391234 2.3115556418754166
Pd 9.68731002016735 4.9373211585272045 8.225854178036986
Pd 5.035467533072375 9.828388177733887 7.134469766972805
Pd 8.663794532165857 3.984774413771756 3.827111573944375
Pd 9.17958301151097 3.005726562697938 6.303548020127137
Pd 4.95997099183786 6.106694184261071 5.428251595624062
Pd 6.847630723285607 7.938661864892191 10.857096199425857
Pd 7.462398437971249 5.775637204944533 9.42904816337434
Pd 6.077673717703275 4.062164738859563 3.914595752135721
Pd 4.879069518370187 6.23315651024997 2.6511560051007277
Pd 7.19475380240998 4.749271817532907 6.440872539257861
Pd 3.545655732395852 9.636116699406422 4.882223182162846
Pd 5.857205230343703 7.227353903637249 7.533673902327854
Pd 6.573717315664988 2.0975761573740974 6.08232528082026
Pd 4.4749398824603315 8.356920732196132 9.351122401726698
Pd 7.634766706743517 3.161402636932497 8.487909680915847
Pd 4.525508296023739 3.6584043065021596 6.167475792628806
Pd 3.3397068117987683 4.4464712278024425 3.7940075141356453
Pd 3.270214719108445 7.806550300711099 6.842678458606179
Pd 6.268799074218112 3.693116671740959 10.706459218643642
Pd 5.031253887227786 6.098825385122588 10.657086441801523
Pd 5.227646603639126 4.810522145738558 8.311473041886908
Pd 2.7807612697750312 7.103506938680899 4.191424182941287
Pd 4.438972742065376 1.9364452703276183 4.159194823597497
Pd 2.3773535025580634 5.350654207640265 6.2172143831029505
Pd 5.142092851379583 2.208202367653168 8.774741012921925
Pd 3.0116282023893 6.016621378112476 8.783966628109209
Pd 3.94317738450774 1.1301923682280381 6.698484882923724
Pd 2.0763721607024297 2.7194027301814847 5.460488717896055
Pd 3.608705754406879 3.8616455311450273 10.424681083006886
Pd 2.656007692029705 3.35535433379543 8.019374152522706
