41
Energy = -175.9421365 eV
Pd 4.036794680111779 3.0195700299085515 6.378036931896904
Pd 4.883273412168676 3.219337355430188 8.874931653395809
Pd 5.809812179594474 2.321213728694795 4.449954221233213
Pd 2.6483549718404573 5.240588084785318 6.236167366410798
Pd 4.580409492488139 4.685702280451737 4.407184325135315
Pd 7.5182446878103555 3.328260008117337 9.2919592561356
Pd 3.3684753205255564 5.583939706360941 8.88508186131743
Pd 6.716644761591848 3.1696964062466644 6.764456026496591
Pd 8.350796609369583 3.216490624033052 4.57384927068777
Pd 5.906167822107744 5.494984773308096 9.781613797346697
Pd 6.56759134435016 4.2222639117111544 2.7106358424140207
Pd 4.552812530346615 5.928870919369844 2.047389599998972
Pd 2.632990667160838 6.464144534968731 3.777106892199118
Pd 5.314141341650963 5.441389676326017 7.163833421416058
Pd 0.8761576657544508 7.119699408720666 5.6007981001608895
Pd 8.237757426124226 5.410051518381629 10.918777555309477
Pd 8.179249626497374 5.526351759908378 7.9041572071503525
Pd 2.817905857531576 7.6654191850169715 7.306570787794433
Pd 9.358347885605982 3.257811675340072 7.118251684702482
Pd 7.071043407691991 5.461677658550167 5.198852709786259
Pd 10.067531744230902 4.028395039537217 9.605025403263989
Pd 4.746994948395723 7.22865078296607 5.27076279115576
Pd 4.995454124161224 7.793344210444822 8.724241215049563
Pd 2.620979072814191 8.979621183483733 4.960271272628786
Pd 8.894303358040744 5.519822083010542 2.9876215271341504
Pd 11.17822480934375 5.262337749058678 7.576410686596957
Pd 9.732665638596341 5.366865644867269 5.437955578771707
Pd 6.676441212446362 7.036028075426539 3.0808950511070794
Pd 6.961095341710928 7.6871168398986285 6.752106595105358
Pd 7.537455298728517 7.594005242724953 9.564325086409143
Pd 4.426009141730747 8.479184939424773 2.9281242191303303
Pd 4.623608080141909 9.550730015952261 6.736491251541234
Pd 10.125480254557706 6.7656478319408295 9.56041363455808
Pd 9.79849311819197 7.5132927055691505 7.008535173039628
Pd 8.768880971886377 7.747267626304732 4.546325135973968
Pd 6.564013639358719 9.260740513657884 4.527372607273829
Pd 6.7650925200526215 9.82847678078705 8.35112284279051
Pd 4.436039443062399 10.78114709483893 4.346668196548851
Pd 9.38163484548064 9.330291855474917 8.884232024939323
Pd 8.576743965594904 9.770693045161948 6.318545227913186
Pd 6.421217046460074 11.367574206318428 6.170622657414932
