41
Energy = -174.83071292 eV
Pd 3.616448558863855 3.6763033431033825 11.054733356683009
Pd 6.158391880685842 3.94452972313621 10.696917410025007
Pd 7.1743443022162126 2.976783387750236 8.438868631760506
Pd 8.475548493846109 4.932850899074494 9.949530160740279
Pd 4.462288488026514 4.024331793405795 8.615712286731885
Pd 3.7121168483180824 6.197941527948328 10.585256166866818
Pd 6.248083006379093 6.435097304763439 10.075668409639233
Pd 6.519273956632653 5.3793517830675865 7.680450133006559
Pd 10.738218710101867 6.132741579086236 9.023379455221836
Pd 3.312341131537752 4.691864203420965 6.357614166868459
Pd 6.9395431179164655 8.933403201233943 10.198007210171694
Pd 8.17890357960696 2.7284942621854196 5.99351756782531
Pd 8.463073715995899 7.325972605992846 8.625417857180443
Pd 3.931292382100258 6.626225067827485 8.01215268659214
Pd 5.604356287454539 3.38571804338368 6.185046182393042
Pd 9.226411616077554 4.625046986399447 7.441474796969998
Pd 10.590287327826875 6.638819306497938 6.405439537058715
Pd 6.235209266986349 8.075930110364888 7.5076300226899
Pd 9.782478398919446 4.6339516691291145 4.803942224716546
Pd 4.512320839099063 4.406190761621761 3.8884019712215707
Pd 10.578347018032922 8.78965103770027 8.011877845538764
Pd 9.70261800243838 7.38625836394846 3.970782865057912
Pd 5.252088081287436 6.469334077799378 5.473658302225692
Pd 7.1223584311828665 4.415166397867144 4.3057513025207275
Pd 8.706595645822793 5.4429366687698435 2.4672044432047913
Pd 4.3778518097528085 8.585280186419705 9.73520240927379
Pd 2.005216846985601 5.274122429880041 4.16565954474158
Pd 7.947439344515948 6.451144429997341 5.793749520573454
Pd 6.415684213717153 10.258143010113525 6.083911629413628
Pd 11.384699062278802 8.908887028487804 5.415808007714762
Pd 8.218365000864988 10.117010112529336 8.228187031759418
Pd 2.7030366782623116 7.3565131982258345 5.711205874239909
Pd 6.185569315685618 6.241867761705652 2.758468983918292
Pd 3.907960133821604 9.220993092926037 7.157292482573465
Pd 8.096621874002096 7.967932967281068 1.890376205938115
Pd 3.688777514078266 6.995309470914558 3.166872815619934
Pd 4.486121977794975 9.09061387676903 4.630840101183798
Pd 8.81379188495555 8.971751254275917 6.000928609748695
Pd 5.6407022509922315 10.690122057958842 8.650439340554797
Pd 6.985930257986961 8.40822848354295 4.234377227144542
Pd 5.4250049337112625 8.712898720256602 2.133957409453469
