44
Energy = -189.43519446 eV
Pd 2.2233594728396597 5.879567556836039 5.942808628843629
Pd 2.0321973559145188 8.313123819893162 7.06541000456041
Pd 2.979115751260575 3.937548143322437 7.576041561718206
Pd 2.6796734990700424 3.3266323601772325 5.014379235515901
Pd 3.6150725804672987 7.957817164339677 4.91102490313225
Pd 1.7455329156345687 6.145849237085652 8.60179058151889
Pd 3.6992205767004833 5.502219651719512 3.816324889533327
Pd 5.3549700049238185 7.419809422481005 2.956570517855188
Pd 5.23719148175477 4.943254320582839 1.7074985599818484
Pd 4.739888271266803 2.026221811213092 6.265637019060456
Pd 4.716569644521812 2.641069424130213 8.979295968800486
Pd 3.467770995562807 8.165395725314735 9.431748890219
Pd 5.033835195436788 4.634166653955088 6.0347562128170535
Pd 4.481503032621747 9.310218560456114 7.054413280637061
Pd 7.231762979833596 3.2631315607458853 2.3443278126666622
Pd 4.295891661284995 6.591867278200042 7.527763522835809
Pd 5.7596055885211355 9.70809488894205 4.507689102234855
Pd 3.956604075481785 5.171752319810052 9.750525252334604
Pd 4.916811679915774 3.038024581903069 3.6681937214504496
Pd 6.554229139172809 5.3380964116003335 4.11846265872487
Pd 6.097702623980236 7.486992181910201 5.752058346811332
Pd 7.732502738828877 5.974002971756148 1.8732169689184333
Pd 5.89837301236645 6.9998313742816745 9.684758762809746
Pd 6.869415252820542 3.0923123580374585 7.58626948112638
Pd 7.221958253672731 2.9124501390205233 5.020676769971019
Pd 7.8277380868987505 8.24076792960994 3.260901773284704
Pd 7.031847362363356 5.694837824439925 7.521199646596475
Pd 8.512972473175985 6.644586218034051 5.320248193521959
Pd 5.76505730140416 9.618838776054938 9.373947750149972
Pd 6.524667113945938 4.39219081060953 9.878450143675495
Pd 8.311774544483091 9.425636702484283 5.497563152267719
Pd 7.671193873444593 8.21575298519754 7.948172701877413
Pd 10.04370546308676 6.789318313283586 3.0064124388884896
Pd 9.128300612906068 4.39768380782647 3.8073339635476158
Pd 7.686881966590895 8.519279803093056 10.925408055921261
Pd 6.672995960669728 10.688762265751187 7.0234653135378
Pd 8.473370296641855 6.1585475539346834 9.765844437808623
Pd 9.03536585786654 4.220320423924299 6.554452286631479
Pd 9.94345022843136 6.646287210597504 7.557151929424861
Pd 10.667676090682498 8.218886169511304 5.185324666891357
Pd 8.366684702820924 10.483781889180126 9.158317858718076
Pd 11.022725312680949 5.547716435545723 5.299497050838419
Pd 10.075364890399825 9.457532272813658 7.396841364775692
Pd 10.031148794851969 8.284066986443342 9.731711938334804
