44
Energy = -191.12904038 eV
Pd 6.043561218173923 7.952859504847703 6.043561218173923
Pd 6.043561218173923 11.576753319999998 6.043561218173923
Pd 8.133424666985706 8.133424666985706 8.133424666985706
Pd 6.043561218173923 9.816912224690881 8.003101692729032
Pd 6.043561218173923 6.043561218173923 7.952859504847703
Pd 6.043561218173923 4.134262931500142 6.043561218173923
Pd 6.043561218173923 6.043561218173923 4.134262931500142
Pd 7.952859504847703 6.043561218173923 6.043561218173923
Pd 4.134262931500142 6.043561218173923 6.043561218173923
Pd 6.043561218173923 6.043561218173923 11.576753319999998
Pd 6.043561218173923 0.5103691163478447 6.043561218173923
Pd 6.043561218173923 6.043561218173923 0.5103691163478447
Pd 11.576753319999998 6.043561218173923 6.043561218173923
Pd 0.5103691163478447 6.043561218173923 6.043561218173923
Pd 8.133424666985706 3.953697769362137 8.133424666985706
Pd 8.133424666985706 3.953697769362137 3.953697769362137
Pd 8.133424666985706 8.133424666985706 3.953697769362137
Pd 3.953697769362137 8.133424666985706 3.953697769362137
Pd 3.953697769362137 8.133424666985706 8.133424666985706
Pd 3.953697769362137 3.953697769362137 8.133424666985706
Pd 3.953697769362137 3.953697769362137 3.953697769362137
Pd 6.043561218173923 4.084020743618814 9.816912224690881
Pd 6.043561218173923 2.270210211656965 4.084020743618814
Pd 6.043561218173923 8.003101692729032 2.270210211656965
Pd 8.003101692729032 6.043561218173923 9.816912224690881
Pd 9.816912224690881 6.043561218173923 4.084020743618814
Pd 4.084020743618814 6.043561218173923 2.270210211656965
Pd 2.270210211656965 6.043561218173923 8.003101692729032
Pd 8.003101692729032 2.270210211656965 6.043561218173923
Pd 9.816912224690881 8.003101692729032 6.043561218173923
Pd 4.084020743618814 9.816912224690881 6.043561218173923
Pd 2.270210211656965 4.084020743618814 6.043561218173923
Pd 8.003101692729032 6.043561218173923 2.270210211656965
Pd 9.816912224690881 6.043561218173923 8.003101692729032
Pd 4.084020743618814 6.043561218173923 9.816912224690881
Pd 2.270210211656965 6.043561218173923 4.084020743618814
Pd 8.003101692729032 9.816912224690881 6.043561218173923
Pd 9.816912224690881 4.084020743618814 6.043561218173923
Pd 4.084020743618814 2.270210211656965 6.043561218173923
Pd 2.270210211656965 8.003101692729032 6.043561218173923
Pd 6.043561218173923 8.003101692729032 9.816912224690881
Pd 6.043561218173923 9.816912224690881 4.084020743618814
Pd 6.043561218173923 4.084020743618814 2.270210211656965
Pd 6.043561218173923 2.270210211656965 8.003101692729032
