44
Energy = -189.24317857 eV
Pd 2.836652016507204 5.709142525733755 2.3125932530533233
Pd 2.4166717753133518 6.779348308038214 6.6671003669037034
Pd 5.0007712503959985 4.203415228768314 2.8605331206531135
Pd 3.23961339407402 4.985146479127753 4.8334678110990685
Pd 2.660991882579168 8.883779312242664 8.437646279959838
Pd 4.817986152388765 5.593968113986877 0.5830760210827439
Pd 2.7830763467952186 7.595181248079446 4.131043463167768
Pd 3.9239298292431655 6.5871043026410945 8.828170489114143
Pd 5.170463341065584 3.1903170098856863 5.323140637491487
Pd 5.322060879640824 6.4973398659343955 4.310513541961238
Pd 2.565078040737262 9.51292731041352 5.889987150247125
Pd 3.542375515170664 4.387477494883504 7.382166327455295
Pd 7.279751563401227 4.535552491851846 4.277652572893467
Pd 4.9403842486065175 8.956840770494622 9.652424699569213
Pd 5.426276156647416 6.657398070422711 10.97967489975988
Pd 6.90400709867855 6.064043035229762 2.0700224680938035
Pd 4.645129034161827 7.775524006174834 2.119810034879002
Pd 5.36494076070343 2.4548544686651432 7.928954174146176
Pd 4.8296706179792634 7.87391097064802 6.602972844742941
Pd 4.766121852463131 10.339193475999563 7.3227925320205784
Pd 5.850805457573082 5.4160159439816065 6.681331430587262
Pd 5.713380912483865 4.714615487259709 9.242522544387796
Pd 4.739149989716908 9.408049696414974 4.380543786431238
Pd 6.951308123517945 8.428678748424927 3.3222966613913423
Pd 6.702440267929685 7.317914330770602 8.386927619582382
Pd 7.5054677829412215 3.375306338585829 6.6716839827335495
Pd 7.558150218543683 2.9533011050945666 9.349846863124867
Pd 7.194135997082986 8.577918175788698 10.981047777590556
Pd 7.645467434186762 7.0703919611999915 5.67228551505495
Pd 7.21133209234226 9.900775445174908 8.54103735792645
Pd 9.714151230949701 3.8274658228290286 8.1531485283087
Pd 7.981160313467937 5.895404030072353 10.298062004987543
Pd 6.919010738177802 9.669223044570545 5.847218444843378
Pd 9.054103152194878 6.478268521064241 3.523924018112081
Pd 9.04945911484753 6.323751777297164 7.749675338323538
Pd 9.204488518095234 9.126744492615193 4.419399235432151
Pd 9.519006580175674 4.774190270083014 5.63689916771092
Pd 9.552308298900364 3.8172540601690814 10.779254772101371
Pd 9.299231240560024 8.320666623547913 9.568891974379273
Pd 10.724418982563066 5.962742655156596 9.786740713496007
Pd 11.635198079272719 5.369262425707137 7.235726140081699
Pd 9.194367523921166 8.99411378993897 7.039211023155303
Pd 11.434934283946438 7.9023785887301035 8.075225042788714
Pd 10.646860345666127 7.229390611911263 5.579645804785388
