43
Energy = -184.65354934 eV
Pd 6.454103710438583 9.149498638853009 3.0094716290972574
Pd 7.568816858092213 6.7216774595209845 3.019954369251597
Pd 9.125319502904704 8.854709054616052 3.429718579470683
Pd 4.816632572071986 6.84493325914102 2.937137823260083
Pd 9.983493612868116 6.069612875384523 3.8947793692979333
Pd 11.418092228996237 8.160536405760974 4.7663453017017785
Pd 3.7871001245466456 9.269186968892171 2.7818784848828515
Pd 4.876924516779168 9.648065648948096 5.161677615483109
Pd 6.05787495726001 4.637784267689546 3.6548496752240087
Pd 7.949443330880764 5.261853137122823 5.380494668424347
Pd 7.435672535785706 9.965932991574876 5.3677253381618915
Pd 8.850746732963014 7.793494637475781 5.839541767719631
Pd 6.10087440011896 7.285741022464034 5.209403021256329
Pd 10.015570802509789 10.330910824814204 5.586588379278828
Pd 3.913720167574607 5.22313901563468 5.04298082360006
Pd 10.743701519640943 6.17175072523016 6.543652615559129
Pd 7.648590261501868 2.7084264248347907 4.509285134469904
Pd 9.991618958677119 3.712606337710292 5.712298680845476
Pd 3.012615247435147 7.727214927488653 4.766448945606963
Pd 11.175026015854813 8.723717704150951 7.355403010977076
Pd 3.3437878226415156 9.14625342070772 7.1600765768717896
Pd 9.596744254696791 7.278841537265754 8.812513320686998
Pd 8.61974349025855 9.571384711810738 7.8176849260709025
Pd 4.9502647148722785 2.774610908827578 5.250885078141195
Pd 7.2146486997542825 6.749146780283057 7.663407896636944
Pd 5.991961523901483 9.184820609901765 7.51843554455419
Pd 8.999238894449869 4.75169011638617 8.007931626976667
Pd 6.465620489427768 0.7113403167488918 5.875369200405209
Pd 0.9658784793161519 8.517974537812155 6.237644270269977
Pd 4.5099905324924086 6.7113490422641435 7.22220312789515
Pd 6.024545838172274 4.459571396570963 6.921050716023174
Pd 1.9757786002451407 6.142119262369234 6.714471508738737
Pd 7.917630818389712 2.5561131614350217 7.083372038900739
Pd 7.123896190016387 8.253819822830591 9.808041065759506
Pd 8.166146412408095 5.751282723125049 10.380307517413499
Pd 3.419414996982733 3.930904918031065 7.325373799279961
Pd 4.4031871449029865 8.22096762517664 9.501304984214448
Pd 5.3511973981493774 2.021889479969902 7.890052342359025
Pd 1.753057005748884 7.925356122322679 8.774615967159066
Pd 5.641871151042343 5.865957332277597 9.682764015121366
Pd 7.000912136131562 3.585476703174158 9.376896003137514
Pd 3.024387203183232 5.728855659735327 9.274456258396077
Pd 4.335620182444645 3.516937006653884 9.82863380803422
