40
Energy = -171.56802363 eV
Pd 9.909433193087793 7.3603251966712735 6.0183654683355154
Pd 10.606380464715846 8.748467443149204 8.142692463054933
Pd 9.783428222919325 5.9116106464783025 3.8502328109388513
Pd 9.514581477209417 4.7795738999813535 6.230463278353906
Pd 10.070406374335944 9.972751442153248 5.81732641691993
Pd 9.759893707508224 6.192461064103237 8.465208589067505
Pd 9.14597960424798 8.509773132235033 3.682013613878311
Pd 8.753671347704158 8.171190094346787 9.980897757682921
Pd 8.582814664985342 3.713688376996208 8.565090278903822
Pd 8.350466408731059 10.241977989472344 7.985994080313996
Pd 7.202388154066415 7.05714092317126 5.018948258908697
Pd 7.640959048097216 4.451643177044716 4.3016386545517165
Pd 8.291852147108617 2.4842740500527363 6.049280292723657
Pd 7.752051330526055 7.76125993586744 7.526484125553875
Pd 7.499114707750889 6.4765040486254595 2.4684467090782345
Pd 7.027154257864506 5.242821309730858 7.115638451248128
Pd 7.507767724411253 9.709770766960007 5.44577709970246
Pd 8.353639325330775 5.553366588046546 10.60635361352605
Pd 6.528372283653734 9.661889090185227 9.916717682521853
Pd 6.670105651812719 9.093264548583111 2.9278909986414
Pd 6.151525891995549 2.7298491953699537 7.587829823957633
Pd 5.862267318226012 2.664066875497766 4.935269049399818
Pd 6.179525248794304 4.409071186517788 9.64223110918944
Pd 6.343323114706943 7.0184668868986275 9.645427983424216
Pd 5.472592505563694 4.512826793042967 2.712272756625531
Pd 5.015298190389248 5.1767222769551955 5.243005348826326
Pd 5.006964425138552 7.096662300285969 3.2795345033828283
Pd 3.721451852347877 2.411715961617254 6.503369453145095
Pd 5.00130383733199 9.122113174950698 4.975538458077128
Pd 5.733592390061277 9.88985268378556 7.422972485629993
Pd 5.150919101843232 7.2279895219127335 7.000301201747861
Pd 4.277423095733363 4.6315668543431725 7.81859582150706
Pd 3.4637721206331293 3.0702843771673813 3.9398410663283823
Pd 3.964153672911614 5.969238347176709 10.062448294224726
Pd 2.9167362182518484 5.514056908090871 3.193282952873227
Pd 4.190813523542989 8.5167180829783 9.207759947456683
Pd 3.075413089045469 7.258466886909762 5.162687462498904
Pd 2.4391594355789494 4.747730754398583 5.840593684853251
Pd 3.132341613811445 9.284968058767452 6.858529100005954
Pd 2.6456331058257136 6.731562706652412 7.794754729767668
