49
Energy = -211.33765018 eV
Pd 8.510503935688366 4.278119801718669 1.450966148466101
Pd 6.409772997618748 6.024035825320341 0.7321756111813662
Pd 5.97305914983903 2.9711569890490437 1.357513411815035
Pd 3.9769083780487606 4.939613821902129 1.3580393646361966
Pd 3.5555659068135927 2.32925271311657 2.332338811802085
Pd 4.186232081364507 7.771942864952669 0.8643556817797802
Pd 8.48019332740629 6.828990910184568 2.459495413197135
Pd 7.890140590612043 2.298636068457456 3.3393718549387326
Pd 6.592676313615839 8.95629566344332 2.1555613188727247
Pd 3.6576044372347964 0.5421485015431933 4.593437738226589
Pd 1.6735695673765076 4.154996676073219 2.8225530727494257
Pd 2.4621629539611525 6.763582247742134 2.8084159618379805
Pd 6.591857433365345 4.81251201975898 3.1043806196070682
Pd 5.275249729233323 6.998949994568708 3.005431157933055
Pd 3.960128760643426 4.873461703418045 3.9852011781894205
Pd 8.938065461703726 4.602859767735579 4.252007916570456
Pd 1.2731059158029088 1.4993696617933607 3.443796240830515
Pd 3.7787386564837124 9.131907164018418 3.4574233361471034
Pd 8.549967618436527 9.135249718097763 3.997833696849361
Pd 5.7081449535644735 0.5309682574968257 2.7534707464410086
Pd 0.22433099759027011 6.020604956660456 4.083494970142461
Pd 6.074725356830234 9.27904708298505 4.98191165981354
Pd 5.428502967940214 2.6954948555704874 4.145678287350882
Pd 9.920913868209372 7.006987269955262 4.89982143974271
Pd 0.23244292700008076 3.435003800282857 5.151126500862536
Pd 1.7465866024016656 8.01397412395407 5.121874704768564
Pd 2.7959705923566482 2.9873581748066824 5.1534695928140275
Pd 4.161089838045761 7.058356733706852 5.325422723316925
Pd 8.553938285217807 5.463249605721123 6.7484897418012375
Pd 1.336132041026645 0.9224799401790729 6.061323268403943
Pd 3.7594426003588666 9.510197430454527 6.240779592607507
Pd 6.2962438011824 0.5827223989284591 5.531275051389334
Pd 8.261986148535037 8.281379598514961 6.750731894345873
Pd 1.5586436386502849 5.4880247298534295 6.2306518571577785
Pd 4.938553848908926 2.664959974433112 6.63195286179721
Pd 6.142880533911123 4.8879511725262725 5.713138760830357
Pd 3.962422912240767 5.014820915644817 7.038132343013052
Pd 7.7695836919415795 2.8296615773524496 6.086171436390633
Pd 7.2164781711632005 6.949905969734465 4.776346111531179
Pd 3.612806766041072 0.7018038069498794 7.4782754372472375
Pd 5.724056259998467 7.662000732407502 7.295634605234704
Pd 1.9149925426079664 3.0180910719584677 7.598906126292707
Pd 2.94272540163426 7.428308559778985 7.714346940046854
Pd 6.382808468771771 1.4017701405886476 8.265529252464194
Pd 7.483132092038017 6.648769268563855 8.8943916805377
Pd 6.67246687159458 4.179415519872786 8.246931903020968
Pd 2.25680907955445 5.20545914031275 9.050602559066364
Pd 4.21283935728569 3.177745723966868 9.132159533183783
Pd 4.885228259715318 5.952787445508568 9.29004197431939
