44
Energy = -189.33108641 eV
Pd 4.593312006446347 8.143184975379999 8.332888495239441
Pd 6.111445478600456 11.29203479210189 5.679792676148104
Pd 1.508838932492656 6.021546952767551 6.165227117580927
Pd 3.9671614576771472 10.038369941638791 6.559842931544385
Pd 4.889412069229321 9.560013723171512 4.028222666144814
Pd 3.1490174462097325 5.98404721727416 8.232899113700435
Pd 6.077273168961354 10.351883474878804 8.227412281933207
Pd 8.239688024884723 10.125034436115945 6.692062657421257
Pd 2.0595844331384012 8.33018665810948 7.475257373270882
Pd 6.407083055757566 8.488941062693689 10.149615610286446
Pd 3.6312714602830405 7.516061888952277 5.514504429983611
Pd 2.8267619884795034 5.4088732281375345 3.909573697115584
Pd 6.443119397656493 7.42932365008217 3.238918312704647
Pd 7.613645578093067 9.64116229489135 4.136397847794334
Pd 5.133877595919457 6.076357093430002 10.072317903492136
Pd 5.515717017198195 5.684412478173354 5.062464088139937
Pd 6.160646890834395 8.381324829118734 6.0812553921600285
Pd 8.556764625388505 8.586433259478566 11.648454617661118
Pd 3.58520321775279 4.36028152757596 6.190103835808852
Pd 4.49392670048438 3.7522809597203697 8.60638064112463
Pd 3.888256833253365 7.482766652785277 2.7947300312014134
Pd 7.904039635799957 7.7704603908448195 8.056190199370224
Pd 8.554840336885588 10.002868744693966 9.376820561241152
Pd 3.9105675104822333 2.984333714801814 3.910719597243548
Pd 5.992201893201123 5.952857369995379 7.595895535106526
Pd 5.206293853265357 5.0541399725130045 2.5956947001455344
Pd 8.051041631507768 6.61573115165102 5.615789702418949
Pd 9.008339687599971 7.588245275329013 2.949690710438128
Pd 9.853807907204672 8.583770720326095 5.224931413210951
Pd 7.884558156008077 6.3252360723673755 10.40992605715346
Pd 4.752837233533649 2.0301033754842157 6.280638481161323
Pd 6.879903675281281 3.9725680009453677 9.701201681057578
Pd 10.565125063805716 9.476437403410188 7.679036975715582
Pd 7.880510563733085 5.169939563640878 3.2599445434692207
Pd 10.062433940169955 7.709941597628255 9.666756434039595
Pd 6.751021635932727 3.4798429819417747 7.1112286075103075
Pd 10.50634763183212 6.90604758692936 7.136958247982755
Pd 9.324929244728917 4.188426094669239 10.589324780239089
Pd 6.446617314746822 3.2952838086929757 4.503812156957108
Pd 10.341169806473633 5.927982678871818 4.5361535735202345
Pd 8.71904828500825 5.012821630734581 8.024116753414123
Pd 8.766721946734668 3.9359301318207 5.503361459497763
Pd 11.036412806096173 4.405724962522706 6.689331564673366
Pd 11.164908753246245 5.372471565726345 9.199840435996277
