47
Energy = -203.55695457 eV
Pd 9.265363701250351 10.328555662541527 8.80917168285345
Pd 8.468986934506717 8.174442753289734 10.139571465283904
Pd 6.630037290757967 9.85248746824749 8.939045083396946
Pd 10.520535104579862 7.902188737838431 8.401153778886904
Pd 7.529205231137872 6.051106719511788 11.498580083285495
Pd 9.852256784399287 5.864375958461565 10.209830546136383
Pd 5.983579669686731 7.4727005670885935 9.886981384295979
Pd 10.252386894181667 9.744804825513357 6.445760397104351
Pd 7.72010762890008 10.749766829177977 6.596472453005289
Pd 4.278528221474135 8.704002288651248 8.346368381951008
Pd 7.970526510160175 8.154478548826974 7.422541040630778
Pd 7.7307363283913535 5.774992183964651 8.523586494476373
Pd 5.064167517684468 10.721032307648436 6.874957641212313
Pd 5.789441848491055 8.16369349149697 5.909806005879987
Pd 7.95350824618514 3.744532285624982 10.156261625828302
Pd 10.249008949465292 5.3551972473762905 7.683289355198245
Pd 5.4911740801251 4.893760984073011 10.215653259658476
Pd 9.974093633310094 7.1559252110074345 5.828233840128918
Pd 3.4777770769512135 6.720522819728864 10.013721558001182
Pd 8.329449658964036 8.940392008742066 4.781243456332557
Pd 8.751665995382803 3.276734770868007 7.647392850796623
Pd 6.028355971150474 10.254503060846513 4.419760917047621
Pd 3.2850626507312897 8.957249269187532 5.8578504296000835
Pd 2.7153513497957253 6.76628410289339 7.378063865044492
Pd 7.46732501306072 5.944743004845111 5.8300401623719
Pd 3.433327509523341 4.538032645663369 8.615471801898366
Pd 8.863161591129835 6.666300867036125 3.520843200285132
Pd 5.27758021376758 6.176493417823995 7.533215015041492
Pd 6.845297153944001 8.298641584334995 2.764475246080982
Pd 9.655612668902886 4.545648686689639 5.141630459092998
Pd 4.2077138977158794 8.543055820982357 3.3524002628434144
Pd 6.0720974375153975 3.471074097020206 7.979796594282613
Pd 5.627682092283185 6.26704185619375 3.9143058056052564
Pd 3.115854795359424 6.528397007734627 4.84597212707001
Pd 3.5911547620095607 2.268041988752354 7.5194845234070105
Pd 4.914852935232758 4.297837182636635 5.7114515934062
Pd 2.328925844333361 4.295888030041351 6.141029404809407
Pd 7.473234257532307 6.1693875326430145 1.2970720141763603
Pd 5.111683339847779 7.379502599357513 1.0309954688797849
Pd 7.5233628496380724 4.41862586273963 3.242028336011832
Pd 7.379348237230739 3.2240047383557755 5.499309055449736
Pd 3.0126645885955314 6.406016461485828 2.216707810866712
Pd 5.613291927271394 1.441441679847141 6.091193194090501
Pd 3.2948626643403722 4.201016824742967 3.545751707606435
Pd 3.2542433738781753 1.9836571593866181 4.9196844636523105
Pd 5.234740217382766 4.740430890080325 1.8315987747774443
Pd 5.55003115769471 2.6303457648504023 3.6296011881092483
