46
Energy = -198.36607841 eV
Pd 10.636625473002194 7.9441984087089965 6.184058572216094
Pd 9.854085249611423 8.904225497004356 3.79795360392541
Pd 9.7717000526524 5.541858403979766 5.837303392229549
Pd 9.223952427538412 6.166179950276422 3.1016585430275736
Pd 10.250667193531564 3.8330721214156656 3.864431945858888
Pd 8.777501756907746 3.042048509251293 5.911876053111457
Pd 9.12533310566464 10.179005481286683 6.144467153482557
Pd 10.178416180709277 6.62269643532309 8.552449611913628
Pd 10.530829854087996 9.447764300428421 8.35881293625829
Pd 7.865727715026354 8.267324973975892 2.101350061528793
Pd 8.306661485041296 4.780366759088868 7.874880919434731
Pd 8.095059612411797 7.465618597727642 5.052246577894549
Pd 6.8751968795563165 5.145512022863024 5.6010959592848835
Pd 6.432631937288037 6.280565166807962 3.0210292881572545
Pd 7.664061369790873 3.908953305814562 3.43358216749725
Pd 8.120029360043283 10.663665130455946 8.61312784902839
Pd 8.81278943293764 8.706890293390874 10.253232334901519
Pd 6.497691022391412 9.800759944301134 6.733098924059231
Pd 7.329107275715675 9.8637320061097 4.161684010021362
Pd 7.161839311262893 2.3350671978036726 7.883856422273675
Pd 8.23053850528833 8.001261214488487 7.592725109536994
Pd 7.703441234017262 6.431589941377911 9.845186810756328
Pd 5.551666363546019 7.818751024488928 5.10362394499682
Pd 4.812955986299128 10.550373697030919 4.831917851925212
Pd 5.964394304957829 6.5519413741395764 7.666582226424214
Pd 6.318551287986912 4.28003428738144 9.609187936295603
Pd 6.269478264570588 2.4666963122176266 5.231661285773471
Pd 4.981754756184921 0.9722670573577472 7.030257093513378
Pd 5.241475331177628 8.803536791683223 2.6779126906521244
Pd 6.184909708841444 8.778241829802738 9.222480189087696
Pd 3.8186579570063683 6.530065520632964 3.1170085316387834
Pd 5.044802738405958 6.535135494520782 10.277192845375646
Pd 5.026642110596664 3.8453776273199822 7.3397902581905035
Pd 5.020055904240979 1.9758882263081439 9.504098703872026
Pd 4.178523568798143 5.786726368889826 5.766445855897458
Pd 4.068491486811455 8.792854464631537 7.052051664490232
Pd 3.054579410568165 8.74013768348544 4.4030773639060214
Pd 4.959494663400274 4.184466885518708 3.690570606074211
Pd 3.56469068147268 4.304430678362154 9.521347174070211
Pd 3.5711113681913984 2.6842761874227516 5.484549954242007
Pd 3.3214029310681483 6.650528369820608 8.305699967802996
Pd 1.2680779953825796 7.0128585023221905 3.570764332184897
Pd 2.257871292049604 4.681574701690064 4.334440232218927
Pd 2.798448320292943 2.137991763930647 8.061573942198049
Pd 2.2029474561990234 4.520737017010374 7.090988423082983
Pd 1.923699190171185 7.017696087395512 6.128645990328598
