42
Energy = -179.04818791 eV
Pd 6.75540393786086 4.959415525672064 1.9772882255486963
Pd 4.470675339461344 3.5121955884831157 1.1792293345668097
Pd 4.461564164683708 6.31225152597916 1.1769778698133846
Pd 6.9744720922663 7.587781636502419 1.6277463380204011
Pd 7.05777846451903 2.350721619991967 1.4297024882864404
Pd 2.1432644541811374 4.9535499954493085 1.7819994589023542
Pd 2.708019965063225 7.2745947783595755 3.1584624401069226
Pd 4.072598457654453 4.888256022923755 3.495771262075033
Pd 8.371107879450522 3.3117264051580033 3.6813213445622304
Pd 6.5753997344331285 5.055477938978625 4.62270776872776
Pd 4.5181093294273795 8.996210455458813 2.1552878417784918
Pd 5.688841910784631 2.8657007480346786 3.575685404737778
Pd 0.4802720834338671 6.023274848392126 3.7618818914406447
Pd 6.731064480521795 9.304190348730959 3.774828117292005
Pd 2.9802472836156415 2.448578613625615 3.2526277095442766
Pd 4.892467611276528 0.7940155858277432 2.2789861117221974
Pd 5.407610277135492 7.08854883245626 3.6464454792680874
Pd 1.9714719855224418 4.384612399339025 5.048812419806322
Pd 8.220251432113855 6.984077032325495 4.073685003851219
Pd 0.5205641960338191 3.3660329537885105 3.150251934809372
Pd 7.23840664773061 0.8069481057424672 3.8783531823652257
Pd 4.76104702162698 0.8907390663956202 5.090128987627688
Pd 4.029124460412054 8.925982983497533 4.992505110270348
Pd 0.22186246782434288 5.534605268796687 6.547022966611497
Pd 4.520226618022019 3.605939377361655 5.865835966792477
Pd 3.9895767919510714 6.1586772728220565 5.9092510306356285
Pd 6.910803282838178 2.419635118322548 6.12263105152198
Pd 6.305875330451224 7.821800841217077 6.040707848337776
Pd 2.373086068584295 1.8630255631707122 5.805301994103847
Pd 8.79416375934902 4.481703620807923 6.045150650695739
Pd 8.777423089115718 2.6541175924861338 7.975629784236329
Pd 6.362890579572189 5.225931013825267 7.108582804771162
Pd 1.7767432870816406 7.538564757629543 5.6565845030540505
Pd 4.417297073112024 1.8074773439439131 7.682174911849469
Pd 2.5570790565320713 3.8908656170453555 7.631782193024952
Pd 4.15279063096345 8.090450336157149 7.649599559989438
Pd 6.320320497173616 3.2435848707325152 8.75673199656443
Pd 8.647281803655979 7.0082606651228785 6.775061444426792
Pd 8.369989019215327 5.16474318416307 8.75102008375766
Pd 4.479389775912705 5.367715166052716 8.794650470995336
Pd 2.137374387286101 6.441400668834896 8.076101992751315
Pd 6.537081251310021 7.277636689555997 8.676510999916287
