47
Energy = -203.23274646 eV
Pd 5.02553251889524 8.105680480891733 9.828575372572315
Pd 3.9554651171235453 5.386034896010262 4.010175996814796
Pd 3.3564924667026577 3.109191010193165 5.498579814919063
Pd 6.85765653536457 4.386684273298127 8.531523661814347
Pd 6.281967758130546 7.230784588344515 7.758260895915908
Pd 6.699827074401812 6.232587812943577 10.949869484294481
Pd 9.242767965980498 10.323771948001362 9.019771537068086
Pd 6.436184689368337 9.38190490094906 5.898080130758466
Pd 5.192865169094273 5.06581592031269 6.550027995327431
Pd 2.115728150670551 8.295219347543128 6.034572581994547
Pd 8.216422493271653 4.174077622366881 3.5734302052504536
Pd 1.4057515710226856 4.05602267196772 3.899440011305652
Pd 4.175023107575284 9.35304695759978 7.527527512968581
Pd 0.9041650615676516 6.703523025530757 4.098817369255756
Pd 8.17919810994139 6.086043767415398 6.341100652900128
Pd 2.3084833112082106 5.687089603831964 1.9617151713223813
Pd 8.527484490645081 4.263200914394542 10.643376242358586
Pd 8.492566612699692 6.45618429965883 8.988361069993106
Pd 8.69454085554757 8.617996245538677 7.13565498919906
Pd 3.3674285734306797 6.8466892809727655 7.977945648291936
Pd 3.6516034769140266 3.151334343322532 2.735662780418304
Pd 9.214953045971312 6.732388297886401 11.694361684399585
Pd 10.140962143426103 4.71981218454616 5.430591766738425
Pd 6.59988345478847 9.962880981358236 8.472042944467471
Pd 10.796304875648383 6.411356176809273 7.559851526761091
Pd 7.44359506121177 6.688517406008645 2.062002227729869
Pd 3.9820089759791637 10.003991998447388 4.886375281083579
Pd 9.52568269116255 4.104911666076597 8.044054542026993
Pd 10.896319059259277 5.453048253755311 10.012761543696925
Pd 3.0876837369152024 7.95143929716855 3.393531075796125
Pd 5.434107552946985 2.5290500221084327 7.137794879069714
Pd 4.7241946473034675 5.362344437052599 9.608200127223235
Pd 5.816912128869424 3.1936963061968755 4.449638878194388
Pd 2.1978060110618056 5.545085699356085 6.0071914580975205
Pd 10.452801891702277 8.09424740699301 9.766610751387207
Pd 7.7589369743674865 8.580163449351025 10.341847345264654
Pd 3.1765842020912225 4.069892578239689 7.989857089562296
Pd 4.597884107845995 7.4240218060575 5.598602512869228
Pd 4.80324651799908 6.6712339830079825 1.8016535909122222
Pd 8.204927479549097 8.068071777416003 4.43541735935095
Pd 7.7876636573058855 3.457209734953671 6.147567670839487
Pd 11.295003040183456 9.036497462110926 7.466246425864865
Pd 5.967498603915993 4.348552463740044 2.080685027786436
Pd 9.795853119040771 6.266042995986668 3.2601119273829826
Pd 5.789769761514469 8.535787426137633 3.4267948948973386
Pd 6.5146770133619345 5.95857241274448 4.379579957296097
Pd 10.631316640186288 7.6420313685669745 5.307889889720815
