48
Energy = -207.75201211 eV
Pd 2.9304420439823367 7.22171314836365 3.630465515277602
Pd 5.266483606211926 6.233653220229062 2.6520849850769532
Pd 1.1684064355282713 7.713939681382755 5.594797618649165
Pd 5.420975648668652 3.786117016586754 1.7504078820776952
Pd 3.4237537840170083 4.497774115207386 3.5270300221468456
Pd 2.146809949554549 5.24227758824335 5.828444952559679
Pd 1.8298357161658263 9.59709567871815 7.5782009706608005
Pd 3.592150771091981 8.858565097199559 5.726219309326317
Pd 7.482357339681651 7.593858160088599 2.2189980016643096
Pd 5.277124834878883 8.6193339688336 3.7002956370064934
Pd 4.687182492899841 2.0491800985962794 3.6743141014466536
Pd 4.083369043492175 3.3660920148760876 5.893736342986398
Pd 7.786704124590297 4.974140647647744 2.4625998238870475
Pd 4.306034420881667 10.50968488059752 7.661229794459281
Pd 7.010603618991055 6.939045699923418 4.957260983923765
Pd 6.2517582225216906 9.464441952148693 6.126518631227802
Pd 4.505529085301271 6.268151522552422 5.499716547080736
Pd 2.230438753801735 7.0394515423119834 7.9018373931651
Pd 7.810139264928784 9.518835923000381 3.904130023155149
Pd 7.303939987395461 2.315814254218411 2.9917933316576053
Pd 6.673533369418581 11.57135324054286 7.823060078065693
Pd 6.084436196332478 4.410973845259589 4.41935742380154
Pd 8.458389353658898 11.08631419958972 5.9043459078095815
Pd 3.5227118344351513 8.931419985625379 9.652708730393725
Pd 9.485554911173391 6.585172620223958 3.8216157993007567
Pd 8.678726031717641 3.7582696420536172 4.714028280802329
Pd 4.811643500496066 7.49787797687539 7.776310373236518
Pd 6.592650318898994 2.1611165237801284 5.627483035304843
Pd 8.63568186515899 9.81911708914377 8.238371668220731
Pd 3.7757632200495546 4.867801939154352 7.9669466523092485
Pd 6.127816245523577 9.315061949135117 9.272890912723007
Pd 8.967221564504358 5.755221928053655 6.338475627205977
Pd 3.5489712097396104 6.371276167671866 10.137497270360724
Pd 9.23194606822612 8.548291956791148 5.844175036306394
Pd 6.405950721417733 5.114641613733193 7.117447250970744
Pd 7.42468488774395 7.51946970875938 7.625095178860462
Pd 11.405369952654155 7.039454984122985 5.884310817322393
Pd 5.593093146431127 2.743680854955729 7.993839853054434
Pd 8.339078523182025 3.2083698330989523 7.305910096716982
Pd 11.090398289569759 4.643002845351781 4.894150633482575
Pd 8.290535584732186 7.989639377851457 10.15731581044229
Pd 6.20793189108378 6.199545999772042 9.75282198096702
Pd 4.793799187653914 3.992874375761681 10.23039575195051
Pd 10.190030855575259 7.595660789566649 8.213039457454776
Pd 11.06408818049364 4.974915318581658 7.633763749180776
Pd 9.95010595550274 3.267147816126092 9.360152850534202
Pd 7.347046425761681 3.545102038542441 9.83661207766276
Pd 8.73736956504027 5.5716365508541275 9.078314636863619
