42
Energy = -180.38825135 eV
Pd 5.970435995725664 5.703232856966047 2.274102185143665
Pd 5.732254871969286 3.092832477811101 2.9659129675574314
Pd 3.6500107006046583 6.855133917634439 2.1496178225969853
Pd 5.8579436441087 8.403468164731402 1.6440317122743036
Pd 3.6014232982052814 4.60907050975209 3.4471553936581487
Pd 8.247986322889812 6.989749966541218 2.735879711319331
Pd 8.022642225326644 4.447551377188553 3.3517077245959777
Pd 4.389136567333887 2.8651305938807883 5.355517340656941
Pd 3.441621166205648 9.145672827691975 3.260590529645062
Pd 9.659580296091827 3.063297211753121 4.916125519925
Pd 10.10935475430846 5.826391875917185 4.430068467257962
Pd 5.908128732204158 7.829568618442184 4.121170707518117
Pd 7.031296350847804 2.8316740690791096 5.2505010637593665
Pd 5.716401140362452 5.228027726303222 4.954348340626207
Pd 7.961036544863006 9.549088807467477 3.1396253694950107
Pd 3.439094312554408 6.965417121999402 4.910393454614755
Pd 5.594830575440874 10.609669056445853 3.4909255233261907
Pd 2.166088542513037 4.400959977363039 5.6035611965462095
Pd 8.525431385255516 7.877131962529269 5.2030707715403945
Pd 10.670802879849543 4.444577007889423 6.91852908582771
Pd 8.52479688868244 2.7678540112123655 7.405028089210883
Pd 3.3332434060905833 3.083919580684146 7.823225206949843
Pd 4.464660346250582 9.514806755439915 5.685463806921605
Pd 8.191131380437989 5.236965121699128 6.038476742957784
Pd 5.829549801717392 2.3237882200794497 7.573062592257548
Pd 4.068336523352517 5.4569351493725575 7.086003108940577
Pd 1.47747779557214 6.669550699896707 6.82562896765664
Pd 6.248495795106552 7.260612033551696 6.638167921175449
Pd 6.488741964099331 4.838090564873668 7.878798224646235
Pd 7.038523082050913 10.033636856989945 5.636792490470943
Pd 8.659423417256669 9.27010186075262 7.4951044155024045
Pd 3.5581300285468385 8.076576944425623 7.581123718688912
Pd 1.054481220758641 4.3382977982931035 8.023506976177082
Pd 9.882991055744823 6.905904247018914 7.292912715671868
Pd 8.970114364769653 4.929671198919216 8.960008124972425
Pd 7.149599379163283 2.975186343480736 9.78290714990983
Pd 4.7020950812766245 4.268271287438245 9.74462426989887
Pd 5.171381628642707 6.9331241050970585 9.295421315533877
Pd 2.6721183182717585 6.025053608630306 9.254129335880437
Pd 7.7304760228935825 7.294550251996097 8.889441649727631
Pd 5.912925528595392 9.352153182941827 8.103449392662993
Pd 6.943248584041341 5.479821121026733 10.672346551407442
