49
Energy = -212.88481447 eV
Pd 1.818385561992024 6.375366893497528 6.770773854604374
Pd 3.1544841676746205 5.680958542392802 8.969318389492045
Pd 1.7761210719576084 3.749845454433648 7.777162558386782
Pd 1.724115517835325 4.02841248075047 5.1342575272731805
Pd 3.084375271358807 8.03471513946193 2.594846482324016
Pd 3.383696623589196 8.272789640917035 8.126712362569739
Pd 4.53410909732229 4.4558736490546345 10.862355121239961
Pd 3.422821828527095 2.2446976050591414 6.305667231164724
Pd 3.121810501666434 6.112332267467956 4.360757168956995
Pd 2.6004793404572357 8.585953159814515 5.520733928996422
Pd 4.172498165978541 2.9589035156711843 8.703107446220208
Pd 4.015930289742381 4.923108538333541 6.551144266874261
Pd 5.016446477479502 7.154762204828189 10.106643082021721
Pd 3.9112270484683087 10.309604334752745 3.8668282532518603
Pd 5.212304637724912 6.089230579246153 2.505922098814108
Pd 5.529110028454428 8.882788982866536 2.138388467294217
Pd 4.2199223229566885 3.7180800139929775 4.049536981382812
Pd 4.854003350405399 9.929328672029255 6.414224831092701
Pd 6.06696998463388 1.2545780318901099 7.643164739520197
Pd 4.9583868165758 7.93824062985313 4.652787769209516
Pd 6.131113448618386 3.3888121870486767 6.275276210493642
Pd 5.908872492938679 4.9747505856361665 8.590033022617519
Pd 5.310170727095177 1.3258446281632752 4.757666045195524
Pd 5.419737251087165 7.108381356606012 7.119776007202704
Pd 6.152835668723521 5.570001615551171 4.8883376465029835
Pd 6.686301764392469 2.8858209624018976 9.813704339310437
Pd 6.566536000884338 10.207980798856394 4.328746770564434
Pd 7.012537335641319 5.363771723305978 11.114375182886125
Pd 5.99959148540878 9.263502851116007 8.689867033626209
Pd 7.877526591054686 1.4495369052960547 5.469562892873441
Pd 7.422027775787385 7.209972797377378 1.2140175257824672
Pd 7.398424105793862 7.68853742880039 3.886518170382858
Pd 6.775726096121039 3.2497337680567724 3.5122726205343073
Pd 8.361724523555166 2.8429364402403765 7.674482784148017
Pd 7.762618585785424 8.185664864218763 6.494982144766805
Pd 7.510970215320335 7.087532907419173 9.147317526856426
Pd 7.828207084994506 5.537659118004483 6.936679894378836
Pd 8.226532413627782 5.397082751852316 2.9759217418107777
Pd 8.079855929054103 9.7146727448922 2.0861004574157773
Pd 7.438944703714466 10.710782379835944 6.789434938145624
Pd 8.93188005356604 4.77036403924846 9.365858850365633
Pd 8.793009692768042 3.94644586360299 5.081027437334624
Pd 9.182742473003039 9.602614822165831 4.498764110508469
Pd 8.772226948340789 9.362763651217673 8.763823220503363
Pd 9.773112879288913 7.602474938268275 2.6829171179173823
Pd 10.397446776779152 4.5193956305278045 7.097108779540042
Pd 9.944885713720675 6.939680297211818 8.058993131295177
Pd 9.668237893716423 6.648529677891782 5.251713704028272
Pd 10.397284669561918 9.065217551450624 6.660440239754513
