47
Energy = -202.2322594 eV
Pd 10.220740937342773 4.7977592763855705 4.832823318201124
Pd 9.945880656658568 5.959326256755482 2.447318177784882
Pd 5.9546812748924385 9.841704059276028 3.8586004401273377
Pd 8.087293390854459 8.122282914430492 2.8572427926589032
Pd 7.9787921502743995 10.826189700702866 2.546685464077928
Pd 9.409266522801477 3.3355036809858105 2.874220122026859
Pd 7.840809797806404 3.215728327323207 5.31847160798253
Pd 6.882339418093422 3.0103699155992363 2.719592621934497
Pd 9.960880838539143 7.405755075107184 4.621442983864174
Pd 5.06687450885076 4.908698271007973 2.898626408114242
Pd 5.796695652805313 7.23281143511888 3.9640024021819396
Pd 9.721632062347464 9.985752112508212 4.265519964023369
Pd 7.701970181251769 11.428181307359823 5.199121303174721
Pd 8.144409027995625 5.808269859094531 6.295096924194711
Pd 5.051616445476527 2.622973522501299 4.495607659450086
Pd 8.42781128323682 7.816392967813416 8.135339110104958
Pd 5.709288133938004 2.7117413717977445 7.010012707398447
Pd 10.2736834510027 9.06651648933562 6.684073259735305
Pd 3.316211425004898 6.3638769516826015 4.330120810056207
Pd 5.682983175064394 10.2165222493429 6.5813766809889165
Pd 3.9637616888604756 8.767121058029536 5.17864620567778
Pd 7.7386816332882145 8.641128150553236 5.519321145861927
Pd 7.668376275671673 5.444243467478682 3.600402270484636
Pd 1.7364692111917657 7.779724027171279 6.131063104219391
Pd 8.119333102859265 10.371933872169556 7.612822894998833
Pd 1.225302492714161 5.145768425363841 5.500418218336463
Pd 10.380142914842182 3.7844364522893144 7.179167454615834
Pd 10.688014795656713 6.430055898909933 7.020260339624173
Pd 2.745410329500892 3.8392317734340233 3.744761486643888
Pd 5.862514911728007 7.3915491986048245 6.835483413016529
Pd 7.125611488207248 6.71551109241305 10.219708829071402
Pd 3.580845573680837 5.99299263566191 6.964486079531702
Pd 10.688014795656713 6.428001547468747 7.322238974408379
Pd 3.6577075388864406 8.78306539388789 7.815126796059052
Pd 6.158368849210072 8.943289110480222 8.988993981121089
Pd 3.225823911791277 3.413418202896373 6.292723882455755
Pd 6.341298396197069 5.101554410225395 8.26560639401738
Pd 9.172579124361636 5.434796051225935 8.904238691672536
Pd 5.658419856853956 5.008808044287531 5.549972132896807
Pd 8.08665858794449 3.072802328135029 8.090783173119018
Pd 1.4694519187043034 4.492226582332134 8.070962423429703
Pd 4.51966896481023 6.813991660839111 9.396080796359296
Pd 1.9156687489938276 7.01039087277486 8.822460466514904
Pd 3.902823714861144 4.027187485437351 8.825441393864658
Pd 5.296812307358966 4.83123234719625 10.971725455685982
Pd 5.9758783393539066 2.5797708382733346 9.634670362787265
Pd 7.843537607542732 4.113681738923442 10.673870625912881
