40
Energy = -170.96782428 eV
Pd 2.4434914704405304 7.9398972562651835 4.474241030275065
Pd 5.950148640616882 10.546543321740558 7.250011729624869
Pd 4.194568657032476 9.221158580382564 5.927245729770256
Pd 0.644567921129418 6.3193528105407575 5.6606440466348165
Pd 2.4952949760602086 7.6036427720484125 7.184169022187887
Pd 6.390130967853907 9.763689035311513 4.5714546351276555
Pd 1.9791567365362381 5.501402941641331 3.460953551062333
Pd 4.416452204687687 8.794214621869653 8.758705658530713
Pd 4.515905287308751 4.903265314895268 3.2087755914180036
Pd 5.013182130309932 7.347594198619396 4.110132916038841
Pd 7.135902762903966 8.061401692200999 2.531062388755146
Pd 7.126810190188252 8.51533559832717 8.494031659920264
Pd 8.300588460046018 9.605632649772387 6.480223043419293
Pd 3.4693771393740147 5.672404939537655 5.690915542418906
Pd 3.1133412849501254 6.537506546888203 9.50726682371763
Pd 5.432672918951316 7.1353431133590215 6.989662773715025
Pd 9.01766666878373 9.372538191953177 3.93588500184355
Pd 1.41324739879976 3.7575682717447343 5.422925802258896
Pd 1.720993744014954 5.015383480546133 7.7776876733953415
Pd 6.088840488994355 4.930626966856745 5.725130482913662
Pd 9.84805198964138 8.477685320375256 8.374698519690334
Pd 10.033918581743036 7.743318420379795 5.8352607881942955
Pd 9.351665923952233 6.746363897047834 3.406503226985341
Pd 7.407508880155028 7.402493558189468 5.2494488970413595
Pd 5.783676215086037 6.454134541655468 9.559323680890248
Pd 3.9062001922684195 3.1168627062173804 4.962729850728894
Pd 4.336295867146131 4.688643176509599 8.04167880511655
Pd 2.8666270923517447 2.5745099949603794 7.312850159405269
Pd 7.022347756415574 5.504463185907003 3.222676816915472
Pd 5.531135413067591 2.511224894122696 6.937143434821647
Pd 6.54476242673517 2.9745624543000804 4.129878236274063
Pd 8.583480468156223 5.467290114667753 6.520239744428653
Pd 8.443202905822204 6.31614149281108 8.988011351122081
Pd 11.212629066610386 5.585573981513705 4.94327774624845
Pd 10.861864287781337 5.978175857498246 7.698787473144734
Pd 6.8652001407186125 4.313574276165439 8.395841786360435
Pd 9.033761746853017 4.162863717274787 4.31905470469005
Pd 9.414216921907556 3.7986945155406864 8.716149913341205
Pd 8.087863815463981 2.8083279583729617 6.4855406355261875
Pd 10.66493862331353 3.492281996160971 6.401467490218995
