42
Energy = -180.55016766 eV
Pd 3.1890974043193414 8.198925856022916 10.164434857645489
Pd 4.874153953286202 6.355690947361005 11.176593010563234
Pd 3.989162658824886 9.964817021346175 8.262791634539253
Pd 2.1756620425049378 7.925830482227755 7.740405037556543
Pd 5.723349616359301 8.141145187009444 9.340758170449947
Pd 7.390457198142489 6.264634032674439 10.327219428312187
Pd 3.7820309780840886 5.966734151987853 8.764339260364729
Pd 5.577149556007103 4.21746770380083 9.74324347358734
Pd 3.0500654195483565 9.684849193476383 5.803091828706903
Pd 1.332798172421616 7.6632215844025025 5.256994419104362
Pd 8.279361641702797 7.954360479195942 8.443957374633316
Pd 6.506531671258143 9.806210351470584 7.414104433589906
Pd 4.675709681750861 7.783134097524747 6.813095947701777
Pd 8.12804855794166 3.706647233142554 10.25433541888772
Pd 2.841984492129652 5.693987057693603 6.284683202189353
Pd 6.416070389083993 5.922784695170832 7.8488177453744505
Pd 4.562977936030157 3.865901605086451 7.270961849234454
Pd 5.514466864676179 9.506578005560455 4.788133322988415
Pd 7.333956562048436 11.330489748027901 5.379654991689647
Pd 3.777645018648496 7.571276612709598 4.212271563889299
Pd 9.107683724507131 5.392393584769535 8.436464670390414
Pd 9.738022863142255 2.7788306603909385 8.281100671936116
Pd 5.452319585856461 5.633208980335597 5.303698678888506
Pd 7.164453481038457 3.2758202799068585 7.770443848257655
Pd 9.927112249486422 7.061266667382715 6.525307444375501
Pd 8.094443454066319 5.0367253704226265 5.851326945781843
Pd 9.005941870180708 9.608719824692658 6.444535289464527
Pd 3.7185132284370592 3.660298460797357 4.724820457412228
Pd 2.085416210064643 5.547278115492909 3.729435141150382
Pd 7.264017992436059 7.641323279893832 5.874429274655546
Pd 4.557093268907229 5.400234750270709 2.755115871376118
Pd 6.273649149233881 2.998146119810457 5.284522696260828
Pd 8.046460697930604 9.295164903132802 3.8600769288445917
Pd 6.300969418589325 7.36728299017799 3.2703170892078752
Pd 10.650674295149496 4.410510747807628 6.4056101325847985
Pd 11.358947357051495 6.081938503745277 4.490604236041808
Pd 8.83745862709594 2.432724899661716 5.7629820498496285
Pd 7.132627343683397 4.767131661957663 3.2524390936509744
Pd 5.340968692633844 2.873247493320148 2.7930246094186675
Pd 9.646399972019763 4.083485133500721 3.849133346670465
Pd 10.55614762525259 8.678739539048914 4.494232849980416
Pd 8.870884645782855 6.708850917879695 3.801155102833014
