48
Energy = -207.45544903 eV
Pd 6.0238894211685095 1.7444788061744643 5.700884462442398
Pd 7.78705427795231 3.305128773511873 4.634156357932183
Pd 9.631714417356147 4.331352172745347 2.985476859956986
Pd 5.292112004629673 3.3199567676383044 3.726748034647397
Pd 4.641055190182073 4.642474474276656 1.4964394792523579
Pd 7.136368239101988 4.80636356486094 2.3323725520924756
Pd 3.5337696192971944 2.988911791157364 5.737919795032929
Pd 2.798841567222627 4.351808638426086 3.4824490184498775
Pd 9.031703925463635 6.910485848519367 3.0122207701711923
Pd 9.807331590774309 4.63493861885309 5.531488332512895
Pd 4.943371894745482 2.2214014924397816 7.962207640147338
Pd 7.542600232016105 3.315415642870652 7.409885400168015
Pd 6.575760104485587 7.401525406270327 2.269302630662159
Pd 5.528429917089542 4.705235573575411 6.450265953287299
Pd 4.076897295387425 7.213553907336066 1.434937153785952
Pd 7.412216914248288 5.912506289482308 4.887019756722761
Pd 4.974101015108333 5.956223349800362 3.8108148436870053
Pd 5.801634067133247 4.245552176183377 9.349314275973919
Pd 10.080455253270328 3.8820792087707847 8.022275841917715
Pd 11.457109749952833 5.982708744508975 7.031344002155605
Pd 3.2218377584008078 4.303466214282123 8.010876418877576
Pd 9.666940814390541 7.389564048287162 5.485866265350166
Pd 3.0448761467259775 5.69412249054404 5.785419473610485
Pd 3.679096733708695 2.89198013216272 10.191501769585994
Pd 10.589330937361918 6.01409392683854 9.565042329627627
Pd 8.251493987357806 4.774252316899017 9.80898025834674
Pd 8.351647536473024 6.028503900333581 7.428472520984025
Pd 5.398049477485302 7.384832689979178 5.924208838525966
Pd 3.7154239463365624 5.518958014447704 10.345080069279414
Pd 7.443723232453194 8.713825306144635 4.470522416405018
Pd 2.4967618064109387 7.059737991274453 3.588346836070855
Pd 4.6472498301231475 8.693762380708332 3.5873449595272295
Pd 5.828017282361934 6.7206395927029225 8.413808318098285
Pd 3.1665257224427883 6.953621583327815 8.102673651923737
Pd 3.010451953543495 8.499498993575916 5.885848610631876
Pd 10.291957779085271 8.135835572238948 7.9747524321411225
Pd 6.222330473984017 6.43362870680522 10.963391210109794
Pd 7.395852391278063 8.609764832350816 7.244225112288523
Pd 8.38385754793404 7.456349981970559 9.761556348577034
Pd 5.249477156410695 10.10581983479269 5.6645956161732665
Pd 4.049328497217311 8.090128597958298 10.40591968430982
Pd 9.435749375071664 9.8830790322029 6.203565614482342
Pd 4.565457384948758 9.186567665874172 8.019197720072091
Pd 7.471206970529765 11.359886973448315 5.337816663556105
Pd 6.411568740015853 9.170181764403715 9.953399617908994
Pd 8.806040951000293 9.994439664133973 9.076131783042092
Pd 6.506497248065974 11.023588854879383 7.890007883663021
Pd 8.893207633847704 12.100119023063991 7.483185233706775
