49
Energy = -212.09208349 eV
Pd 4.665353122391482 2.878420018724636 9.09982456579033
Pd 7.242740159327299 2.0537674762556026 8.636687733501937
Pd 3.1639521572293527 2.656217317693695 6.449259979712774
Pd 5.424135584517507 1.2487937432666985 6.970516647568789
Pd 2.451489246649808 4.41239669040918 8.331512200092385
Pd 6.7658710411150045 4.458464507439891 9.85144481042306
Pd 4.440883354866343 5.4793557160515585 9.616199936397914
Pd 9.272794720471042 3.476718127894187 9.767170430742805
Pd 5.193011006918696 4.260105483861178 6.971046283199921
Pd 9.770719638169039 2.193730673604138 7.409049698898099
Pd 5.239182298952036 2.718275044125271 4.813496913644489
Pd 7.650013895855968 2.3081901461388936 5.7593771759208785
Pd 8.02727439582025 4.264700624073387 7.45831625747523
Pd 3.9359294722830125 6.664194783753451 7.251936888577666
Pd 3.7008095840801136 7.947189131493771 9.75251645934542
Pd 2.3122356066037892 5.114052994852479 5.801131373181627
Pd 8.799542995480493 6.16476945084323 9.296269064508223
Pd 6.514128824970321 6.382921489068384 7.687242216456289
Pd 5.907005733214304 3.9195395827981745 2.6850782551897914
Pd 10.719640347820395 4.717191591369617 7.850713973252706
Pd 1.5870011644232838 6.962841865821619 8.298562703113312
Pd 3.27692063102797 3.908184760271785 3.5014416031749653
Pd 7.107651529751242 4.916567797017581 5.086905428024622
Pd 8.515559052226774 4.2842578653621715 2.884078408905026
Pd 9.73985351370269 4.059845888118499 5.307201372392083
Pd 6.422213025713029 7.316814180744552 10.123600607710657
Pd 2.4187532901427042 6.4402085209358395 3.4797270250032826
Pd 4.734368180603145 5.877001653760586 4.6540694299775405
Pd 1.770183874468315 7.808439725429677 5.658475478111494
Pd 4.309444384206458 5.8382876394882866 1.771210092691675
Pd 9.10736460452932 6.571484257278587 6.645753795016689
Pd 2.8423523170143024 9.32211517638069 7.691200794601327
Pd 6.7923609497862065 7.560003279348711 5.38065851826194
Pd 8.101294951257065 8.571847040524405 8.107833276197402
Pd 5.4958266617722815 8.915033462930822 7.999340702084863
Pd 11.00718101820471 5.237328395293555 3.2281356514912836
Pd 9.000758491393514 6.751840835927879 3.9272427266380694
Pd 6.763498064645246 6.451353858386673 2.700959313173203
Pd 4.336713664404395 8.552508882600247 5.487786604539209
Pd 11.470443576264325 6.1171672833061 5.706435171535692
Pd 2.4769645200022916 9.04011829342082 3.292370546443488
Pd 4.858038383483153 8.174530527528622 2.909265996634706
Pd 2.4634435459340347 10.591470166607275 5.384691937453874
Pd 9.277007643539205 8.955040805189904 5.5293405657930155
Pd 4.634325748034518 11.139692875846125 6.7249383649042676
Pd 7.413717940658281 9.071750388036639 3.3828535207286676
Pd 6.9512267053718455 10.081814469802065 6.054640436154647
Pd 11.254090269972663 8.02962639791581 3.980887062277396
Pd 5.1163382373001225 10.559741925590435 4.060746103578441
