41
Energy = -174.98702519 eV
Pd 6.450386967631967 1.1727867784892263 7.791927966544102
Pd 7.851395145295949 2.5857455550190602 6.009508805276424
Pd 5.139199520116417 2.1193699903666916 5.755607231425838
Pd 6.358185341017909 3.72091301291401 4.017531702513375
Pd 3.687766361865485 3.2158054772152087 3.807172494663898
Pd 8.965571295168408 4.3871709033838595 4.391855310595409
Pd 7.439423735610732 3.404286570655006 8.7518804262379
Pd 4.782924911176703 4.955678140664277 2.2214199242646613
Pd 8.948657014962704 4.80226754788743 7.069965803827897
Pd 7.3775290005816965 5.637561492174412 2.5429058660098973
Pd 4.6941697867718215 3.106198267501622 8.282106057806047
Pd 6.269401859000822 4.660302785360707 6.622121849633774
Pd 5.752785594054984 6.669111821758033 0.5302797372775696
Pd 3.5954912304934106 4.364467072391637 6.141972586209638
Pd 9.902820575872811 6.4684902632286 2.9802068611173818
Pd 10.6456759800257 6.392447539148757 8.248731069586736
Pd 10.204831867357225 6.766530263451867 5.621887405155423
Pd 8.163117781488507 7.735917166005481 1.1594308638309758
Pd 5.130410125211403 6.117773543705583 4.594246310948938
Pd 2.625698190598245 5.763979465323939 4.052312462102634
Pd 3.074436046029147 5.198885054594378 8.565146819630478
Pd 3.5037332577412283 7.278848183428994 2.009858329707521
Pd 8.323632782018478 5.732803465934734 9.631984508671902
Pd 3.832561878069816 5.920998284970943 10.995274477179041
Pd 7.633718859269344 6.560361359402348 5.141194183353383
Pd 8.440164942768822 8.566435897019074 3.576446177528087
Pd 5.937635611277143 7.994538634895256 2.8059636284380733
Pd 5.687700109951682 5.435409654551573 9.125960261733262
Pd 6.487289766039779 6.2148429351756445 11.556280647214507
Pd 3.091269228043249 6.9552178298357745 6.525285405687894
Pd 8.979062145040501 9.28244605773267 5.977801588036752
Pd 3.8843695816979698 7.709040571648173 8.986613280934984
Pd 5.736920572084043 7.257411126627654 7.0474634798416025
Pd 8.333673674130813 7.446175278349296 7.656047293528152
Pd 3.7920669412648436 8.430442426343454 4.428108025133747
Pd 6.357097289044668 9.080164768618856 5.165396371328029
Pd 4.7935025663594 8.37389799170422 11.444585672028985
Pd 6.94100660408684 9.779805816737936 7.674733846874893
Pd 6.67577682813229 7.990233450816697 9.633082869983783
Pd 4.984496804473501 10.098086419726654 9.382423129906353
Pd 4.226934215609928 9.453476454739512 6.88334956462294
