49
Energy = -212.22698335 eV
Pd 10.030467616963936 9.440574320237113 4.47027805660474
Pd 10.862766913218902 7.086646662929538 5.6962201224761255
Pd 8.772539678687455 8.57172904593074 6.583585768099473
Pd 9.939617527286586 6.770205357660148 8.228636664064863
Pd 8.759506091342427 8.990928709681468 9.170584418066626
Pd 8.473277227604255 6.650388631879095 10.442548500123356
Pd 6.414380034474165 8.595225752830633 10.314199036786928
Pd 6.351350828199875 7.909421153080183 5.559705915705646
Pd 6.5173093388983006 6.717822469126408 12.191903866291094
Pd 10.414066729646283 4.529478958168034 6.779185273270275
Pd 10.31220950153329 4.94932890008209 4.135823925508988
Pd 8.906871932873319 7.158742869875426 3.7611794440523245
Pd 6.5583640751138805 9.703257307514317 7.757328774817443
Pd 8.314836824755771 5.969251369887319 6.060385562634072
Pd 8.635259734493117 4.52847607813562 8.770450432787227
Pd 5.582464677182308 10.411629185203838 5.2360586809162415
Pd 4.515156667979603 8.169025351106104 8.566490086563263
Pd 6.9917019803082106 6.839444178458371 8.23993106864314
Pd 6.875620102891436 4.46349092796886 10.771813297924185
Pd 3.949012036791529 10.353681534005172 7.274839677448056
Pd 8.145299270955826 4.866990034085315 2.5971897091620306
Pd 7.488251518212504 9.390353146242195 3.613354980667688
Pd 8.08130285041332 10.921114718671049 5.776971819222202
Pd 5.0267324118318335 6.195042324523407 10.098152585326794
Pd 6.590446395540118 7.0665283366140255 2.5205122058488265
Pd 8.841849974683566 2.3923559574550106 7.113772744013703
Pd 7.129911365864584 2.361730013995116 9.2666331410026
Pd 4.942490831271736 9.053626095584558 2.95050806279883
Pd 4.91808456538421 3.8592119497829396 8.920030825144762
Pd 8.24749005506901 3.45927647059959 4.813389158035254
Pd 6.6768231723198035 4.063581984599733 6.964982715205677
Pd 2.9303590759957014 5.709849151856091 8.449418900504629
Pd 4.859223471390557 6.0482546640893275 6.777157593212787
Pd 6.200563302014517 5.427552847062935 4.538789007461381
Pd 2.670274412176725 8.017629939485182 6.849822511486958
Pd 3.8631540347117332 7.226072908649518 4.5717895798383195
Pd 5.609347473994942 4.277979021111439 2.251418045194843
Pd 3.0695681578046705 9.761555234412088 4.806821267400395
Pd 4.059193912292163 6.482587555127997 2.0381377059199153
Pd 7.496273314859511 0.1935246690750873 7.797914638498293
Pd 2.352192376091448 8.521512379947213 2.518316075413947
Pd 7.275511696253508 1.043560234820693 5.327074590116745
Pd 5.412655986567586 1.75204336765173 7.189519626692559
Pd 3.6699806206108194 3.695013795565062 6.5712622325208505
Pd 5.484888907064258 2.8484281650554477 4.680138479368444
Pd 1.991564701046302 5.663135713942959 5.839715751658426
Pd 1.018654656149633 7.993923768595559 4.800317104177927
Pd 3.618653518768868 4.549653140027774 4.012522958225994
Pd 1.6273741739789387 6.023496588728048 3.143660948691611
