44
Energy = -188.82284249 eV
Pd 8.447989743352696 7.298327595335066 1.1508688038374308
Pd 7.689890637682606 4.654291195779406 1.4617423379595105
Pd 5.803472861320652 7.157746930768938 0.8594465714922538
Pd 10.054769966150815 5.621358201903693 2.438337105341771
Pd 8.926187320856704 7.56646564108081 3.806663890215465
Pd 6.948570400845047 8.966525283304883 2.6102206717948477
Pd 8.756749398406383 3.875341965014271 3.824204640906619
Pd 4.423810448549871 5.321635542643717 2.2771187655787055
Pd 6.133111449859509 3.7420241502788127 3.7096975275826343
Pd 6.693920446430042 6.2652271254530945 3.172159577798114
Pd 4.378395915537308 8.164340566300025 2.9525418997183763
Pd 10.32984973967848 5.691712121306248 5.1669832622318905
Pd 5.310576516397397 1.745947976708239 5.300677659517284
Pd 3.8225840247659413 6.295572409997289 4.674143662465026
Pd 7.866882435259958 9.707944368333088 5.046891594815592
Pd 5.349425533691938 10.413134669222199 4.156271158709204
Pd 5.343923174591586 4.474638499281078 6.151857774489092
Pd 7.641904447407426 2.8823869816474033 5.940444270264039
Pd 3.5089900683969018 3.6934483660714132 4.340654212910096
Pd 7.741300915240423 5.624914206698712 5.560755544220612
Pd 6.06985054943801 7.807327292469833 5.122524136805053
Pd 9.524944734122133 8.021996969408992 6.3673201850774745
Pd 3.3397965850522198 2.596265115765043 6.844072079108807
Pd 5.865321050692315 2.2943322981041594 7.915860188483167
Pd 3.534100330561874 8.866008942048458 5.493443100590063
Pd 9.645743550217453 5.704267623052974 7.748191758088894
Pd 2.545592176430958 5.130511482084008 6.656621766810478
Pd 8.19845103531929 9.99186894448508 7.691581975382553
Pd 7.3161507361238005 4.530706653079201 8.008650286665032
Pd 4.629412185651198 6.857877791016881 7.15929244097583
Pd 7.228532020262038 7.360572479444441 7.477634551484798
Pd 5.691778375682483 9.894697085927127 6.752284097028156
Pd 4.27210465285218 4.367068599430896 8.603671593963313
Pd 9.131149521793608 7.946541011517258 9.155599274001668
Pd 6.223247953955183 3.677673366710384 10.299160496667794
Pd 5.8815739398893045 6.34265913239938 9.477598726547908
Pd 8.397679866344312 5.5544336753604915 10.209545856126729
Pd 6.176684803184359 9.126704119195882 9.196916606944724
Pd 2.760780930060928 6.548500991460889 9.009041103027865
Pd 3.6389900702124436 8.995520631777465 8.241385900178807
Pd 3.996565860818793 5.257864320060431 11.08306730723776
Pd 7.374944069945605 7.914480084895112 11.137719858683916
Pd 6.4242040761196115 5.635660127191235 12.104209591383661
Pd 4.301653443880038 7.981817209884095 10.715442579103133
