49
Energy = -211.88573244 eV
Pd 3.0464213041636006 6.380713716874289 0.9153754744431523
Pd 3.8145689438086077 4.3076151254134585 2.410826712264879
Pd 5.523587784528995 6.400060738118766 1.9932879559147239
Pd 8.081096693193583 6.130995952767177 2.6167827499165766
Pd 4.060822652211148 8.687701525167212 2.013663092036031
Pd 1.4046518944044366 7.923848421660306 2.328109706189784
Pd 6.414833659291927 4.076193699629631 2.8578303523603967
Pd 6.832911047932201 8.651323421374213 2.499221716121015
Pd 8.977835285698035 3.658824748382706 3.534171793020902
Pd 1.322669303917422 5.32248105943221 2.8356334819890874
Pd 7.190214681297723 1.5224179506951871 3.3729761055765173
Pd 4.679549780158616 2.4286883012745997 4.057774750152982
Pd 10.37092737476564 5.834221813493465 4.054907138284724
Pd 2.585679699178114 9.095951014878882 4.299017814854956
Pd 5.083649921912735 10.007846296967092 4.137940138398687
Pd 3.5204631063904728 6.669284560238197 3.7030518888062174
Pd 8.795314561971992 8.09724924053942 4.3176544635724
Pd 2.5124160157915845 4.026485665977814 4.816730002311951
Pd 5.044397771372303 4.954920055954511 5.052310066853992
Pd 7.744779403887591 5.761745076799618 5.2452796557483286
Pd 5.963407396223735 7.603034138053357 4.705163975245594
Pd 1.4713585722516909 6.509559309270347 5.372415242741297
Pd 9.109811380028534 1.5073312013625053 5.276423490893335
Pd 7.094144159473469 3.265522478473805 5.4009846536982264
Pd 9.914877148148907 6.772123835530911 6.4599743326133625
Pd 3.7361536955218617 7.608942889416676 6.270584906424035
Pd 9.87221894187829 3.971871682640603 6.139541701300079
Pd 3.3446442472377114 10.746761051716073 6.163393196953269
Pd 1.332391835795194 9.034643945629144 6.6187460421786115
Pd 5.5448662012193415 3.5521689001127665 7.51250014745917
Pd 5.543596902439368 9.510324041492241 6.734045603850999
Pd 7.775465776330916 1.9134662180225765 7.536403368055233
Pd 5.900044192866068 6.347260769159348 7.206509868453876
Pd 3.3023295041515666 4.99971658003834 7.175397183792904
Pd 1.7036410656939691 6.924569822389332 8.124214513002233
Pd 7.777020004291737 8.298342541768667 6.7564214163501255
Pd 3.5730412585315987 2.261656771173741 6.466795811293182
Pd 8.005533989260794 4.738683595441588 7.796745050273077
Pd 10.677228161226301 5.308357908984839 8.48848311393861
Pd 3.491525272260247 9.104512288956172 8.44543474529096
Pd 5.943880542394023 0.9365635163467438 5.898057621764433
Pd 9.706635516488566 2.8784418721772567 8.923050255598104
Pd 4.370928041518242 4.080589347014438 9.745153150318938
Pd 6.249131726514204 8.333959802384127 9.01334955953354
Pd 4.091652621186822 6.641559652591662 9.18387540074009
Pd 7.024293009379423 3.104074545819465 9.80348694793373
Pd 8.6310482252139 7.048238963372888 8.910646276450011
Pd 6.461670860107278 5.717232521990136 9.847069542796113
Pd 8.934250109543148 4.895502666084827 10.516169065292504
