43
Energy = -177.39051811 eV
Pd 9.571179459633562 7.563683195924424 3.9197398587236556
Pd 11.076386273761909 6.550358669236593 2.133207159590535
Pd 9.40116261575193 5.554882839059493 5.861097587234084
Pd 10.643511937255857 7.329134876190222 7.355230619437435
Pd 9.020946287609942 10.137429084891282 7.242987670894713
Pd 6.942741909316539 8.363668191969328 8.577667653798255
Pd 8.418610268409646 6.2519440099265955 8.480473453463294
Pd 7.836663766839727 5.489136878078365 2.999724798234806
Pd 8.093820907153203 9.1589127986522 2.2358714868070693
Pd 7.999958134878249 7.708661839663074 6.3068481924114055
Pd 9.567379361478134 8.756241025927798 9.343692124771055
Pd 10.174923483133878 4.63767002536922 3.542183459843159
Pd 8.765269214040806 6.881982952342039 1.0864741269871694
Pd 10.700906467324975 9.191252048048625 5.559697573305234
Pd 7.47129413481826 10.867704691424 9.217863124895919
Pd 8.327730678345764 9.992196355923813 4.700242560210314
Pd 8.837689469841457 3.7444810694334665 7.781158569816899
Pd 9.917784281493692 2.991131791611475 5.433641541186896
Pd 7.347390700461914 3.8808450579103475 5.414358966059264
Pd 5.113709104681234 7.530484183943776 5.8511492177803195
Pd 3.145303049513989 5.783211406975271 5.003223780958147
Pd 3.0345380203882 5.417264759090379 9.822038115587015
Pd 3.0065212211138754 8.344699343409028 10.289626632295985
Pd 3.702313181508047 9.57370709330122 6.626808245418181
Pd 5.647024839791861 8.117271438053391 10.72160342755129
Pd 5.665824956024201 5.481396819739442 9.130431088119204
Pd 5.397447243505693 5.479897141751108 3.8653062009507986
Pd 6.874701204210094 7.662024669930315 3.916987396748258
Pd 4.304561290478961 7.4485948429999675 8.254443794444297
Pd 4.897366532425104 5.810053830216683 11.740005739401386
Pd 5.133877247373417 4.988439893586335 6.576589027359705
Pd 4.203960315939832 7.89742596213673 3.4880335772461817
Pd 6.311376202786356 9.938929435581368 6.499576319334403
Pd 6.340797069041348 3.128120561895119 8.01270423349976
Pd 4.7307241078327955 1.3905901758147756 6.99992132708826
Pd 3.752565176266243 3.5492495958897976 8.132852160467849
Pd 4.880940755184861 2.954148865467682 4.89963858666033
Pd 7.741096959639633 4.215365767694034 10.098524936713734
Pd 4.890749436085977 10.067054942953975 8.942779612111712
Pd 5.825720264984635 10.075896751552087 3.8396095602611027
Pd 6.726320862381076 3.1842545323494686 3.061457787134443
Pd 2.330966384607229 6.6039431967081725 12.12521041180094
Pd 4.1293021922968025 8.20971435698895 12.812375263006995
