41
Energy = -173.95280749 eV
Pd 10.585592518264397 3.7819506729964956 4.892511920597779
Pd 9.581766086891733 6.029098954426059 5.810349595187958
Pd 9.776381169960644 6.213741366067609 8.517905458527498
Pd 10.92449917238601 4.170882875922077 9.659551605464726
Pd 9.686788259428136 3.675304497931717 7.399977811572583
Pd 8.937438763518777 5.127151378394995 3.3498601376607224
Pd 7.2156569207475005 6.388461588601577 1.930179378899064
Pd 8.614771991218591 8.334668300536782 4.57753620530037
Pd 6.245640855553204 8.945211592185723 5.750008240726867
Pd 6.939264368037056 6.365561171243497 4.743168391205759
Pd 7.977314032317375 3.584547050260639 5.312849999738502
Pd 6.275658445232702 8.579684292787663 3.096001326671509
Pd 8.359479239087976 4.095724610934161 9.734626472532778
Pd 7.390539308548652 5.292105163838475 7.36135291883006
Pd 7.390458492147824 6.689662675250457 9.629738401401033
Pd 6.243675057407499 4.261342843482985 3.3849363423146843
Pd 8.156462102991853 7.827085219612879 7.184697162130507
Pd 7.172936086648759 2.684827855747631 7.665623662206121
Pd 5.017060863799977 5.570021843033734 6.323301346123453
Pd 4.582052587659537 5.945266069661878 2.12595026459601
Pd 5.55770973890126 7.969515793557328 0.632336709868135
Pd 3.1681402008261 6.448484663486879 8.167496054003799
Pd 7.842019630773566 2.954453225988326 11.981421230080546
Pd 6.254582125526085 4.890034013133877 11.283508734954182
Pd 4.297091800456983 10.053780460002582 4.361515389004206
Pd 2.047272734881347 6.245327689206681 2.9926309747906625
Pd 4.598555636156248 2.102407040664033 7.987999823154796
Pd 5.588106875301015 7.597883036995355 7.940725241480802
Pd 4.881719949154264 10.432480593195232 1.764929983506594
Pd 3.675425898522375 4.473222864593162 4.200121894733589
Pd 4.369655026208464 7.256474584869057 4.387295473354626
Pd 6.1364284927540576 2.4512272948055553 10.098829728453895
Pd 5.417515698763447 3.063845253871776 5.632345740887282
Pd 2.2328203929677697 6.258407362083576 5.6859498141830676
Pd 3.6206290438735436 8.585975469993555 6.523845337661216
Pd 4.771854662731788 6.800310849977528 10.316006835877667
Pd 3.3742545876857912 8.33835239230954 2.0899941143067604
Pd 5.095486853018299 4.593604451027896 8.840090948399629
Pd 1.9232038310761579 8.612356307531876 4.389045447840622
Pd 2.361147299643766 10.651517827763902 2.690356884293913
Pd 3.015753987574696 3.960849590670827 6.886237786121804
