47
Energy = -202.54272726 eV
Pd 10.480318527050166 8.19539673331954 4.637874719302533
Pd 9.767280850853481 5.801812551972703 3.353964708760025
Pd 10.215115414038147 8.02736088645342 7.29104110679551
Pd 8.618569435200191 8.137198541945667 2.499360972691335
Pd 10.374785686871114 5.7945414140349625 5.959581019919517
Pd 10.459623383531648 3.473253778830687 4.653700703508011
Pd 8.522649357725557 9.686059196158606 6.14566795803752
Pd 9.212337245246486 10.369045380380138 3.706334932779792
Pd 7.932293763263352 5.802296114695092 1.4109142978685525
Pd 10.109066328373403 8.066570186945274 9.92745374963178
Pd 8.746327715653514 3.4651759549683203 2.536597053316993
Pd 10.127051758155053 5.695713867789115 8.726698343941042
Pd 7.93543867172786 8.528068672653317 8.491979090728059
Pd 9.386272863291259 3.6262825802634513 7.2880985677150365
Pd 7.90967136963389 6.014265779873084 7.29358153407196
Pd 8.085895589074351 7.230511745638218 4.973479174515107
Pd 8.982458756668548 1.5555918130389985 5.647607582949921
Pd 8.002511306004317 4.448423779078603 4.988049357937567
Pd 6.172418805142137 8.382904768717568 6.5551206447316686
Pd 6.1952050359667465 7.016492566576768 3.0237453569355695
Pd 8.044176576117756 6.421316589865537 10.16660446957274
Pd 6.727989234058433 9.497921988582934 4.07815011246059
Pd 6.25407634021153 4.401766531646977 2.9641771810231172
Pd 4.8774944480733495 10.587238198653173 5.7059142671271195
Pd 5.8954762519326716 9.094794467313713 9.964664093497003
Pd 7.002684514712851 2.0420384270092535 3.9994753306144766
Pd 5.802838268210527 5.849088597814868 5.619087370372971
Pd 5.7206753183497625 6.688278528969331 8.580123424767672
Pd 5.831205214197016 6.893159584853995 11.449550044419652
Pd 6.859428315616455 2.7761717400839427 6.6500842821738635
Pd 4.365459074456331 8.242050114088867 4.465204517916875
Pd 7.206681958529635 4.048785758594845 8.944294421846426
Pd 6.966360269905263 4.489276011883973 11.554569790626749
Pd 3.952543601680083 5.671004241509032 3.7068145893222093
Pd 4.163846837064032 9.32684590003903 8.027534429733153
Pd 4.850083796276741 3.3688828754470297 4.9715501130010775
Pd 3.6938365887579794 6.977308080902456 6.792247574505633
Pd 4.864391247680997 4.207961838074382 7.558961534787849
Pd 3.644249985200194 7.525353842026111 9.980047150501752
Pd 2.5041825351950453 9.480062098831768 5.948621682158293
Pd 4.759392442078501 4.780845661587178 10.16776854159711
Pd 1.9170804569547066 7.027964747136409 4.790531751410585
Pd 2.751768168209519 4.649621554642801 5.915997326446223
Pd 1.7227040875643056 8.065953428036392 8.223870971432968
Pd 2.701293132565152 5.39201947914378 8.644705250748332
Pd 0.11430781971665636 8.388612743841552 6.160540330582946
Pd 0.7012982321048196 5.923294170630447 6.964914065046305
