48
Energy = -207.46840398 eV
Pd 7.94164373057081 6.069393367554236 10.953239437577977
Pd 8.276841917738759 3.8432388417328096 9.550875596482353
Pd 5.850311603743385 5.012791333442399 9.87572628950898
Pd 8.31928851962845 2.086788647850828 7.576273732980314
Pd 5.689885408312459 7.527355806089197 10.754381680944341
Pd 5.900879125478153 2.6543904507448333 8.606712671708244
Pd 3.551984991843824 3.821225299038098 9.218773574396778
Pd 8.172317648514623 8.318359515277766 9.699831305638524
Pd 10.119050606659718 4.00362479305422 7.303398891590792
Pd 6.402993645310602 7.273734722320659 8.190025399391835
Pd 3.722369923581148 6.4834800030453 9.001540703301346
Pd 11.188547098064843 6.409297685936209 6.954514383964981
Pd 7.827936473532184 5.090546142247154 7.393484445408125
Pd 3.466906927529914 8.853769946485158 10.001271289080195
Pd 9.769716977264189 8.444382619250735 7.666962015564327
Pd 5.204110141478205 5.021578192562715 7.276184593861394
Pd 6.313291999910154 2.8830092495148705 6.013857288532604
Pd 5.80967460203928 9.76955208968894 9.188557430956019
Pd 3.7726703016263077 2.655067682877962 6.835435277468213
Pd 8.080200312963818 7.4540408529961795 6.035871040074777
Pd 8.783355682870894 2.9531032246013442 5.070528014542074
Pd 8.181138109759713 10.481633846962746 8.179737982101084
Pd 3.949808170394619 8.707656171776403 7.4089090721320945
Pd 4.529553206161074 4.814867712986883 4.733514952878933
Pd 10.445996645882511 8.022656264725201 4.953201890932304
Pd 1.648617173575666 7.4250532869473576 7.642673888960592
Pd 5.462858139972909 7.147398681224986 5.688511747418364
Pd 9.815071370518371 5.4251720096502565 4.996349825422669
Pd 2.560217451498064 5.039958952042471 6.984539391108977
Pd 6.2935171253740885 9.649851075301884 6.552782677231212
Pd 8.795642628008256 4.348945359260178 2.767650277454457
Pd 4.374042214862486 1.9043539976050456 4.361956927472967
Pd 4.2355908855574445 9.489228630957554 4.860896781669225
Pd 6.617006290790344 2.935656174132369 3.363357211488884
Pd 6.723222518929676 8.98092553573024 3.9981749228333268
Pd 2.8376780301314923 7.25754709594584 5.292484901812749
Pd 7.132384308692246 5.224832600958431 4.866056614916052
Pd 8.759859401887443 10.080424699175559 5.603385156180209
Pd 9.15863371608015 9.448402054463866 3.0766744482259267
Pd 0.7642866531026181 5.6690400119965485 5.166869641069147
Pd 4.5387247785416065 7.420497322645382 3.2038713053361736
Pd 8.435837243172832 6.964914530977228 3.212806329869966
Pd 2.2766435724637706 3.5017335869168513 4.7062804189596985
Pd 4.164253902180279 3.6955064525343118 2.4165638143657744
Pd 6.324900232118125 5.411306371452135 2.3548595981746256
Pd 6.5526574040570384 7.912050198105013 1.5866436962420092
Pd 2.413598886756806 5.695724552862414 3.0759579296286956
Pd 4.121260496275262 5.992910551758002 1.0548217285476054
