47
Energy = -203.29925053 eV
Pd 1.8339228338275961 4.43414187102278 2.80697868621446
Pd 2.199733186574473 6.8268796693750025 3.9313330837878007
Pd 1.9772374130916437 4.68020263712609 5.4619897217156055
Pd 3.645667261417415 6.187640844615078 1.7092697786984936
Pd 2.4996486003540053 9.199181749378532 5.308540446614292
Pd 3.3091052617422587 8.783215490195484 2.6007907139925
Pd 1.0412592380953507 7.018717087261919 6.287194494050879
Pd 4.0232441649768145 3.4326428423208646 1.705776421088691
Pd 3.219399455383447 2.5342238915873363 4.208724408078437
Pd 2.1157455708249886 5.168780514421214 8.133016739495039
Pd 4.321980008758577 4.970455815751122 4.023926786283283
Pd 4.486013791794873 7.547892047021146 5.172860933976379
Pd 2.8242237751284613 2.6565866520165464 6.885947484012148
Pd 4.276149267518667 5.374663392959779 6.693104381806992
Pd 5.03142072504201 9.986817143103856 4.185387921753513
Pd 5.649115238223923 7.5460575516025825 2.802810780962029
Pd 4.729366950553365 9.795516957989724 6.88722408630289
Pd 6.178840579971647 5.003869067260262 2.1399385592771067
Pd 3.074461678567235 7.769116792747945 7.663852513976748
Pd 5.822738689145963 2.5975225646069773 3.474585550351575
Pd 7.5723173345070425 9.26896564134147 3.1511174375494586
Pd 5.321357053001512 3.098954429805169 6.033336220542571
Pd 4.3805111283837315 3.6455623944699043 8.727977526484635
Pd 4.284761513210682 6.24047064011272 9.573205708906425
Pd 6.591217002155025 5.948249815419281 5.098035366529026
Pd 4.698657301564408 8.93307484226146 9.47013596700677
Pd 8.027022225211933 4.031786054545228 3.7900716117425755
Pd 5.7738383520770835 7.25670314031559 7.531959667967573
Pd 7.557627358447184 1.851700130075914 5.342391845429065
Pd 8.151825874491681 6.602467682500878 3.0492170180357125
Pd 6.628122159989741 2.341214356089765 8.2056378056584
Pd 6.980400218412876 8.853120575277446 5.632376387502233
Pd 7.822533065169755 4.201851205947662 6.649725526562987
Pd 6.6189121953635475 4.997202527899602 8.874999319230403
Pd 7.042664191138928 9.50379207290054 8.277500068866699
Pd 8.255974335168514 6.98933937128212 7.108096616716357
Pd 6.893772983734089 7.39794627621444 9.99748765276619
Pd 10.031113993021957 3.0144993480050637 5.209568738091167
Pd 9.196200349432871 1.9010531440542766 7.475909575864141
Pd 9.686111239623598 5.6310794309368255 5.106908295229236
Pd 9.44523544112436 8.197092060606494 4.749479880982047
Pd 8.688295906824914 3.4263394034923302 9.568687936320899
Pd 9.292120875778483 9.692157647493094 6.878172338832408
Pd 9.095297770842924 5.948316213591032 9.351628534802764
Pd 9.341632859713892 8.507655562812472 9.232798951035903
Pd 10.302715291333733 4.510104144530535 7.500952551276944
Pd 10.78132571064482 7.257079479601747 7.026405130580783
