40
Energy = -171.11045158 eV
Pd 7.580194020924174 3.320637581253082 11.333241234662902
Pd 8.942118356918188 4.115071201832948 9.242898628546788
Pd 7.7738515751764465 5.945624882238903 10.952388113597511
Pd 6.09589793154748 3.1880568216845893 9.17695772568171
Pd 10.490596426098984 4.790491037191366 7.2266811884145294
Pd 5.3372692037517355 4.784530002375697 11.216073446626865
Pd 10.828803362499093 5.4718025198165465 4.627847907899295
Pd 9.251394616818262 6.707371232368247 8.663732348037904
Pd 7.602355677281902 3.516381218110961 7.097158101802103
Pd 7.710068092049337 8.394588847290471 10.02331756379913
Pd 10.42819450229852 7.622888674798592 6.292414464076623
Pd 6.71450779977903 5.756590493793512 8.509462804292118
Pd 9.29061047886948 3.343025055992651 5.15080679755492
Pd 9.102701479320343 9.280173742675995 7.918417738471832
Pd 5.327508703913155 7.216993326948217 10.222024191278447
Pd 7.675841865023086 10.977362813098404 9.402041285116866
Pd 4.820602633643648 3.3129525668964774 6.812549784360573
Pd 8.456901940905562 5.966827408348227 6.164455447125939
Pd 4.1920032886792695 5.080530411908871 8.778077542552452
Pd 9.652830230209686 7.677980287001545 3.672396480314178
Pd 7.176921101578381 7.585419370724582 4.495099558829535
Pd 5.498861175126586 9.553828393637103 8.980519772448252
Pd 6.831652267676729 8.094072682704676 7.1830176821414815
Pd 8.655653326984762 9.543258776961743 5.325191053266085
Pd 6.860106373559122 10.763441068838043 6.902319734165205
Pd 3.1959010907428436 5.583672220520672 6.351088877665419
Pd 8.340150159737162 5.213922529223832 3.5823122794874838
Pd 4.074678525950748 7.602707593377996 7.925262436697922
Pd 5.879431958010138 5.531657842656387 6.004839750637983
Pd 6.0068593258097644 9.98682307558017 4.542635675375818
Pd 6.599415358708332 3.372362335703783 4.5784701543065065
Pd 3.9695292302433933 4.042722432174188 4.332822936279597
Pd 4.247202247083466 9.984621987633957 6.634459504126879
Pd 7.493499981919849 7.138609532062557 1.916169198043083
Pd 3.070975389861613 6.562161450862098 3.7347227408500863
Pd 4.722781337732131 7.725411070766988 5.320827838653111
Pd 5.706993040375423 5.640651522315232 3.2444826135245197
Pd 2.2077771861916773 8.104316506127663 6.060187030085456
Pd 5.124838611199785 8.196076187892395 2.6447849018090697
Pd 3.295525024552416 9.525080936868445 4.028320687528256
