46
Energy = -198.89499061 eV
Pd 7.156439820550849 0.8448505416559612 6.219820037116771
Pd 8.067244295288841 9.500158550121629 5.252933875423296
Pd 9.201610358069676 2.633044882267679 5.879523243729352
Pd 2.872444444620034 9.805066810430882 3.522752233656294
Pd 1.9493270126221545 7.43691255970014 4.563907995738136
Pd 5.184567217334841 1.383652174350079 4.416102039121367
Pd 6.2151017019135395 5.6781287122044795 4.3397014884672265
Pd 3.6238560569537452 9.05601571103097 6.04221407307835
Pd 2.738798719163546 7.551820007575795 1.904003075071633
Pd 4.893008270534676 9.257204100396073 1.7433100059584916
Pd 5.965873679994013 6.43896067545996 10.241996299494375
Pd 3.3541743519622114 5.299895389189189 3.2664807469283694
Pd 5.241953895947101 6.3755084211313084 1.7073938019356036
Pd 7.554096216389933 7.391745473683554 8.154771846550771
Pd 3.2314083053740434 4.240420982679009 7.636087213133709
Pd 1.705665464479188 4.928380387244694 5.477654803421133
Pd 6.6173240592188325 3.4327972931882025 5.566492219810676
Pd 5.536654771355397 10.142280873341607 4.396235522257544
Pd 4.521073892815433 7.718769454810619 3.8884403060410375
Pd 3.4846371897453636 5.969164400238178 9.55097623647235
Pd 4.044798098784233 6.183315374902084 5.906841385203367
Pd 9.705426327633385 7.833752807105487 6.564988630079894
Pd 10.643172099167016 5.25482915656075 5.8904610098551125
Pd 4.68683037462956 7.865263853225238 8.142016937125844
Pd 4.192583517873085 8.31049032466416 10.669399061597007
Pd 10.079812037017904 6.256618969592792 8.581412155469227
Pd 4.034075049983904 3.617210445079418 5.103349499939323
Pd 5.808489116155286 5.277336871750948 7.5255061281698
Pd 7.899644504365492 4.890744466366261 9.443883988654939
Pd 4.941785807171842 2.2089964030863483 7.2257298961055465
Pd 5.782114159799528 3.6618059770301477 2.807563342535208
Pd 2.1420922553608457 7.0295706863676415 7.389756727051299
Pd 8.509871487838383 9.823552517937657 7.922541002978781
Pd 8.818487499979106 6.86985103723182 4.3360827721511015
Pd 8.649270710599753 4.275324551635003 3.9387833815488507
Pd 7.7292492764359775 1.8125901322598308 3.700476442017105
Pd 5.967959008124719 9.996382012935786 7.091313673490473
Pd 6.509842439563839 9.243892058296947 9.702761376335912
Pd 7.7797234854432045 5.838169139943064 2.0734973700324897
Pd 6.978438811841135 8.243700557442864 3.064605358923984
Pd 8.453459579594375 7.3008227750209365 10.579879225229258
Pd 5.269412257360949 3.7723377795956123 9.532450097569077
Pd 6.344625457029935 7.673443034286515 5.9125254292775296
Pd 9.9370059885017 3.6738650081741864 8.137130545195292
Pd 8.221290053963637 5.328558394764312 6.58945327447627
Pd 7.406894051954741 2.7828019762256044 8.058399851351059
