46
Energy = -197.75002533 eV
Pd 5.445514756841129 7.335981103719633 9.298742332579685
Pd 4.22437283256784 5.037505897717497 0.40256842822281114
Pd 7.247252660101093 5.335436393159339 0.46553257304776624
Pd 7.5858550557970235 8.071252703694148 1.1619664847359508
Pd 3.1175734224132103 7.344561478786564 1.3804874583303461
Pd 7.218950355190337 2.326690469741626 0.7550039824997119
Pd 1.3851420355538477 5.016281677473157 1.7712432753404896
Pd 3.2493197176169533 2.9867015901361467 1.827344348261154
Pd 5.615992075586008 6.626960460837686 2.1420789086605962
Pd 8.759514583405172 3.8782006655226837 2.2141609383524985
Pd 5.154151290227889 1.2407386716948527 2.1757734556529935
Pd 8.076600413690528 6.230216662038871 3.1259417809813934
Pd 0.682130764904353 2.4861188267055474 2.707622461046021
Pd 3.601215943241897 5.220528609671251 3.091747986597499
Pd 4.027944320647182 7.991552312572588 3.8909244783842496
Pd 1.6202737230685353 6.841814773966737 3.8491985131420283
Pd 5.895079508117994 3.943461776378017 2.3025023251893386
Pd 7.381277533334633 1.8394200096098758 3.40426744818059
Pd 5.184900673528741 9.202712629852932 1.7204142825747915
Pd 5.346883090624884 0.4208399389571625 4.850803735931445
Pd 2.2401456973792437 3.508465484181406 4.582303715263466
Pd 2.9056877259200635 0.92880750008803 3.461636281803261
Pd 5.763859407244054 5.6670478468273835 4.548842521007165
Pd 6.710460460212313 8.353120480404044 3.968816051240721
Pd 0.6892997456467826 1.1883690276907914 5.037790943537559
Pd 4.951666340875932 3.006978986627634 4.586973610543049
Pd 3.157069150096774 1.519244480975701 6.0113024142401255
Pd 7.871704370209675 4.1226433654890355 4.739331419719615
Pd 0.24075167833039748 3.39320254902351 6.412888760027299
Pd 3.406655632649074 5.65033091870758 5.62023153821172
Pd 0.017478861312707584 4.743422687090378 4.16213524447433
Pd 3.7358779371517974 9.495294966594843 7.853540185684705
Pd 7.327551926737199 1.9120307376973906 6.029807905956055
Pd 1.0085112325467858 5.95725179820268 6.494205294679998
Pd 2.5718730008583157 8.205759391012782 6.119564349927519
Pd 5.256347423158077 1.9551889079109774 7.494922756859919
Pd 7.7336168770187985 6.617689668432311 5.963469104685307
Pd 5.253668001275919 7.7031819171324 6.261519011496651
Pd 2.6200317737819265 3.8672109621483077 7.539417271819644
Pd 5.428625866113482 4.450257401588468 6.8165940668126765
Pd 1.2868285435462345 1.3523994604407787 7.732789440810665
Pd 7.917285413104481 4.241182533302004 7.365985341867152
Pd 3.4955256923949385 6.481229530064562 8.07858665884086
Pd 3.358090287860618 1.981907889056512 9.298742332579684
Pd 4.6440877567033825 4.30700126755899 9.28115970163675
Pd 6.253862448793097 6.363487816118236 8.34880310516581
