43
Energy = -183.78637633 eV
Pd 3.778943806289871 7.659101104731379 9.602387065590804
Pd 2.853520289452455 8.880889831978502 7.370843108591446
Pd 3.397882532771023 6.233153227413091 7.257092772864518
Pd 3.988244189424437 11.248268864927054 6.926825324209391
Pd 2.7894085631577648 7.451845130597783 5.05790695318794
Pd 3.432634883735959 3.572163736217414 7.441752293610963
Pd 3.3194166556320415 4.853731726270455 4.988097698253488
Pd 4.298921365872104 5.111706760265735 9.480067128241794
Pd 6.339879482024928 7.899958982723428 10.36488137451064
Pd 5.219663432609115 9.706476813381407 8.705245225620152
Pd 4.788132818228889 10.819654704129324 4.461939103799832
Pd 5.910911509450845 6.952005520288258 7.956929785426184
Pd 4.697789525300883 8.270300255605779 3.5339866700421627
Pd 6.6767686382606035 10.877063396461134 6.636128748724044
Pd 5.270664175108946 5.81397058967961 2.66927210874135
Pd 5.1595750978632315 8.756905628718657 6.145585413182061
Pd 3.9258636837566203 3.54706122348966 2.8157567036459525
Pd 5.489236606419894 6.285384666985612 5.284724733156695
Pd 4.1368029751326345 2.2917707335070108 5.169423600329935
Pd 4.337745913597539 1.0831170586012049 7.486241771780991
Pd 5.516087105713995 2.77667846870192 9.152327369668544
Pd 5.878316797933954 4.393199968062264 7.087616262727814
Pd 7.757326375719617 9.013126009990323 8.259956575975705
Pd 5.717118424991825 10.209707317942843 2.0556251755729193
Pd 6.117952707464791 3.7947394065323565 4.278697166423397
Pd 8.816810586872974 7.1488560847296005 9.876955916155138
Pd 6.908366523200919 5.109874018272856 9.858159180781966
Pd 6.997258872585326 7.84400602268223 2.228926506251115
Pd 7.709844867369569 7.612572927192569 5.920452281373878
Pd 8.318801613603027 5.7251496646839835 7.683083595377715
Pd 6.577637467857254 1.9791618540734863 6.379122365406666
Pd 7.122571952746024 9.652214046131139 4.25218571302538
Pd 9.119508652113565 9.909184152333383 6.074572716014395
Pd 7.782327173449207 5.8293662435160325 3.787465530588939
Pd 8.295949534008345 4.0216529492355395 5.63649363822116
Pd 8.03999468701353 3.0760071405649376 8.432415300914869
Pd 10.055804044558528 7.797310733202856 7.611546377134885
Pd 9.646610439651024 4.662288772889683 9.863681785485268
Pd 9.201771984552613 8.112844003131759 3.7439539160659083
Pd 9.982724894527212 6.050569917092602 5.48182958116934
Pd 9.255373862254856 1.7378649839080091 6.519200652133627
Pd 11.229891001342077 8.406872601636543 5.364939311526567
Pd 10.392864718349884 4.060787118826992 7.326204094258483
