41
Energy = -175.19953364 eV
Pd 9.964287552328326 7.533512948504478 4.674773837332125
Pd 10.198032370403872 6.260814843502771 6.934697991133855
Pd 10.194666697480873 3.9165772492284603 8.027801765770294
Pd 10.64584015223988 4.063200084422826 5.37832500831223
Pd 9.731915112864066 5.254114728936119 3.0329499243157834
Pd 7.822687093632172 7.595793345480105 6.404272861515258
Pd 8.134681840141699 9.512653319935922 4.534422004747533
Pd 8.780389117227724 4.747562993339796 10.166015680890732
Pd 7.739401980023842 7.053230566438807 3.412049459601648
Pd 8.65018860716949 7.116429433925448 8.912861523030026
Pd 8.449162169851984 2.6439003668124337 6.324379930229343
Pd 8.334001859430654 5.139872551965406 5.214080965152698
Pd 8.305408911211378 2.312894498083448 9.000909773243002
Pd 6.242080948927738 9.941126768899316 6.549141094252016
Pd 8.561560143162335 2.8827884496244045 3.6870013887693287
Pd 7.734352975720987 4.939776460420029 7.741804835484686
Pd 6.762676634274285 9.185509161139024 2.1582573686001476
Pd 5.251594308664853 6.841223463501538 2.411439907969579
Pd 5.895492663589912 10.94346787269514 4.055505545512231
Pd 5.714973734348458 8.245545337347638 4.632865189504689
Pd 6.2949282830118305 3.74934000517495 10.06258421010661
Pd 5.294151510992445 5.423860035932643 8.22508158046604
Pd 6.71671876378095 4.67662107827003 2.9219738322171964
Pd 6.5206288562846835 6.412131480753568 10.376204471272512
Pd 4.140132383371237 9.38614807753675 2.6650035750944414
Pd 5.844517005192584 5.757913231075511 5.4838028869607625
Pd 6.228092940418657 8.172403966269997 8.423013260939799
Pd 6.1235014571811455 2.715552797467987 7.554133335456593
Pd 6.096307166954578 3.121899178481129 4.95090789481676
Pd 3.7572210425328407 9.931084983875868 5.319784402362519
Pd 3.235810701585703 7.35378068571758 4.069169998806657
Pd 4.174046989182511 7.351541459576316 6.752638051406035
Pd 3.9976335099741487 3.844230916691085 6.4621195187205736
Pd 3.95895149676606 3.020241481676837 9.047191692351687
Pd 4.0903404469931015 4.780584596819728 3.9079557938480765
Pd 3.8989917450854636 9.58633269228808 8.002767910642822
Pd 4.039585004121797 7.344025609305036 9.691526562091164
Pd 1.6727102820340685 8.433571551479039 5.849596682941636
Pd 2.283151179442215 5.757203819774059 5.913174184906176
Pd 2.6803530892640386 5.249534954082194 8.541379194252476
Pd 1.8445460343278102 7.736925483115954 8.31984554529213
