45
Energy = -193.08577406 eV
Pd 5.309693778804115 10.258579805498485 10.513020459165327
Pd 2.0874239888644297 6.952255425808772 5.406595272820932
Pd 5.245081952627179 10.389957406200145 7.897596226094521
Pd 1.913258387642969 4.462372890981133 6.4428412605132515
Pd 4.399621158926744 10.943121923315095 5.466109571890369
Pd 3.431293994877871 8.757803572400588 6.720656617051106
Pd 3.1492295329774587 6.422422722913683 7.930849588535445
Pd 3.5904199209813816 8.63550590442613 9.347543975744593
Pd 7.305413493676343 9.117641769360095 9.220669477972526
Pd 3.7484336605843582 8.736601134235567 4.104596905039722
Pd 1.1706451995904323 4.972419796864125 3.9617139195631963
Pd 2.7135011851204602 4.036391357808356 8.980607270754323
Pd 5.495361348561541 7.615113813939523 10.822972187652008
Pd 7.724447912703231 10.355005489507803 6.860934678300557
Pd 3.164661577540411 6.510634494102542 2.9266774892037497
Pd 3.638241603638927 4.214880742444117 4.287695682010952
Pd 6.177904700093535 8.32948308525722 3.1339397038091317
Pd 5.095147218892272 5.2810444219755555 9.551239273462153
Pd 6.664320023072864 10.811995932161024 4.221318552317774
Pd 6.019055197182712 8.705757996021273 5.78059947371924
Pd 4.704495504521304 6.410271693187769 5.479354672252297
Pd 5.621058284101869 7.478681382909471 8.031307934470725
Pd 7.594690119399225 6.496800232220206 9.770644487405697
Pd 8.399631159489383 8.89561806371921 4.537990138446353
Pd 4.465251482452284 4.075443418314869 6.96236882332758
Pd 7.41346310327735 6.30979005389659 5.028787791853744
Pd 6.92527045969726 5.1775630818277145 7.373954844637631
Pd 5.647373616008236 5.747456035478829 2.9432331944760324
Pd 8.357915154657924 7.561818589341491 7.317421622635315
Pd 5.014873051920999 2.6477306401469036 9.173503294344913
Pd 7.430578197915837 3.755941818735473 9.545784843066595
Pd 6.110032684001812 3.936523586892398 4.929188045744172
Pd 8.406813742507014 6.7839585153646915 2.7063980346173917
Pd 10.20946362664131 7.166160543513044 4.908747894915146
Pd 10.167559613356818 9.30883023500336 6.484422240641748
Pd 9.433043997541187 5.075716912201986 6.43245651552461
Pd 9.635848180734797 5.155419562692509 9.019348318538308
Pd 6.6863473418931525 2.510760904077127 7.121959659948641
Pd 7.7517813456842495 4.151086228197623 2.857064130431839
Pd 9.272203947855791 2.794990063490389 7.76289427834195
Pd 10.975771517540055 6.942678848005015 7.570906387412352
Pd 8.48298044735811 2.958692359245507 5.180658347007705
Pd 10.080318687920998 4.7636253807813675 3.84935567335859
Pd 12.028190038195795 5.383347932945165 5.606792693093171
Pd 11.058706518539253 2.9282348181446762 5.737536389902753
