44
Energy = -188.59526108 eV
Pd 10.322232142960027 7.684107602907252 10.09784086982347
Pd 7.955133449674824 8.526042589663822 11.217880597995515
Pd 10.19948753692252 5.930049382791243 8.030431320829003
Pd 8.060086123954658 6.39471217637996 9.639364628954905
Pd 10.916201962302937 8.500314694009562 7.66890280297961
Pd 5.74309600567695 7.002925852380571 10.984989310037731
Pd 8.454262089154774 8.987848022654227 8.653130236249842
Pd 8.540403745923161 4.024352998059338 8.590313987830076
Pd 6.022330984759886 9.419842047941083 9.589318712710657
Pd 10.219969931560916 6.953208146387332 5.587668095173139
Pd 6.161073835776989 4.617215029291625 9.865301452872412
Pd 3.7054203096163802 8.319091628470412 9.755596026788092
Pd 7.890470012590205 6.975281094831023 6.921764782003995
Pd 11.428570040963118 9.32046389961966 5.241008667330396
Pd 5.574718376814855 6.961457893170057 8.312216022033088
Pd 8.949677986089814 9.568732743773914 6.124681182209271
Pd 8.195862662365654 2.188886440520461 6.680141057432171
Pd 6.6494317873880115 2.197362988858738 8.873343985003117
Pd 3.6996174699565705 5.595631975473401 9.802740566222207
Pd 9.118833684468836 4.557935696558932 5.922314074117375
Pd 6.337177580094164 9.253092432752421 6.971811946575734
Pd 6.474402029277494 4.623355850646353 7.02436357783297
Pd 9.624919229276731 8.380567439428798 3.525854481737963
Pd 4.344651172402478 3.451087255528308 8.254116469464213
Pd 5.601713312709032 1.8214331160371893 6.454197042413047
Pd 9.66628738022576 5.619726468231593 3.3505851345385826
Pd 7.387255933123301 6.055989338012727 4.484339566337458
Pd 7.188222885659209 8.702019604705143 4.473113405576618
Pd 6.94178806598244 3.384415163031128 4.6169324623527475
Pd 4.7913283999418 9.767610645783957 4.906136402040636
Pd 5.213990325506564 6.863235627254526 5.647265438952808
Pd 3.5814836853646983 8.526667469996958 7.053793123194777
Pd 1.6554226817314124 7.093487993681248 8.781429482741116
Pd 3.251922687754595 5.691512929246989 7.19467866528484
Pd 4.345106522510446 3.901825834987574 5.580539872439824
Pd 7.692619254340404 7.27625154326599 2.128712841958984
Pd 7.413383059370501 4.555049717878324 2.2554616031837535
Pd 5.209352104572157 7.87040652244794 3.015831525787866
Pd 5.004650429096178 5.058162146775572 3.3897678968102194
Pd 2.99222152904184 7.982759299106828 4.393384372468179
Pd 1.2940268825671106 7.252353995095047 6.202771429363072
Pd 2.556197747684865 5.45124477485861 4.597045279291461
Pd 5.540490239979414 6.103854996405652 1.0312809187852
Pd 3.088230630406434 6.482201285703118 2.1628041542709036
