41
Energy = -176.31448153 eV
Pd 8.91099618585004 3.5455581214126206 7.622887944410414
Pd 9.8679918381392 3.2737928895205255 5.060475324744723
Pd 7.8020271197972 1.8170436213605972 5.6629615099681
Pd 10.530997157921426 5.448168696305007 6.360935595337451
Pd 9.084516111654132 6.13806417403159 8.394793553549418
Pd 7.009302281434984 4.716792910293061 9.28681109413193
Pd 6.338928004688903 2.7923893049799187 7.607271883079767
Pd 10.70053883414959 7.960640969411626 7.263600922731145
Pd 7.488110429721145 7.321867956993637 10.139472550425776
Pd 7.664869050947935 3.6106708210525444 3.445344051686162
Pd 7.405868772109198 4.660617228989566 5.817431213450529
Pd 9.719634319199097 5.49716220595084 3.6949963267802266
Pd 5.5221616589468905 2.8220569919582874 4.84814716997068
Pd 8.344678827647407 8.762796763413773 7.990649416445656
Pd 11.200786322520795 7.489793220837755 4.743065795580777
Pd 3.9373233225303492 2.1485112110789055 6.811012102511641
Pd 4.337741511041076 3.891543907886707 9.026179579032071
Pd 8.456877941624976 7.003319470618487 5.555833254865975
Pd 5.037747713138256 6.458244060214301 9.649616156897853
Pd 6.611642809023791 6.634207408289277 7.503758838957711
Pd 4.70858865249061 4.869104287961178 6.6296295460498404
Pd 2.6426499965955266 6.051762681249683 8.723123664458479
Pd 9.21060851950031 9.414255146808982 5.376199063789078
Pd 9.393561168065201 8.026843433739646 2.937189529349714
Pd 3.3551367739213576 8.529692430607156 9.436218330903433
Pd 5.187626474769321 4.805750704451489 3.138446170378045
Pd 7.402168297796029 6.235090148773218 2.7893268947050114
Pd 2.085610527170674 3.854338679253029 7.398419807014809
Pd 5.8151998256323125 8.97168227093896 8.748426023356178
Pd 5.838459391008887 6.6763549011177 4.9227258074669855
Pd 3.077323032820467 3.9308171765856503 4.799803575242029
Pd 6.455101905012031 9.124649074126602 6.2001906786307694
Pd 4.1044987821926044 7.38822694276598 6.859029555890134
Pd 7.044374117069616 8.833324380509147 3.6545153776198935
Pd 1.491673463440012 8.237074124942458 7.626670042323312
Pd 5.116994718299576 7.470959586362224 2.2643748765962686
Pd 3.348348717936271 6.511992992440191 3.958470719979712
Pd 3.7946192206816827 9.89963770352357 6.9971491923200055
Pd 1.871587099042398 6.085863791858603 6.052771423144581
Pd 4.522444597856063 9.034349840432586 4.41725576313146
Pd 2.0818780328528383 8.563888523369705 5.097442937844813
