45
Energy = -194.49257534 eV
Pd 5.451859179730195 11.037430655161169 4.0714704176298335
Pd 7.595769018022783 10.632058212754643 5.612774781847677
Pd 7.196004814278724 8.886044496726788 3.6073670746278435
Pd 5.109203685812862 11.25843201316719 6.72846426253119
Pd 9.685050283745822 10.233119287617852 7.169667979513405
Pd 7.011552654982869 10.513845613200166 8.467292145839343
Pd 4.587212783659373 8.730187551915435 3.078467327352378
Pd 3.2346853293310236 9.912621382738719 5.323184079841272
Pd 9.339388988288025 8.415855930925543 5.080137894005899
Pd 5.531493276613017 8.78545663516295 5.7212252997019615
Pd 7.652142864464039 8.402691938618158 7.140019215987792
Pd 9.0272286506429 9.027772837158881 9.502087709947595
Pd 6.359036468869339 7.294270959708503 1.6993611858632423
Pd 4.647838208488457 9.090122409455004 8.211220308266705
Pd 8.652505062095715 6.474128366644256 3.0912559186538835
Pd 10.272038516637041 7.6573281024640325 7.5366204074914265
Pd 2.193601132361611 7.983144434408703 3.855151636535208
Pd 6.599404588075063 7.8967982481049495 9.557774566598981
Pd 9.770996776749326 5.719194786623345 5.511854566969519
Pd 3.7857416626834817 6.273552407651169 2.2049114797013316
Pd 7.184126152880922 6.566798567441859 5.165405739768612
Pd 4.494352194893937 6.584075183583216 4.713031955970656
Pd 6.1270066014628615 5.081487716267277 2.923783329894456
Pd 10.644118013898789 5.119273619266438 8.176298631365945
Pd 8.167525559715836 5.914894887261661 7.685658229465046
Pd 5.764891550629788 4.402550948403139 5.56212006230853
Pd 1.8481597204963456 5.687644871160456 5.016102037074233
Pd 5.6074459695408825 6.47889882999209 7.309513159603004
Pd 3.034771531113789 7.577665298824539 6.719083696333511
Pd 8.919832432387539 6.441305594286403 10.073864947296151
Pd 4.073937607855516 6.65183364728733 9.326272463312206
Pd 8.109177556527905 3.9524990953030446 4.325369821994831
Pd 6.423401719499227 5.338030471019887 10.040249584983144
Pd 5.792913106849389 2.5368809161704506 3.5984903059715623
Pd 8.757878115491838 3.818286290220453 9.595445775958636
Pd 3.3882241930063333 4.892191361443808 6.916937752209531
Pd 3.635439981847451 4.120524981340896 3.869521350192176
Pd 9.083030283639275 3.4023032733014222 6.79977900255365
Pd 6.648763723869275 3.801790101371857 7.849820343724195
Pd 4.109440829644058 2.4945048407758432 5.944683286842834
Pd 4.372775598514146 3.910591691224908 9.065933390569514
Pd 6.965577615134235 1.9449886328339836 5.917984659977868
Pd 6.428382968428952 2.6438859584991374 10.3300508390838
Pd 8.014603824208821 1.491398287209391 8.403089299659486
Pd 5.297967372501367 1.5323677779325373 8.110644457564126
