49
Energy = -212.0450971 eV
Pd 1.3010289001047997 4.323326939970919 5.865563467665279
Pd 3.58107222989693 2.962191665750476 4.853266286668086
Pd 2.1456430454444306 4.909558482130299 3.4401303498596394
Pd 3.1640288542846164 3.53780972874238 7.550192554555629
Pd 4.938690126792562 3.058350290235584 9.466258196760567
Pd 1.7230098720710694 6.910076725236381 5.221726466305066
Pd 2.229390246431085 6.057135264346923 7.66458042954578
Pd 5.499038359794798 2.6846358622909787 6.697076748085803
Pd 2.984520886293175 4.843888541073732 9.857502340416751
Pd 7.411407613903393 2.923043658784375 8.556635318271482
Pd 6.216235945490649 2.738574978789283 4.083845012582195
Pd 3.978788363090501 5.402884674954214 5.671301829580742
Pd 8.08225038287892 2.657106344051251 6.038820183925908
Pd 4.774211759243276 4.803097328478751 3.1579962814926894
Pd 5.282317139282135 5.815720296739761 10.575173005888912
Pd 3.486727436694478 7.176638776386043 3.2517665391109474
Pd 7.067956803775931 3.972730662688249 10.96263271691293
Pd 5.699349652063326 5.151493678549465 8.057964346881757
Pd 4.707713703887039 7.422131623877259 7.212227355152303
Pd 9.804242015137008 3.6946930766663555 7.762758641870461
Pd 2.384374391766206 8.698578069470425 7.1413162175965645
Pd 3.423120843088522 7.490487606962307 9.542821832452196
Pd 7.37342868258141 4.9689226502689605 2.91666572529714
Pd 4.597074128547028 9.787116564021376 5.945678239668923
Pd 6.1449708185626974 7.980927260917565 9.408940186650106
Pd 5.648248753770233 7.342488145952443 4.819845420919089
Pd 4.900814565609039 9.479533167451757 3.235396507495539
Pd 7.710507194228664 6.810450572963005 11.188923809948584
Pd 5.914000396283736 7.0760005164879765 2.2398290369018494
Pd 8.992077296436154 3.0929170511582 3.6138300154605876
Pd 6.815495282116532 9.72837012044099 7.502137625285772
Pd 8.243564945485039 5.396679436096309 9.09738833545053
Pd 6.669359263257708 4.9510131691429775 5.517352865477119
Pd 2.4661569191081583 9.33684526289257 4.47136215797853
Pd 4.373386576543455 9.857472619912693 8.602740632174356
Pd 7.437636000986657 7.021062307877882 6.996410348843934
Pd 7.04277934599966 9.617627836293002 4.887077504511366
Pd 8.667635683274677 8.444273580698379 8.957484712408139
Pd 8.24352694118231 7.209607135214044 4.2931976216248735
Pd 9.384249922907163 4.95994957037033 5.443515411683191
Pd 10.284677221901969 6.791870751838542 10.096644831258393
Pd 7.568858977198582 9.15890392501583 2.4160262171344735
Pd 8.416872719407491 6.859310655997564 1.3589051093483913
Pd 9.111161800437456 9.023840030483548 6.292528238275378
Pd 10.136969466484825 6.273269592711596 7.527584059469864
Pd 10.093237150676813 5.596383725217558 2.9832339291517047
Pd 11.121081732041574 8.584585813517204 7.867192267091289
Pd 10.16428743853821 8.291881725468578 2.7329586984257266
Pd 10.791553184168773 7.323273514564549 5.154325349634003
