46
Energy = -198.68925844 eV
Pd 3.2774813833363265 3.887400234883205 0.5723063420021175
Pd 5.371788678114887 5.397666626891969 1.3991939895309513
Pd 5.628045318432384 2.6232864041105834 1.0158833996877008
Pd 2.937747268365769 6.632714049315407 1.4138311350456285
Pd 7.734292438021624 4.247609092122547 1.579368826111427
Pd 0.9954845914667899 2.3786530272831916 1.4199219861740442
Pd 0.8011899839368573 5.084425397019603 0.8833333298863207
Pd 3.3115401901139503 1.539036308643037 2.3091508156867517
Pd 4.808855478646153 3.467426930637843 3.2986269639834878
Pd 3.8947964336461993 6.003426663987295 3.7602663112326775
Pd 7.6667138501023535 6.813010529649818 2.3093984560807908
Pd 6.439314921567867 5.423757272750685 4.102253350985486
Pd 2.2666141572063867 4.13711760124592 2.914655476142671
Pd 7.391238835407098 2.7211280080577067 3.668639272780445
Pd 2.9253142245993358 8.404936287499316 3.873659108874816
Pd 5.706441130557694 0.7846343951721436 3.147827039505577
Pd 0.9344909115065433 6.360925696516034 3.3651547531522557
Pd 1.3581528475502236 2.0714528443032103 4.284954868012883
Pd 8.185862528372864 7.338843684249445 5.19089533175108
Pd 7.358427457951966 9.16385179947541 3.3758941025329077
Pd 5.165412051703192 7.94271071209213 2.241198040520917
Pd 10.031592668261636 3.963517541631359 3.088661790053435
Pd 8.983396869782146 4.925041693945909 3.869185248694389
Pd 5.561947696475051 8.004457145238938 4.845475133036813
Pd 3.8931992640724125 1.373613577772321 5.011841069525185
Pd 7.310344567654054 5.232945125526884 6.588871595662294
Pd 0.5705874411355366 4.409277993976881 5.516093303521194
Pd 6.769217534426545 1.0313745053538503 5.697657373647607
Pd 8.672577729573327 3.0749760769318426 5.973834589384698
Pd 10.031592668261638 5.424552196687819 6.229186688377873
Pd 2.086321507711154 6.651958859702958 5.728867090248678
Pd 5.657924344123357 3.366050755339285 5.8084842461140695
Pd 2.1624496661877526 2.291788717999212 7.049657781918597
Pd 8.728233778793477 6.938478171597825 8.046339769088782
Pd 4.692061865432256 5.889545302289341 6.327446271288561
Pd 3.133245170119244 3.994525067497643 5.410072746137334
Pd 3.762537069309355 8.44125993604426 6.721441129025838
Pd 1.742988178281961 7.497406112088717 8.195247432791346
Pd 9.04228145491401 4.237258331401802 8.463956425221888
Pd 6.901315444093354 2.70265785044357 8.05827868119917
Pd 4.683584342031583 1.3055016410558373 7.518550236432247
Pd 1.9881580192540922 4.921914001938954 7.767682747964731
Pd 4.135884887226495 6.484602766117799 8.791675048363029
Pd 6.546446346187715 5.346421329490914 9.040533873418877
Pd 6.308710244995385 7.701971151475976 7.41971658521101
Pd 4.397259230654197 3.854076373004256 8.194016034450733
