40
Energy = -170.37894874 eV
Pd 12.061296085925417 6.976978053953456 5.721432105820562
Pd 10.41851868968501 6.88844831560122 7.792950777460983
Pd 10.50058870565668 4.861572281052263 6.062971970905676
Pd 10.198807060991523 8.878021573064412 6.043172094751479
Pd 9.747184674664426 9.312797175776062 8.725395796643706
Pd 9.868830957685516 6.873661568421293 4.238075517869725
Pd 8.673705503697448 4.862233983895617 8.041543860944975
Pd 8.811633729375515 2.7691956699290494 6.420340368552988
Pd 8.189153824251289 6.97823284436819 6.293048071821003
Pd 8.171752314842557 7.2337641067645695 9.148591947543316
Pd 8.21560867308981 4.741450644115416 4.70943124300951
Pd 6.70630295038029 2.992301754253361 8.208799716177186
Pd 8.028622690465607 8.903853617820939 4.3551234826989145
Pd 7.153677353704652 9.64996319172489 9.628303155385067
Pd 7.587859120116216 6.6792796697440755 2.925662411825497
Pd 7.815500784435559 9.59256598870707 6.988976713913884
Pd 6.961246227204367 0.8238376791238909 6.82944260175184
Pd 6.43385857716058 5.281132585805815 9.334718879030627
Pd 6.227836901977296 5.077348244731371 6.6049609294080405
Pd 6.397684426177799 2.791494205062276 5.217748989535516
Pd 4.287690436639668 5.269542956513086 10.767632742126004
Pd 4.535350973314584 1.9810582492398527 7.0280262693351725
Pd 5.80774311398806 7.045007681186914 4.903893286651419
Pd 5.914439921525029 7.804307210011834 7.738986682254997
Pd 5.860151999090614 7.486467893847379 10.623868968433802
Pd 5.719559154671722 8.776877990862408 2.92121978994941
Pd 5.822459849659924 4.7045635795182665 3.5650743825012388
Pd 5.694062669079972 9.666662781120165 5.4363168978246845
Pd 5.250130157180442 6.4644260900381845 1.6352671334618154
Pd 5.604763497806495 10.863348985788145 7.769731236743491
Pd 2.221559759076831 3.157934807776764 7.096008871787497
Pd 4.157973532033152 4.459996134335824 8.181907541531029
Pd 3.5969510646868286 6.491211428170365 6.314798438897538
Pd 4.441467955472095 9.479291546996537 9.679992499472487
Pd 3.9528682525500454 4.039609738920092 5.346972026752444
Pd 3.6878412698023335 7.005822723042367 8.92576911244451
Pd 3.407400096123784 8.598078838903136 4.595444742151709
Pd 3.5281876287094427 6.053807420689776 3.6713951605438364
Pd 3.6098433599451965 9.06701339753883 7.162735428577376
Pd 3.282758017255222 8.153541993098512 2.019825112102009
