46
Energy = -198.22078229 eV
Pd 2.413245958752783 4.595942146474844 8.42351646547856
Pd 4.620849135134347 4.569291399549217 9.948460684831348
Pd 3.874922449216795 6.76433230836536 8.67484528896801
Pd 2.338002504096109 6.469398990500288 6.445989944719107
Pd 2.1163056281677384 4.123740292407492 4.95898796068852
Pd 1.9058831556896891 2.434808337556817 7.078652075232955
Pd 4.358113028517504 2.5235851265710205 8.259202232252381
Pd 3.1013554774884593 8.88894372375441 7.275801599326683
Pd 1.2509667424652058 6.492061071694621 4.042686725859015
Pd 6.194937391903505 6.8500039157119 10.121044307678185
Pd 6.854113756294044 4.563130166365108 11.327597231610364
Pd 5.425509126851257 8.942031821912822 8.477975115812598
Pd 4.202104026587252 4.594563839945206 6.463126193457995
Pd 3.0961361416585564 8.321186192890739 4.678226288878703
Pd 5.290875186455082 7.0727310615507735 6.37370770032124
Pd 6.270415052193288 5.113924590103378 7.95047202298944
Pd 3.949971946909399 2.0815524042457842 5.548728830168747
Pd 6.371376434803396 2.804586912088722 6.537288080585901
Pd 4.257831199758787 3.391195879475041 3.220241998781277
Pd 6.929461313175611 2.9456371885951684 9.20506585874555
Pd 7.622347012622287 9.167851453768083 9.93445445200167
Pd 5.178963189149941 9.785519742212685 5.774213673160917
Pd 3.778676516213937 5.886468592967336 3.7650753660624834
Pd 6.034032111819239 4.77302556760938 4.557995072420534
Pd 5.575848913116235 7.77881837565401 3.8616267386895626
Pd 8.528958445154043 5.343645722427909 9.470937515181534
Pd 6.10590161863508 1.6204626095581418 4.107608060628841
Pd 4.360434206506993 10.140848421647336 3.206042468710202
Pd 7.667815424145958 7.449587568437024 7.946667332469528
Pd 9.841422436193108 7.734676509864087 9.467076085643347
Pd 8.785574602657249 3.648798176494252 7.312807053024318
Pd 7.91181330308666 5.789418359228833 5.921941471683904
Pd 6.292745024004686 6.042509440140135 2.079276755361208
Pd 7.518126426494875 10.212455608408327 7.399817347973698
Pd 7.5683346626257215 8.421833362308622 5.492940931529396
Pd 8.254234703170173 3.0745599985021705 4.692234229325066
Pd 10.10822564453899 6.09968257303952 7.414270415246899
Pd 6.870824558686597 3.4384624226842226 2.314769171576637
Pd 5.986997543599021 8.737666828295897 1.496550432191924
Pd 8.57853880319714 5.323560669663952 3.325444510505001
Pd 9.820459194713182 8.799532926073054 6.970943951721462
Pd 6.955918977477247 10.257270943186608 3.652750364946212
Pd 10.388563876803218 4.55036390982371 5.247633641070822
Pd 9.989396231485479 7.1387816546751575 4.771546704893962
Pd 9.552545238134517 9.728022453263712 4.3838731734454015
Pd 8.146789760818306 7.900287352400495 2.9006509004592336
