47
Energy = -202.53098101 eV
Pd 5.880338754398143 7.266241902426884 1.958244854350167
Pd 8.583218842902161 7.403311079419804 2.0830679539196635
Pd 7.528404920308654 5.128641996479767 1.2804580906125473
Pd 8.904469091137711 10.055433180716252 5.1177279173014245
Pd 5.1332938273162165 4.7421235936566 2.3743364501462176
Pd 3.2668294943217218 6.739215016859927 2.3202689035470727
Pd 9.482561466687631 5.136406636724318 3.2870812090821873
Pd 4.365054261355531 8.972284378301216 3.556514235161397
Pd 7.047784622689424 8.864885135125597 3.6853581598666154
Pd 6.144518166714945 10.389841039657536 5.6339263859626785
Pd 9.145995668092965 7.46718077479157 4.671366588075803
Pd 4.624111987922919 6.568232831881397 4.640343429418862
Pd 7.051077895455629 5.916628308846614 4.0723596250229255
Pd 8.100238300775498 9.393042915936162 7.505679994123325
Pd 5.395103722023585 3.69142815766313 4.747110880907623
Pd 10.430601987522925 8.276207929282398 6.7591417573244765
Pd 7.497586652084334 3.2978599474088335 3.165426498563149
Pd 2.929805837098892 4.5659945249948 3.964417254987201
Pd 3.905868321133808 8.863009586967216 6.216267292831311
Pd 2.155281614461155 7.578909093158305 4.654804302284126
Pd 6.4980997478256555 7.8222955046073075 6.085029282202087
Pd 7.937442994113419 4.082758079993594 5.890270695812384
Pd 10.53637845875289 5.384255091733913 5.734609765945166
Pd 9.87745272369149 2.899080673052548 4.707280975358654
Pd 4.835331838756495 1.1641653781061678 5.076003375578175
Pd 11.086380207515626 6.157843432575766 8.288388089026208
Pd 5.596606041669025 9.616693582857398 8.152061206132576
Pd 9.488924493234641 8.109414577084342 9.286642163032838
Pd 8.50429400760393 6.355269490074615 7.180034869847922
Pd 3.0513676663891007 9.703707495502782 8.621482265903829
Pd 3.3913320917905314 3.1185006385313203 6.365947939929582
Pd 1.6585047281330854 7.74245981527093 7.353907686233163
Pd 2.847964532710425 5.615265396561064 6.390247596613591
Pd 7.453517424774825 1.572526683343146 5.12395128344636
Pd 5.785625589336752 5.421860081795881 6.774978957347879
Pd 6.845906387663933 7.389902925379795 8.919296962714807
Pd 5.8785432888683795 2.4679476389165136 7.121585423491418
Pd 9.805051413624819 3.8294218540953464 7.785035470122095
Pd 4.208578756324667 7.038000484054438 8.231691439726797
Pd 8.932554259890535 5.579878961674953 9.825992922008997
Pd 2.0691061305740575 7.740132892014569 10.048261119893562
Pd 7.262139330470936 4.06826402930726 8.543136025705195
Pd 4.77484957573844 8.367834379157234 10.431565902777145
Pd 2.0134329819705297 5.347829837201415 8.823399189784592
Pd 4.496461514314729 4.233842766729236 8.725453253839147
Pd 6.324078159722068 5.488249701780234 10.528777063510868
Pd 3.783804349660387 5.8574363924186175 10.758736546467466
