43
Energy = -184.71124285 eV
Pd 7.017341212705724 4.267504413769222 11.361523129301858
Pd 8.993381397213243 4.597833521030302 9.512792050156973
Pd 9.095772546016422 2.18152004126389 8.118340115480782
Pd 6.969583122439063 6.44150764710883 9.946569035369365
Pd 4.723667830474922 4.50964014540205 9.958626644173068
Pd 9.869685136634649 4.37403858217266 6.947545737190935
Pd 6.739308553205021 1.2940603689380616 7.156225138198241
Pd 6.853543342369115 3.2463494335520977 8.976579203026663
Pd 8.420233203155727 6.454084778087172 7.685730826774308
Pd 4.425149085202251 7.155757750253166 9.431995069146359
Pd 8.677010171033045 2.1206889457288876 5.423604691743202
Pd 3.069874715123123 5.2293182101729245 7.966359536210467
Pd 7.23860026398161 3.993438121769133 6.436749394341975
Pd 4.616263192441859 2.944547723867639 7.5848482362869705
Pd 10.129248331840023 6.740141273061923 5.695335716740005
Pd 5.735504872768224 5.580840140063451 7.726536613760513
Pd 8.988963732291186 4.687651539424734 4.4490847413320544
Pd 5.711057882911642 2.3273775953431173 4.969087725052085
Pd 6.654945365563466 8.326522150840928 8.146234511956559
Pd 4.220132953788865 4.527079362240024 5.567676722849882
Pd 6.854988853412555 6.571432122657355 5.516686701745898
Pd 8.24381880307464 8.73218013182901 5.982152929054306
Pd 4.4918368663407975 9.689909369921404 8.741637040459846
Pd 2.3828168063171016 8.000503212966647 7.86535571178435
Pd 4.571025487537786 7.686333058087537 6.491009926244824
Pd 7.680903939839039 2.689185978069494 3.0217683057940787
Pd 8.507730932369443 5.126219840477545 1.9201537225460852
Pd 6.354523997593429 4.751627123496083 3.768057473731195
Pd 2.2567482101823355 4.854908718055512 3.6436885717667926
Pd 8.597088550952261 7.30038173706092 3.6166250907181823
Pd 4.509528644697704 6.652879785553585 4.031548732173892
Pd 4.296763585242616 3.3620247242438417 2.9987539325129653
Pd 1.3733285973025426 8.801721036267063 5.367203114368857
Pd 2.3138164856525325 6.40342620170971 5.7411529517496955
Pd 5.832586950549062 10.013475024649074 6.260732914332926
Pd 6.1076426616263655 4.156193459904592 1.1666892908923565
Pd 3.130205028037887 10.371677776296378 6.648455851223209
Pd 6.364725045434008 8.755390984986844 3.9290489221436355
Pd 6.471840026942958 6.772609545649438 2.038522230445667
Pd 2.149746416718674 7.471001363889554 3.1301628132504056
Pd 3.9030525031445737 5.735160966428122 1.6632990319222967
Pd 3.812203769161135 9.294920056441743 4.414844242901643
Pd 4.438404843233332 8.464617653814724 1.9621650596863676
