48
Energy = -207.49176232 eV
Pd 10.435260295306652 3.333145329277305 9.030769745759612
Pd 9.58221890742704 5.026419872622992 10.879521888184534
Pd 10.335364963137804 6.05873225896836 8.404422158636972
Pd 9.861374719214837 4.174592593070271 6.5613492998107
Pd 7.989169457057122 2.834735619446337 10.377025022943178
Pd 8.357478811167223 2.2288167751825925 7.742732882440682
Pd 10.229125633966298 6.762641645567895 5.765125223729443
Pd 8.077080260266252 4.760838160125063 8.560887721592811
Pd 7.9903364739961615 6.980404589237778 10.091495236082688
Pd 6.9693394626603205 5.136223365917768 11.610063700055715
Pd 8.668477504399224 8.032815107652622 7.809609217473822
Pd 6.066236375166497 1.6126877547470038 8.823862480553746
Pd 7.660347925839198 6.493384102540568 5.866879348381479
Pd 8.862882139542133 2.1283342922326343 5.165555601015617
Pd 8.841792469729816 4.60790001184038 4.186385815129803
Pd 5.664060594522676 4.137443382410876 9.614038866022431
Pd 8.571895941264952 9.058238316283385 5.34709444831313
Pd 6.302334012509177 1.4908261205996645 6.049780565287116
Pd 8.798333820032244 7.09788629491048 3.4348897723184226
Pd 6.925264985345036 4.036581065250981 6.171213629606868
Pd 6.32853274295167 8.849217324368956 9.244489964668336
Pd 6.212777241754696 6.384786395534117 8.10854262495714
Pd 5.998191285191804 8.405424109255252 6.383967603128431
Pd 7.622558960091407 10.437616047240587 7.479606650238163
Pd 6.632237325385926 8.621557517017568 3.608989132842431
Pd 6.883637495583741 2.821311666565499 3.582578844240186
Pd 4.651040352830346 3.2519235342663406 7.377882156533284
Pd 5.0032485937962 6.71621327189047 10.38996821174741
Pd 6.263837006149818 5.526344828942523 3.8646085796178324
Pd 6.174397195428719 10.72312937698929 5.224829220549199
Pd 4.743504374691596 5.917386596411459 6.026810097514879
Pd 3.5288995190948813 5.438642660214713 8.483783102499952
Pd 3.5351952840126755 9.480925189747895 5.940017308529595
Pd 4.588499354073204 3.2502294739369186 4.754419409745274
Pd 4.984464247871849 10.612321791963875 7.745732983588422
Pd 6.731723646199565 6.746520539418382 1.6720690253369306
Pd 3.947086848903399 8.021660777784252 8.11067618685357
Pd 4.983767310343883 4.106604482419383 2.1437286055635036
Pd 2.5295075557327684 4.328443844044281 6.244276846226051
Pd 4.2402210498211055 10.345872781002365 3.4915955821605342
Pd 4.181228454112934 7.744883718945687 3.9566043351305047
Pd 5.279323678836362 8.954601739892144 1.4081849725683795
Pd 1.6958982556163125 9.318959313588486 4.168881417137961
Pd 3.226658878032797 5.23189530121631 3.846379022050843
Pd 2.295031601420749 7.052942544584147 5.780894333396084
Pd 4.002039261597893 6.558661882629135 1.619558298880335
Pd 2.695073845340393 9.003916701695537 1.7145517562325105
Pd 1.566603427772487 6.982957530990496 2.981461134362556
