43
Energy = -183.77659813 eV
Pd 7.879508001382942 2.704113946943275 3.1532078151051697
Pd 5.853334021133717 1.6389084243700731 4.4788253463828696
Pd 9.765303257249002 4.1521748035212305 4.390024165384024
Pd 5.997524540305067 4.351824295965829 4.092260120192311
Pd 3.856770031588014 0.854573543940328 6.098637592688888
Pd 7.800058355624788 3.011802607474136 5.823802192000433
Pd 3.5863564113785515 3.09473647846261 4.751419231712343
Pd 5.408600676154842 2.826232571101413 6.842635365151796
Pd 9.360443525660617 4.767379743836954 7.046397778516154
Pd 11.00020661088213 6.1627125278759785 5.497040493001047
Pd 8.050199186327422 5.288047121037465 2.52310859053885
Pd 7.331563944558435 3.647845204857753 8.564151201895703
Pd 5.697166796569562 6.430557295739323 2.257585479777107
Pd 3.6231246265557733 5.389975107574003 3.582650836386833
Pd 6.449679609531138 5.2424145993188835 6.688722815607625
Pd 5.604889262687839 7.007246055517937 4.822455932983275
Pd 2.820130404240198 2.97646535102534 7.370988769994421
Pd 10.676903441139778 6.958466243203606 8.146206825749589
Pd 8.232460765849012 6.2410126747892845 4.942354246417588
Pd 9.062156285547683 5.452006841951721 9.608284164261661
Pd 7.69956195932276 8.008848761213573 3.0173789302964935
Pd 4.68653947477768 4.5116090958998685 8.730762884937464
Pd 8.116340173666222 7.141427717083104 7.428786386701374
Pd 3.7209270086513304 5.3622024891567195 6.3047495059987355
Pd 11.914156538681965 8.458824330489897 6.327351504011188
Pd 5.565207025131341 9.555089718003584 3.858567773822328
Pd 9.863052210823586 8.398403153522931 4.634813331633012
Pd 2.1247672640569526 5.076518108952729 8.79982593554165
Pd 6.542013603217674 6.241343406664088 9.50968091011267
Pd 3.6030284569300823 7.951989472151285 3.032718357466009
Pd 1.9118880382035706 6.858589225283238 4.947294155204971
Pd 8.553390045542109 8.13877308998461 9.843912534727243
Pd 5.32061390928589 7.537645656548942 7.432907845062653
Pd 9.626951899591692 9.305782613142656 7.287300177769682
Pd 7.472805649577379 8.97703595014188 5.558161619547165
Pd 3.6187318599659317 8.726155663618327 5.623440782126063
Pd 3.89663637022349 6.911291294405015 9.701703385926042
Pd 2.3848623490036083 7.322722627337303 7.520357731831279
Pd 5.786702837497514 8.743650315603979 10.149442668315183
Pd 7.159543836526112 9.572142577373553 8.113489070244325
Pd 5.379282735722375 10.508615567412411 6.381626834990408
Pd 3.744127275916354 9.408465124063506 8.337702239476126
Pd 5.409536788024199 11.26927726527404 8.982044860206955
