49
Energy = -213.2065254 eV
Pd 5.813937448198751 2.610607706207837 2.3509150625159863
Pd 5.170960016644329 5.27683320600324 2.260387353014912
Pd 5.024494161597509 1.468169664370166 4.64135760286326
Pd 3.6515236640776436 3.4800721329371833 3.675192369724475
Pd 3.188729136615684 6.102640892106055 3.970963437591666
Pd 7.887096765887144 4.312137172134568 2.56752648194883
Pd 1.66011757972706 4.1515879042858295 5.30226085667166
Pd 7.330145849470953 6.831061761617279 1.8187272464377406
Pd 7.615373503308392 2.150905840336967 4.37622748196273
Pd 6.139829636146936 4.414041385073636 4.486531559230765
Pd 5.082807186459917 7.767886318818166 3.1687180193160596
Pd 3.370886505469004 2.2789063862781838 6.582461861503145
Pd 6.0876432307563775 2.668522807108012 6.69998450705753
Pd 4.21203292796243 4.662630589406013 6.070875505745897
Pd 3.104315302534444 8.660934213693704 4.977595339557559
Pd 2.1637038030007023 6.561518278015741 6.396907858716157
Pd 5.063122475750047 10.253352475745466 4.076463303716553
Pd 8.80265645308118 4.489973535327717 5.159760991718705
Pd 2.17581867522935 4.284192655824144 7.984048928558558
Pd 9.619737780394784 6.216594662249069 3.184892549002178
Pd 7.3251144964264645 9.221434413405946 2.9449384207282256
Pd 6.72070080298223 5.384912249919522 7.043185577163415
Pd 8.663015691973763 2.4714898071175138 6.850688510616762
Pd 7.346644373865335 6.760370764894904 4.46033967847317
Pd 5.110968813336282 7.249085261207802 5.8260570963762905
Pd 4.678263411040874 3.513463524934776 8.748793003282856
Pd 11.795900765314155 7.63005873261755 3.788999591915724
Pd 10.696798877506037 6.233580449226219 5.722275480418193
Pd 9.44351581168835 8.619658557090375 4.461908932886574
Pd 4.255616035849474 6.144387925481649 8.163061200539708
Pd 1.6682275750968207 6.71601779215915 9.064697234213565
Pd 3.1461843110321595 8.54036199980347 7.817409832322845
Pd 4.784327109681768 10.146845927891436 6.690675389009036
Pd 3.1530130602406405 4.966980326835474 10.449310887894098
Pd 7.068400219248068 9.326821167372778 5.587309025498709
Pd 5.810732763848535 5.504189290422669 10.155103150699802
Pd 7.386843797212946 3.6691042524463096 8.916282731320136
Pd 8.520680427601652 7.3556324041418915 6.776229151466754
Pd 9.600548786372983 4.799403162543345 7.698662043093244
Pd 8.19343836782874 6.28024199209383 9.373401457415564
Pd 6.2416250658741355 7.9636677768602935 8.117694300366274
Pd 11.602760711791694 8.631648117171782 6.243180607203923
Pd 3.954218264144153 7.56178925448781 10.350111568541799
Pd 6.59947931152386 8.062760791598 10.700839859053163
Pd 9.409899346810947 9.850696464234924 6.91112762769829
Pd 10.610273670880245 7.208511208595271 8.353689790136588
Pd 4.887031499395173 9.879123827193018 9.38401775693763
Pd 7.105330116116889 10.476482786774909 8.01728414629173
Pd 8.746292696056306 8.876045348753534 9.314129601753512
