40
Energy = -170.35463898 eV
Pd 4.118921281896073 4.469296986162604 9.288345213332727
Pd 5.717830508726559 6.59988721421909 9.94737545335618
Pd 6.880119329457954 4.115723394725329 9.396119182027247
Pd 3.6291887182868448 2.625038201589951 7.324972855237257
Pd 3.796406747926545 7.0136359560380495 8.218548864460953
Pd 8.14159287519903 5.975560663103598 10.956665922004682
Pd 6.317524678380606 2.749109090805392 7.196737638345014
Pd 3.870809090977295 2.1498187165288045 3.201956356270885
Pd 2.6001411247256114 4.981799422143722 6.9866496436405825
Pd 5.439098366731882 5.207482908161303 7.190091639827022
Pd 2.143522340079016 3.388308723089127 4.973128965733033
Pd 5.821487616873772 8.798739997228381 8.244575499846993
Pd 8.561604487410248 4.064869926167244 6.976918347118617
Pd 1.7106838593574933 7.440206955647788 6.629298155177106
Pd 7.729959875573782 8.446237457828149 10.04582787160342
Pd 9.582745537123985 4.517241352988308 9.345270227773762
Pd 9.963645311839498 7.220654683674516 9.0276308221001
Pd 4.789311736785225 3.5968651550540365 5.1786439548978755
Pd 7.654227780909719 6.352518410459134 8.162598874801667
Pd 6.05728402821522 3.737314127025138 2.782610721755538
Pd 3.9074715364025328 6.470687937175324 5.184220402193154
Pd 7.103996989413784 4.855632759116752 4.972604596057506
Pd 3.9845314715266853 9.010328131909217 6.377263153266046
Pd 1.5078599263073966 5.976869070978452 4.294759443062167
Pd 3.5208639596934 4.694542741132148 3.0032504713410306
Pd 10.75894281732109 5.521552112060335 7.108590141496814
Pd 2.2455408139510236 8.644514166150291 4.343816424015292
Pd 6.202983973564307 7.4074911318704935 6.022195711103318
Pd 8.423823369461322 8.923927729260962 7.486917325688367
Pd 9.906062362401306 4.741807632032825 4.680876916756983
Pd 8.740498979101718 6.787385612993695 5.829227373521422
Pd 6.560488181569352 9.945432205213393 5.75473134290362
Pd 10.869312080705821 8.124220224787729 6.5313453575109355
Pd 3.2949574407352076 7.2114998706549365 2.4205548735070255
Pd 4.94903125936425 8.780132931388067 3.853895572627359
Pd 8.272007913362481 5.626227974707734 2.7191472952391864
Pd 5.699052329325016 6.302748974729234 3.194528117444947
Pd 10.201544986640002 7.338218020389557 3.7864304047584665
Pd 9.196775538607502 9.631064794114813 5.046533467403491
Pd 7.561687338259508 8.073199693782334 3.736212750026464
