47
Energy = -203.62777954 eV
Pd 10.7847570496568 6.857245407382367 5.5616581804516
Pd 10.27780373568532 5.970219959546025 8.029503999427359
Pd 10.833286495649087 4.99071862164908 3.5250285181088845
Pd 9.612396355748169 4.4146774227351315 5.891666546193983
Pd 8.535847811519654 3.864184960036829 8.20242076227632
Pd 10.389247314140015 9.43668462757125 4.951337169062259
Pd 10.556208092389678 7.6269929532277905 2.899882468966446
Pd 8.10578098547653 7.58967893379631 9.16046222331696
Pd 9.050150118457351 5.451707957840079 10.301468698864447
Pd 9.833427916758149 8.663089007635238 7.458182622864939
Pd 8.209366457980481 6.762818342623283 6.579957685881887
Pd 7.564999544400375 2.520348059950779 6.0325959854293805
Pd 8.573339760038191 6.328913622415877 4.043999363747822
Pd 6.475108478446071 5.4338999694025345 8.158351428119508
Pd 8.965620774404835 5.696275107660424 1.5962942466157481
Pd 8.527313291561567 3.606464489968266 3.5636182851942526
Pd 7.206381183489523 3.5588756275907723 10.558776815586624
Pd 6.56153537739532 6.212408475527375 10.788302327159123
Pd 7.821618486665485 9.506334323917175 5.884012182369054
Pd 5.560751812232505 8.639516282729911 9.88988470132174
Pd 8.340290832216494 8.944752728234374 3.4021078568154213
Pd 5.965964380241891 8.0637172456055 7.253413067756432
Pd 7.474895567176907 9.999371388416892 8.43122601913971
Pd 6.939659553930215 7.54651044617188 1.73939488020994
Pd 6.752450464230366 4.871536694167784 5.431872638218347
Pd 5.8338195461166755 10.97045075812856 5.338023592351866
Pd 6.445924949314906 5.1716584263596435 2.6554504806131884
Pd 5.9707382160697025 2.880439344285507 8.306226053653962
Pd 6.016612669434932 2.769221338685254 3.692952429547093
Pd 6.295357092942224 7.411224289684546 4.657335691579257
Pd 4.876962463953669 10.388666913282833 7.735463352241621
Pd 4.699469964399565 4.310530104407852 10.340248887405686
Pd 4.408176273848142 7.26981352422404 2.8751278837342
Pd 4.0208932669255795 6.806424390289434 11.419825683119
Pd 4.252675219309751 6.606616743897055 8.851363203962656
Pd 4.2082831273902634 8.95062957554049 5.073823112480402
Pd 5.821367297861714 9.620104506183928 3.032495134099838
Pd 4.480511799292136 6.029675590741655 6.276576629168226
Pd 4.1931363266438115 4.8279741925967485 3.919404298845359
Pd 3.0990805241688277 8.48201576457497 7.33347807811019
Pd 4.778322136627041 3.1372699690478747 5.981247854432651
Pd 2.508005754678356 6.937707914000453 4.8863982777265615
Pd 2.2038738150555264 5.213281580379325 10.080822796354424
Pd 2.0388935882424346 7.824093950723561 9.686325725147276
Pd 3.495705812343386 4.05832749716871 8.021604156314202
Pd 1.8206967780571093 6.167678721324971 7.510219531675734
Pd 2.2923966976303727 4.288357408866347 5.669273634535738
