46
Energy = -198.37919636 eV
Pd 8.452828532750972 3.7143727740750787 2.778027399586356
Pd 7.8549840278957 5.981700377872082 1.4889777466178213
Pd 8.876421812725214 6.146929834268597 3.9187938184920905
Pd 9.116841555997194 3.8948418427910596 5.375087699171907
Pd 6.827881236405765 1.7574163220275574 2.0211272910300315
Pd 7.430111593805693 1.9339376112950806 4.591046023099927
Pd 7.967904184322044 2.1215012608895565 7.185685187698001
Pd 9.55606637887919 4.152865369716872 8.03455235845784
Pd 9.308330214303908 6.320377193015777 6.541682776617622
Pd 8.413686568258973 2.7038316202753947 9.837911708639963
Pd 8.943962297087145 8.559752686237118 5.215852744657682
Pd 6.499515091343727 4.470263795932517 4.4285930488399154
Pd 7.83716164127209 8.370937722276162 2.761708794490959
Pd 5.873998178555916 4.206060319788223 1.8636283348457559
Pd 4.812638508501736 2.427382963751765 3.666873653235232
Pd 7.113802179774442 4.714012014973278 7.091499238868116
Pd 8.304368110884623 7.918155016975791 10.37485537164468
Pd 5.420624356347934 2.5565566492684337 6.292210472548034
Pd 8.966758731467467 8.705438252268529 7.929554405881504
Pd 6.780196348614385 6.949974704188051 5.349563008134659
Pd 8.96711807568681 10.902788179367898 6.469896215182662
Pd 6.002635227680939 2.9760481985555507 8.884686316518199
Pd 10.055312661178519 6.4926317069764865 9.07090526490935
Pd 7.651630137642525 5.271714958800566 9.781136004974694
Pd 6.775689531379582 7.172123148202941 8.039184773192948
Pd 7.6782925418522785 10.706055101631259 4.1676477673331895
Pd 2.9473513048261206 3.2239941392537026 5.390396210137515
Pd 5.728985088312891 6.7131707421172635 2.844358468838758
Pd 4.616452993124522 5.229062238632992 6.252241011379015
Pd 5.86572511328254 7.15575174308781 10.787066804937806
Pd 6.71081136064942 9.558261690943459 6.613872417981204
Pd 5.02350297517811 5.4048971991983095 8.986819309361175
Pd 3.8609667525958855 4.966197911721909 3.574758849571259
Pd 3.520641763246766 3.362515744839497 8.053813055613892
Pd 5.590149990728232 9.113823235925663 4.08967008824694
Pd 4.541677555456134 7.815576492249282 6.426401701361756
Pd 1.106696678609316 4.092989226172719 7.0608854316240315
Pd 6.353487106273554 9.459591909276131 9.254634971364013
Pd 4.0542764222306875 7.942914088226009 9.038303270897579
Pd 5.359180810711591 11.440523518302506 5.419082249732478
Pd 2.1328316691873583 6.003605341473824 5.547017761927123
Pd 3.496623792857922 7.5224727149055495 3.987179193133007
Pd 2.5856609646094344 5.924584322854314 8.171957685541258
Pd 4.246479182945089 10.211144442876009 7.602058314758233
Pd 3.1700031296221876 9.881300516246622 5.1365369862099675
Pd 2.120269924411029 8.350093681238492 7.141934520093103
