48
Energy = -208.7145666 eV
Pd 10.4420512391107 4.099795181928662 2.874064853128623
Pd 11.63497419102484 5.553094403081021 4.694383554306485
Pd 10.132162837763499 6.905142382262296 2.6763791588130457
Pd 10.437714349091646 7.813055675619679 5.293143074849772
Pd 10.11819778560382 3.388032520095633 5.462503729770167
Pd 8.232142791319447 4.620869394575025 1.5913940374043885
Pd 9.647366568657137 3.285565984057337 8.059928218444933
Pd 10.172453234082575 5.6626193724160165 6.921929701144297
Pd 7.9657360711521985 3.2124108026881726 3.84157896530041
Pd 8.79546767040476 5.645208039885889 4.470523261728225
Pd 9.353618359073018 10.093331552281807 6.0748305652645636
Pd 9.483624417572836 8.033322803634427 7.934218604322383
Pd 8.687731424779582 9.187683779844447 3.4708129926039972
Pd 7.448116162610235 6.881459913180072 2.5414587431511437
Pd 8.81564233036872 5.609194178446596 9.199442922920003
Pd 7.851436967687589 2.061398063399058 6.293240124590836
Pd 5.5953015315562675 3.280797674161781 5.141206052651278
Pd 7.099070198609978 3.393865398494956 8.770852144939544
Pd 5.874441436207232 4.411338425265471 2.738062150611187
Pd 7.651231254361735 4.62874594355259 6.539457652167786
Pd 7.835642548103154 7.920137472517642 5.520225980840209
Pd 7.329363141993244 9.61415308774095 7.785032767287538
Pd 6.81864564334977 10.54879995282573 5.283292917657307
Pd 5.975760725120534 6.118239873706051 4.872474494105779
Pd 5.308318065480942 1.9731475792238122 7.349304760728702
Pd 5.953906650463837 8.734208492941038 3.5318745312228983
Pd 4.781084559289104 6.711985315696392 2.239310149798087
Pd 6.197421875714002 5.564175769473951 9.9526391701832
Pd 7.657023369601802 7.981151046318588 10.037266489711392
Pd 7.0123120400237005 6.863818394203297 7.713461654493145
Pd 4.867879142451361 10.652924065845912 7.3202801557333395
Pd 3.6916233971511887 5.042946307011519 4.216387772693994
Pd 5.5309411478679085 9.597497862216269 9.689222295948943
Pd 5.156127801143888 5.072392864623074 7.322043287016497
Pd 4.204018348112644 10.390283173638926 4.6934123064209174
Pd 3.197996933790422 3.6168625133875008 6.530931885371146
Pd 5.289975555027749 8.281541367694484 6.233911896238498
Pd 3.480546832926239 7.8045766430505905 4.231365304414009
Pd 3.905862886548954 5.219760267269077 11.288116182808874
Pd 4.511302139393811 3.446000931757928 9.364497760756104
Pd 5.264683094709084 7.580789431682065 11.33351879016234
Pd 2.9697546903998147 9.661500602916869 9.091810765559638
Pd 2.745157535888721 9.038556347369957 6.491746949594097
Pd 4.461328224453549 7.452885642743726 8.611573906080908
Pd 2.9406305040636305 6.349323256159631 6.403738791488411
Pd 2.7683978076202695 5.341621548146883 8.837993421071424
Pd 2.7191217979485782 7.517260204160864 10.63102077257935
Pd 1.4414533186755882 7.591289095157737 8.288894930271058
