45
Energy = -193.12566381 eV
Pd 6.2599374170635755 3.5391195139770346 3.547266065243505
Pd 9.429405071222497 2.5519710270007536 6.750108694853642
Pd 5.033422246415929 1.2692974250474949 4.056540692472271
Pd 4.845924553741219 3.1252718515559925 6.0588604450641705
Pd 8.724839041239768 3.8385492624381783 4.545483398242042
Pd 10.893495159894188 4.669386938345408 5.836463368792233
Pd 7.035106071955473 3.191812538851104 7.82572845986665
Pd 10.635574559652875 7.156683206626668 7.2067038460487645
Pd 4.979225190143822 5.852191276797816 3.6980396176756414
Pd 11.948703015452773 6.835526618497925 4.870978334436558
Pd 6.711862453880198 5.0674721789294095 5.913868876181989
Pd 8.97362321023467 6.618538536691506 5.164961139145186
Pd 2.29513352681857 4.114151274424293 5.8441338410386985
Pd 8.959745987966114 5.012754967216295 7.609461619383863
Pd 6.699496700120825 5.664504741676821 9.003023572739096
Pd 4.723515311097681 3.9929063588647007 8.653763606086624
Pd 2.7949302504556868 2.4599597941038143 7.793977324810485
Pd 3.7167694127663977 8.126584729355422 3.016683547338576
Pd 9.164341887953636 6.933844103969617 9.474802926651813
Pd 4.231942529832988 5.838661894361382 6.823429167622631
Pd 7.185582843006152 1.8777462615524794 5.491095180752223
Pd 2.696488327411511 1.5886197654039675 5.240975933572003
Pd 7.564595975487409 9.046021982119825 9.393589897288734
Pd 10.306468314355774 5.544022343426253 3.1621417092178503
Pd 7.762420947368013 7.4120209465690685 7.285624726267219
Pd 5.839132110960248 7.543130965355437 5.52910962836616
Pd 10.430386486231162 8.927496651335865 4.999089011224295
Pd 3.592358858320295 3.5307236008027703 3.5690290452164026
Pd 3.5787084976827606 8.947300879142599 10.05425877908251
Pd 2.401899188652617 5.941709337833622 3.9716449227270885
Pd 4.111591203883656 6.261366675136598 9.913156421523391
Pd 5.350066307058756 7.9014241396920415 8.285770227734297
Pd 9.221725255960667 9.537764498079348 7.301146710864205
Pd 9.066681679814739 7.995277104130414 2.844889689996289
Pd 2.2019092765471093 5.013023720163667 8.441758041730193
Pd 7.54951411295293 5.783330052508235 3.1313270532194024
Pd 5.479717015262013 10.60138737404328 9.352888994264227
Pd 2.5044337507434964 7.644721494818089 8.10558087149986
Pd 1.1165834141340387 6.382336648703087 6.321617468516114
Pd 6.343947111353668 8.177309557991586 2.926428446220945
Pd 3.1538805998254356 7.9707885168455705 5.5423379374840405
Pd 7.836383652594021 9.246176463412098 4.8697968095288555
Pd 5.044589889659005 9.889040658683621 4.731823596133295
Pd 6.547602851396425 10.013607214756 6.996142183294857
Pd 3.877593559183774 9.843625755123657 7.265189848498255
