47
Energy = -203.1227478 eV
Pd 5.578492924630656 9.530177212939202 7.600510503181108
Pd 7.115787041615374 4.653244529114168 7.365286779120168
Pd 5.8970150101282774 5.972662514291793 10.61536600879522
Pd 5.370828038797059 8.774194989220414 3.2076417603333556
Pd 5.132823604934957 4.626734491809815 3.384166624855753
Pd 7.203406436676103 10.224966576564448 9.626910386684365
Pd 9.457617976979659 5.391775529452073 3.396526058968257
Pd 10.466193563402435 6.581777681289601 7.860848542125237
Pd 6.542623484607836 10.102816400601968 5.172199366024847
Pd 8.307134710550425 2.6190876549007993 6.00854445191633
Pd 8.149974314311617 7.191852632538384 6.777242607178006
Pd 5.8263879006555745 7.506826064361676 5.607522922696579
Pd 2.3020584075361774 4.907850017458598 7.85540304309003
Pd 4.682620647658359 6.648346177443945 1.6932333857340505
Pd 1.22684409907411 3.0935539782840897 6.218330194478736
Pd 7.139583740987114 5.37611376881808 4.886344341688653
Pd 3.530546075738208 6.6622298374534 9.37826136133115
Pd 5.738801798051673 2.8156693469950462 5.252054293039425
Pd 4.6972266804983835 4.296160927140581 8.910129674921818
Pd 8.321645718508945 6.1728098937166935 9.505986603743976
Pd 7.620410661306718 10.170464845997932 2.7137492004227926
Pd 6.890925600461139 8.082832141180527 1.1758898317850914
Pd 3.6910085188034003 2.6695077361445825 7.041465841865143
Pd 3.202213992371877 3.218699824749922 4.450310932512972
Pd 3.923888694141169 9.431100195324863 5.468392477989389
Pd 4.630740397993325 5.113892494356903 6.187710805833251
Pd 7.933312237766274 7.68989749826311 3.699481288289817
Pd 5.158958868646372 8.637573457593533 10.139875484417693
Pd 1.9498617318909996 5.409955459481598 5.255250415981686
Pd 6.113656748030478 2.2099422985888455 7.840931684231316
Pd 10.7092608954668 9.120134862475085 6.973940707194345
Pd 10.20829885811762 7.281649799058336 5.103314120718749
Pd 3.6442460132726073 7.042933445467146 4.146388623440865
Pd 9.622107664578385 4.147504825741775 8.44068043713121
Pd 7.518021054085161 8.069680190834264 11.150712141921922
Pd 8.589991450981616 1.7960892154263146 8.529291778111018
Pd 3.1508363511849606 7.252356077013425 6.789027503393631
Pd 7.695249744014171 3.2833674377391318 3.475718540805581
Pd 9.321205670671654 8.59536750836593 9.241069451556136
Pd 5.877282025681007 6.873436640082468 8.148549893960492
Pd 8.151951460400928 9.75991761938136 7.2207577707546315
Pd 7.204774457530709 3.754740074939709 9.853799265867405
Pd 7.188563105241124 5.643888432596308 2.091898179379524
Pd 3.159281509751063 9.210035989874873 8.479104900889823
Pd 9.654898789498214 4.829665008501182 5.942829347504785
Pd 9.191016515689217 9.750371969881588 4.81969648372125
Pd 2.646541374365343 5.142261293829626 2.6337705476978006
