44
Energy = -189.63378648 eV
Pd 4.375044893818025 6.529815917704872 1.1225029408961589
Pd 3.2099694453869376 4.052940469763072 0.4312051359770053
Pd 0.5504582534027942 4.164611802288059 1.2368193233827065
Pd 6.2867034140047755 8.321839037412987 1.4668246019623954
Pd 1.7834062129234958 6.464527397766364 0.5514489459563575
Pd 4.98059345417886 9.067838703296704 3.61905650114149
Pd 5.796102438596219 4.28706509996179 0.33657187672965805
Pd 7.476300373992965 3.3223351043192255 2.1912030609810693
Pd 7.542154239592013 7.744931225738989 3.798872175679616
Pd 2.2830970870962433 2.486757606889968 2.3364904361701204
Pd 4.717567653328893 6.51212523744699 3.8057881229062485
Pd 2.5788680095417638 7.862068038957361 2.858789475080297
Pd 4.856716201023235 1.962910657036486 1.4443354050862716
Pd 8.986355747791903 5.40723905855022 3.5532020625635283
Pd 2.675689308456147 5.1073857920815415 2.7654939782871337
Pd 0.24350572504938817 6.385716946990624 2.7760572092585045
Pd 4.992446595266124 3.8539281462825827 3.1872650328656684
Pd 6.7567879209741895 5.847344174642998 2.175332238447017
Pd 5.385039349911552 9.067838703296706 5.620382847181962
Pd 0.4700962016089074 3.9542800596062553 3.9985422902059793
Pd 6.498270471465373 1.4837822192326484 3.790116825364454
Pd 3.8914560472327153 1.1754573882200379 3.8737116269018568
Pd 8.447862629471855 3.1307652186501103 4.673409375173981
Pd 1.239785099714269 1.461110741374499 4.542224893125638
Pd 1.7792832625608017 6.162837273304331 4.964477194217414
Pd 5.3656664254492625 2.839761166728119 5.833366939457581
Pd 3.336205290744839 8.208286522175017 5.541432360406987
Pd 2.935988075293726 3.5121781019933516 4.984230131837772
Pd 8.399019606139449 6.512382621630663 6.091115953008451
Pd 5.99401336231399 7.79720051066264 5.868337807626461
Pd 6.611700218980769 5.067165564057873 4.924229458698746
Pd 3.0955661900342264 1.077705580277405 6.424759330040645
Pd 7.568721887090304 1.2583061053153133 6.310277100455644
Pd 4.19345810916469 5.543600835055407 6.2746895580897375
Pd 2.0903386982564163 6.758300568303013 7.543603685364488
Pd 1.187385634397149 4.330520374835054 6.783726422998523
Pd 5.282999868284929 1.2494582315844294 7.939290689104709
Pd 7.6462866152490205 3.8669891440188096 7.0663252330354025
Pd 4.446491830192669 7.970028162685155 7.998345003786974
Pd 3.437245404619974 3.3261657356530585 7.7450716147318195
Pd 6.336234701507398 6.047675439393956 7.824588953889439
Pd 7.703858329534493 1.924090110043059 8.861527995307037
Pd 3.928371697127533 5.541128267988602 9.02817025133805
Pd 5.790040638708373 3.7079933605651725 8.98994055475551
