47
Energy = -203.37989915 eV
Pd 10.829085426169893 6.875314935165943 7.111595936624665
Pd 6.448798655414866 5.628402154976536 12.315133627737357
Pd 10.455896080858214 4.286778559190333 6.995735708503057
Pd 9.207517256762989 5.622446611995405 8.889730941064126
Pd 7.384049975077885 4.271822280673378 10.234894091196624
Pd 8.244238592304697 3.0457266895224357 8.042796814705152
Pd 10.98065210520025 9.490604510488945 7.133328123067858
Pd 9.709645908767602 8.346815209169 9.247126518454369
Pd 8.014497683362716 7.043686714126772 10.760264915151172
Pd 4.7029490695664515 4.710264004458981 10.602610739405623
Pd 9.555842783783737 5.772903174553858 4.987482786412771
Pd 6.387888810258105 2.492450240314892 6.064731929886361
Pd 8.822721137977556 3.168378623227867 5.298423746872193
Pd 7.484785446796039 5.119951015330462 6.694887269867766
Pd 6.321291985603959 6.195356093587754 8.750127159817128
Pd 5.272863898911376 7.468184574091841 10.784562208364711
Pd 4.56165974327082 2.1536089475135634 4.053988454423667
Pd 8.281170363828208 7.663853672025334 7.151000125136277
Pd 9.905669724495404 8.444705022155638 4.990597024009803
Pd 5.601521391680307 3.4712193911335745 8.373957612867887
Pd 6.938821921244297 8.94901466583501 9.238086408244666
Pd 8.601947900337272 10.307318531734332 7.647367719871629
Pd 8.130656581938986 4.618321412357464 3.0758558969462126
Pd 3.758567676264665 2.824114748416152 6.490575459490725
Pd 7.175381378633385 2.1770855323386193 3.4706675126458673
Pd 5.982411555314248 4.642476357130947 4.59273739426081
Pd 7.120568017549215 7.097213369023148 4.852015970632723
Pd 3.028615225155027 3.950542740432487 8.733201532294519
Pd 5.622008830695834 7.921253814908778 6.880125799010439
Pd 8.91194051440519 7.209036855675975 2.8288030626326957
Pd 3.5342718453789015 6.519473050984494 8.961258474737598
Pd 4.5224376541865965 5.419162451420045 6.730120048216134
Pd 4.265898302697028 9.075556265663486 8.86029085478417
Pd 5.479369433924663 3.889491359478363 2.1740089578183985
Pd 5.952250472504176 10.555335208508623 7.294749888371655
Pd 7.678175309811852 9.754481431210198 5.330750373561745
Pd 4.4283380813372375 6.97064808665603 4.56558364326485
Pd 6.285326669587065 6.465334449733386 2.328962430276409
Pd 3.2621740333493308 4.395608989858127 4.433805482137426
Pd 6.947473651536477 8.998110995053006 2.9357692136851576
Pd 5.1177876859835 9.657895433186752 4.828630824847304
Pd 2.952360511894776 7.8691452310078445 6.828593344704251
Pd 3.6744223143572796 5.805765082948565 2.2638328865532475
Pd 1.8314914959498572 6.525367772703676 4.870512668906008
Pd 4.3729519174809806 8.52154452693431 2.4558336534100382
Pd 2.593246965494095 9.142386920254943 4.559730824610574
Pd 1.8496586669330761 7.6571429468783325 2.4764545945525778
