44
Energy = -188.89226506 eV
Pd 9.996418314049992 5.163551668932938 5.1492715822844985
Pd 7.380137656888588 2.188878867315469 3.655034930130814
Pd 8.481418787000049 3.049046275448691 5.826490445513934
Pd 8.47245083648294 4.6457053979057035 2.988750464764953
Pd 11.822927351533288 5.590675055615204 6.966472476208029
Pd 4.720112051959554 1.6580667812741383 3.9696801635939245
Pd 9.648903505054598 4.283249683829225 7.806450663480122
Pd 5.820282819719429 3.007670055242183 5.8982929142428615
Pd 8.72785947847037 7.343731337687524 4.33683703075768
Pd 7.187849179806461 3.363602817656637 8.166689001547297
Pd 5.736196260750633 4.071905785222379 3.029932792262924
Pd 7.11308261574199 5.203433474747558 5.116941016469453
Pd 10.441985254519135 6.57568342752675 8.943101940834643
Pd 6.572624318483226 6.655052350338874 2.932477214747574
Pd 10.519057700033214 7.842315489421722 6.410485305179728
Pd 3.209077754605455 2.8656274783871942 5.98963979402822
Pd 7.92453017210457 5.51897399292572 9.491973779728486
Pd 3.1032201101394548 3.6509729266160504 3.4784377461743965
Pd 4.629745954778014 2.5073069321737407 8.234753795482622
Pd 8.380334686594274 6.493449287093876 6.993070399439554
Pd 5.383436820745365 4.579544395292481 9.814094676492894
Pd 4.418251307513832 5.476463497646531 4.995177588948304
Pd 3.9599415679389405 6.005924176297439 2.379251162199509
Pd 4.618531912807949 8.330424053025933 3.335754453487767
Pd 7.078835526212705 9.295935738975214 3.68513677977191
Pd 9.110048242376621 8.840402658272879 8.655860940826312
Pd 8.978529027889607 7.371575076886205 10.988999868192508
Pd 1.345161238542885 5.47133010013007 2.992462214860072
Pd 8.184367270441973 9.182324762310552 6.184562500924977
Pd 3.348032555472755 4.806063546392402 7.78780774264773
Pd 1.8363571357912318 5.180275675328362 5.603057274446013
Pd 6.21833039030503 6.912060957829133 10.972009642839476
Pd 6.6675457995686624 7.870398328922396 8.537416523775116
Pd 5.868482693534398 7.747075947140601 5.712412688085827
Pd 2.370623039665465 7.467944346867957 4.274840450786041
Pd 5.838049834092698 5.5807284880217995 7.377012589321972
Pd 4.928304716534407 10.900675495757573 3.503087366257256
Pd 3.283041346933289 7.260279310069429 6.761653900754006
Pd 7.327423347317543 9.392175966628567 10.64406086413561
Pd 5.908350142975908 10.56160910118327 5.865182756698281
Pd 6.969992026983986 10.49749571536323 8.22622611236326
Pd 4.218569226759371 6.976024315123976 9.188898789209217
Pd 3.4424689642312964 9.589021738461208 5.393251426931609
Pd 4.568070266037402 9.294077735215586 7.8100340406219235
