44
Energy = -188.97914897 eV
Pd 9.371010660148873 5.707904048158765 7.999035999551098
Pd 9.28350067402072 3.965874816957756 10.060061922325763
Pd 8.511115169126798 8.131470740378575 8.321733537700714
Pd 7.716773715837335 6.1532880200025515 9.943688076574176
Pd 7.056759223690304 10.44480005155438 8.435667229449388
Pd 6.7896592524863895 4.1044245867593485 11.343857756833579
Pd 6.084654174395946 8.183257263193163 9.41484342130025
Pd 5.129895710638696 6.1685908488761285 10.87014517925966
Pd 10.446221322014377 4.873791243112986 5.76972207490629
Pd 9.002700296125433 7.250089738297611 5.7395208330421665
Pd 8.313707597293243 9.823588372552969 6.24541527692911
Pd 5.929345819977362 10.903316016248864 5.997206854943444
Pd 9.272823984247587 3.065166607888368 7.482542660641302
Pd 10.837406770999754 6.831046711258149 3.903377131838159
Pd 9.614464860300068 9.298772837054972 4.093202887768607
Pd 7.509332488990354 5.021150826506968 6.307391299839066
Pd 7.0085627743228835 3.481994447761201 8.788659737741483
Pd 6.431985099211325 7.837831750136958 6.695012854945083
Pd 4.639707321445881 3.6363282732619644 9.831948100485166
Pd 5.644558106946236 5.664684171744047 8.253272326900614
Pd 3.543649075134733 8.187750157529898 10.00870367237514
Pd 4.500397676767211 9.789940664052963 7.9544379454013106
Pd 8.999340747945206 2.768804231697473 4.8971059576827844
Pd 6.748767952377358 2.4704922495162127 6.429990903843451
Pd 6.846139458507184 9.17846399752629 4.0577590036889655
Pd 8.564209225504017 7.472080556911921 2.5578697645373416
Pd 2.914280104840726 5.6146435991752375 9.408470711427277
Pd 3.643229287972114 7.320938241622229 7.50021933026627
Pd 4.402733303898414 8.877166387487836 5.405309652282562
Pd 6.611151966378672 6.591572669450739 4.208707194794523
Pd 8.850362766245668 5.108638659529534 3.675749598706439
Pd 3.5997908192565204 3.912959981043393 7.402838610785626
Pd 4.807415782615667 5.542927869726025 5.708843020834622
Pd 6.649868596751522 3.77539211582619 4.053536290377059
Pd 4.4508639534320436 2.8030766603909716 5.1721804557989
Pd 6.242351115084149 8.060721881876486 1.5887101184423362
Pd 4.316998618073676 7.5258925969516595 3.2310334592522385
Pd 6.788028439036923 5.402803108200001 1.8665268364264052
Pd 1.5637256410339377 5.6631055912153565 7.147313579922244
Pd 2.5863209111466197 6.993683191481701 5.080940779401098
Pd 4.3924527729526295 4.659294402003322 3.1732014661494805
Pd 2.3299171436495008 4.375539384639426 4.915893922636368
Pd 4.3734015135754465 6.186772766393031 0.9834572906102707
Pd 2.1680782012216517 5.967358198245897 2.64201859264252
