43
Energy = -185.5615317 eV
Pd 5.628752708695271 10.417001450676972 5.401043363357237
Pd 3.4676077516489108 9.333482987240439 4.153439350540502
Pd 5.879273581644346 8.324679606947647 3.636121949927755
Pd 3.7502343779167706 6.72782649516566 3.858895356423505
Pd 8.057869556491053 9.640170254779665 4.258511170674824
Pd 7.874670615746775 8.007077138237472 2.038647388058108
Pd 2.3767066275753796 7.655340190563871 5.9538542838754775
Pd 5.751528745487924 6.092042408768427 2.1763435253585706
Pd 3.216333474432051 10.06216749702384 6.723681408497507
Pd 5.427095001824017 9.858788218945623 8.105709305434521
Pd 7.788185581954431 9.849107672430897 6.87774784199985
Pd 1.903404566652203 5.222661505225322 4.9832145812586
Pd 5.089143751397894 7.9294273824090755 6.123544291364858
Pd 10.002797151956335 7.735674166379322 3.7591270902694216
Pd 4.136947509618578 4.140675739398582 3.5619540767199944
Pd 10.167601293263926 9.245463783993806 5.944374572681974
Pd 8.270221575678244 5.775956631403217 3.289577604916268
Pd 7.903343702895108 7.306230878691654 5.507286487273075
Pd 6.729466101849691 3.6713593941635954 2.7312487591336163
Pd 5.972713185187027 5.575340484636172 4.869387696989931
Pd 2.417129916849594 5.614101203082056 7.622195783462672
Pd 10.621172299025753 5.181186608841966 4.414642619861747
Pd 7.585288798262072 9.877634948699985 9.55873876213669
Pd 3.604616852712267 7.915893815954683 8.386065611668991
Pd 9.53130792538356 8.40170017232473 8.391640583038603
Pd 3.6846349511899312 3.7002031378332236 6.160034474787511
Pd 10.228941413192452 6.657378458801879 6.499651141445769
Pd 7.016576308307391 7.484993595800481 7.983971259474674
Pd 7.593166235678004 4.968366012410428 6.961468410204837
Pd 5.072482754530722 5.621000277801632 7.394904657772528
Pd 8.464560218299024 3.7001004808974884 4.764068036227244
Pd 5.64189368857241 7.993946457078795 10.154113701691596
Pd 5.9963105490178155 2.872299376514025 5.175573311591845
Pd 4.152188384006774 5.726440630799011 9.841550152192383
Pd 8.306369465600852 7.522610651288394 10.602323281809227
Pd 3.349287536376045 3.392284147997675 8.784479170738585
Pd 10.042116568901838 3.997794778630569 6.942110040427197
Pd 5.751073568514317 3.026106314738651 7.777092906875785
Pd 9.32505040783339 5.770764939942889 8.870471368053932
Pd 8.142251533992852 3.3582696687843785 9.129279732378736
Pd 6.78910734403167 5.527448758003683 9.797034369862388
Pd 8.024085439685777 2.0808076890500375 6.7799068626249746
Pd 5.561476803716775 3.333179813239183 10.349959482513894
