40
Energy = -170.40507246 eV
Pd 5.61268019617757 11.359586841199558 4.855815963273287
Pd 3.202016749945617 10.165033580172954 5.037125055094208
Pd 4.607380432547341 10.761382535894867 7.253063853551376
Pd 4.8001609270968135 9.686409276340038 2.9324201207198777
Pd 1.229113009296301 8.401287678550027 5.384105276627427
Pd 3.4429990146035476 7.624160770985236 4.126948000676631
Pd 7.438171266445424 9.568553881287599 3.922765740349876
Pd 3.3010904173427136 8.35852825712018 7.045741654460393
Pd 7.307865811329761 10.250834304602034 6.690406360170978
Pd 5.564562770740162 8.620523970975501 5.53914365366173
Pd 5.739349343074344 8.666949056135657 8.278019651324902
Pd 2.1603827787741623 6.010984279178442 6.006250749223381
Pd 6.000535029040024 7.398723231572978 3.1250732966802772
Pd 4.736927080073388 6.150517139223627 6.085268048091763
Pd 6.994515264560477 6.288121039620189 7.561044461515033
Pd 8.644441434938015 7.322579919389214 3.2416458225713853
Pd 8.377729980146853 8.558444590579834 8.412654667982943
Pd 4.522699900962257 5.304213848314039 3.4829504132605247
Pd 4.2674730820731535 6.59002944319487 8.736305621839152
Pd 8.437065604386214 7.925309075721154 5.835218424296884
Pd 7.126489147581912 5.651737585114106 4.9599594331761425
Pd 7.032728247982876 4.987147847547888 2.4379926246170402
Pd 9.785849615583034 6.374947896152447 7.6471145155831435
Pd 6.63959866857586 6.878715830754041 10.09910626291769
Pd 3.462749241155867 3.7081667270655885 5.27304527482241
Pd 9.694172212820398 5.101858538259609 2.41496090111571
Pd 9.880236343256398 5.7304613051393565 5.056692094437025
Pd 9.302112602437743 7.029818861457727 10.281242542148217
Pd 5.915131967605329 3.8476085197713576 6.745009289726167
Pd 3.342182024378525 4.31223088680319 7.830759771839674
Pd 5.922475347422555 3.165033399194314 4.1519002484547105
Pd 8.668500370023096 4.08889028719298 6.792867904901374
Pd 8.615687457547486 3.4647736669910913 4.164696904835305
Pd 8.365708316818923 4.7723805816621265 9.368952591029787
Pd 5.671135314551653 4.433406411357133 9.33824612046224
Pd 4.782212495500739 1.4783895806715621 5.903775939794957
Pd 7.537247845090659 1.8075396679411875 5.894356513107033
Pd 7.409305257613199 2.464182582823675 8.572572056537156
Pd 4.689839009662258 2.0930919075558827 8.468142916957186
Pd 6.340567465320376 0.19975786473269527 7.637677946963733
