49
Energy = -212.58506774 eV
Pd 9.960049570884806 9.066137696778496 5.426818874675135
Pd 10.646975495578124 6.525036670492563 5.800781055000157
Pd 10.657273696780804 5.215581571293759 3.455242301329876
Pd 9.014542338176577 11.554540401475487 5.142193406752583
Pd 9.898201803070716 5.189170413770035 8.054033802469206
Pd 8.867900667173386 7.163086207776296 3.896972446721545
Pd 9.948359486814589 3.849719551834926 5.602187245809289
Pd 9.472065973916832 7.820557950599299 7.779180544491627
Pd 8.104994787914569 9.720996149696644 3.506121606300683
Pd 8.48953798900846 10.31029496195745 7.382143048757471
Pd 8.901617952614695 6.570550482688627 10.173273331167389
Pd 9.069567596397723 2.5696449611043786 7.725726181741622
Pd 8.818823533983652 5.844951732895411 1.5246517039670902
Pd 8.099061017680091 4.4618877184562535 3.6654555859075773
Pd 7.8538914326599025 9.05735730845325 9.551241312090728
Pd 8.08920624993424 5.698920457610351 6.19158838490652
Pd 7.086890300679566 7.752453402169552 2.1028889446729084
Pd 6.062176821834543 6.2797812811599725 4.4285871763176905
Pd 7.301111085233746 8.24240742011638 5.905640450544802
Pd 6.4746236320152954 10.798049701774254 5.498899972216784
Pd 7.792915389034988 4.207502240461409 9.26572277378713
Pd 7.13219604053862 8.019651154329672 11.784534000196873
Pd 7.406332151877002 2.8955738042170935 5.7095279597441335
Pd 6.952864698327805 6.826581712708516 8.36604298403112
Pd 5.560689570299975 8.943523914407265 3.8577735289596236
Pd 6.178388617029383 5.274109609762907 1.8662572995705746
Pd 4.4690064610293625 7.4731011104331255 1.920889095032118
Pd 6.418375233168728 5.710522380264492 10.945099796145675
Pd 5.665390690146596 3.5287447942002426 3.8191105598804245
Pd 4.131888802707917 4.833349999640452 5.627186246630075
Pd 6.029246418813987 4.538874176815247 7.2990442340114745
Pd 6.4511654496537725 1.9684671096068724 8.107523086508452
Pd 3.6954838528486635 5.21365771214671 2.911340850874305
Pd 5.1025416914832284 8.075555912366632 9.930763686692659
Pd 5.9303335223486915 9.583258597260325 7.8341983461561755
Pd 4.717703015833007 7.181686405076896 7.012848650722034
Pd 4.075175701885112 9.604073469127385 5.863863116592731
Pd 3.4948655193967078 7.376899113381102 4.4438344525293365
Pd 5.572764199693677 3.2761606643591747 10.328565530092064
Pd 4.7922721634714245 2.187828059929106 5.930760095140942
Pd 3.0568246955243317 2.877987503275615 3.888103332294488
Pd 4.479831545466326 5.512497784433637 9.239776956812268
Pd 1.6910734539546075 5.41955494876118 4.920888569511106
Pd 2.5511153380593847 7.271230277045807 9.27712137773775
Pd 3.92707210964204 3.080918526158448 8.30169848898975
Pd 2.0761536688302487 7.80163329426096 6.65142013265266
Pd 3.3559256023128023 9.543677710066515 8.385609021823182
Pd 2.4481139551211752 5.285986833634676 7.571643478716806
Pd 2.155313205354334 2.9974768469425994 6.349315836162716
