47
Energy = -203.14794317 eV
Pd 3.3155200478305815 2.76158762635428 8.156741236220325
Pd 5.100203392588834 1.9443423619445848 6.329986666577296
Pd 5.667547741881453 1.8690577125772667 8.98788996033408
Pd 3.3288470601839144 3.9095863788368135 5.746241282399622
Pd 4.739969332114216 4.28027325583936 9.9817033587877
Pd 1.7938695300877416 5.998646156596286 5.9423898091075555
Pd 3.0019222347158676 5.354103690957159 8.226879906343218
Pd 7.597580258807164 2.557454007363601 7.2856025331762035
Pd 7.330155018026723 1.9531997196387882 4.708085813414375
Pd 5.650414719341104 4.4010006255362 7.5142394807164825
Pd 5.73136232602988 4.040926557188765 4.7989893294157575
Pd 7.434159171600942 3.688428301533431 9.725003193637749
Pd 3.8491023192110703 5.867126535966071 3.716200991250433
Pd 6.521455888480328 5.9471461566160535 10.97782769161039
Pd 7.962128158116192 5.240217474899255 6.2009716596356
Pd 2.5347500031578414 8.243797312220877 4.888307158158859
Pd 9.542003920690053 4.189464039239006 8.129343095475164
Pd 4.558942950201843 6.449573660232483 6.203531968328793
Pd 2.8485602441874 7.9451917099029865 7.566449083668127
Pd 5.114715589877329 6.878686643850237 8.868223719816138
Pd 9.580518349670132 3.0834743305942607 5.6233455600620275
Pd 8.27485816419126 4.300390198459506 3.6649768450683795
Pd 5.990151768975222 4.656878379008557 2.218978563142044
Pd 9.289995312502695 5.515750730144837 10.547321414978008
Pd 6.638044462286749 6.400699422055087 4.262069178666131
Pd 5.092498908649156 8.400712207838946 4.350040302442164
Pd 10.770613725569095 5.405959112659502 5.9267666245403
Pd 8.152885495018337 7.834312121019745 11.617876771937176
Pd 4.700245769253815 9.497094406611621 8.78086830473891
Pd 6.7615405535243465 7.86338273697762 6.604820798107359
Pd 3.2125534254248875 8.264636541713498 2.3326072424050657
Pd 5.592132670583978 7.237544074036395 1.8738584337997386
Pd 7.664266608966929 6.151128173284417 8.611693963971922
Pd 8.134865570336236 6.380694767242297 1.932473983002039
Pd 11.252423735078025 6.098493636813033 8.509988486067988
Pd 3.4962197813012565 10.559068967672005 3.8351977551648315
Pd 7.150398567612913 8.676206010630855 9.285976012635599
Pd 9.751800042992645 7.972498779104945 9.586146566646695
Pd 4.236305809579467 9.924166675788584 6.287857825063701
Pd 9.21850067639823 6.991172044887165 4.382346294691493
Pd 8.527850763971697 9.456740361637387 5.444898258324172
Pd 6.237096645748845 10.762494091718924 4.519544981826388
Pd 5.375874136695175 9.921890450259617 2.0266403638802903
Pd 9.134833252351951 9.973587965402764 7.984304105467976
Pd 6.66084863732636 10.44152590357763 7.182891853098944
Pd 7.519909292283491 8.744936534068973 3.1471656398066084
Pd 9.50616054503902 7.489544605510083 7.001641787665645
