43
Energy = -185.28558889 eV
Pd 3.6753848657503316 3.675361628301226 10.185448910167514
Pd 5.858657792717298 5.088322688190713 9.642022701859137
Pd 6.115157293922705 2.4417870948003757 9.911447644311707
Pd 3.405088223564354 6.117136763569115 9.052252673023714
Pd 4.82999941332599 3.3036238271954863 7.7614856154798995
Pd 2.2495233637290104 3.9684671903923983 7.963016849530535
Pd 8.036587510769523 6.547907641164743 9.437656382520622
Pd 5.623876659696757 7.642524275832332 9.004531073043422
Pd 7.344942222995958 2.307795797255591 7.474260320370575
Pd 8.302661536431652 3.8550789399978784 9.596055721878272
Pd 10.242991031451897 8.035074614181887 9.235611939352081
Pd 4.941955122211309 5.886419746485875 6.915510670476952
Pd 7.835135272720508 9.174935356993231 8.98793195277938
Pd 3.441258459087234 8.38065457021827 7.59388372311341
Pd 10.462304169056383 5.342627777752724 9.33096707881571
Pd 8.563913345036415 2.633129824036842 5.0800126177164096
Pd 2.285293854980923 6.190411070084795 6.48635027938006
Pd 7.409104355896902 4.954607706397228 7.2677478671413445
Pd 3.382793902885551 3.85768101851601 5.601470185296411
Pd 6.024375563632116 3.3977997235763557 5.38541657126328
Pd 9.768720700798548 3.758594751802493 7.236564537869439
Pd 3.8857259953944454 6.080897119035476 4.257446348328387
Pd 7.335232860735406 7.604271023562351 6.857613251759752
Pd 9.853253031871104 6.578559233928675 7.085474731563976
Pd 5.651775812655169 9.933963407381318 7.628977950797894
Pd 4.5390837204079455 3.7505472214797106 3.1981199943945917
Pd 9.13741895911679 5.161387221801014 5.0345589108414375
Pd 5.132981504664819 8.21131444532068 5.519398475934378
Pd 7.9364285739952605 11.331232734633831 7.455491320722618
Pd 3.5916544095918455 10.505366890019495 5.958197679164657
Pd 6.598854652322383 5.944023386811506 4.7756388741618165
Pd 9.60674312399116 9.26518569600566 6.924686445335728
Pd 7.136970723147633 3.7670838114880625 2.979164563577744
Pd 2.542423856055491 8.315804979653308 4.885368729489948
Pd 9.722348119751281 3.792697299116484 2.8750593611250737
Pd 5.860893061883863 11.956214632451788 5.865926906272775
Pd 9.086078818213641 7.809594288920295 4.74580705230497
Pd 7.467202778825307 9.880549475240102 5.315855544478757
Pd 4.214775170690365 8.167358324777823 2.687725487260426
Pd 8.447972306546573 6.164839679666296 2.682339902302312
Pd 5.709211802098368 5.9534762856004315 2.2245876709768013
Pd 5.197356463481523 10.292814055199973 3.866514878735196
Pd 6.828314635873852 8.215738026695401 3.3222545520120272
