40
Energy = -170.76190267 eV
Pd 10.793535941771486 5.642657654138716 8.067577798775517
Pd 9.839675815627848 3.7086594956909273 9.561769067958771
Pd 10.214006600303223 5.822926078020069 5.4576178818121965
Pd 9.138913023311737 3.8029952868862433 6.866316080508345
Pd 9.802126122646074 7.442070017974778 9.82629112524004
Pd 9.305872313589331 5.974502914274335 2.9796956756829798
Pd 6.799278340411231 3.444082025953635 11.341163934907923
Pd 8.214346652875117 3.8850133956212685 4.357874118034959
Pd 9.673160477863869 7.890409094127937 7.143836164472412
Pd 8.30393342046643 5.488039883444503 10.777586593224552
Pd 9.007114987051368 8.166363955478468 4.558954683676875
Pd 7.095136878061716 4.6971847087729826 2.0568908239169645
Pd 8.116332607760278 5.916096361215267 8.160966855005505
Pd 8.564812341774607 9.570507380249701 8.912431806151464
Pd 7.3851644759092405 3.4515030461564735 8.850232034057267
Pd 7.612694481195867 6.145925227079437 5.5429428202322955
Pd 6.496105449646886 3.312186672499192 6.363494872818246
Pd 8.444963211859879 10.148077899886184 6.266090492177845
Pd 6.993646501587764 7.671288958596871 9.86801251048165
Pd 5.611242352278492 5.3650207311557345 10.007347795179333
Pd 7.576236053993074 11.84107446425704 8.186008459377486
Pd 5.792751416305514 9.912632049890208 8.783296799316819
Pd 4.855128994299302 3.083594967245609 8.572109841146789
Pd 5.61764215664724 5.636278011800482 7.3324271245825265
Pd 6.815149736320984 8.19708561307372 7.080465113884742
Pd 5.56169288285733 4.5634682052479665 4.254647935852656
Pd 6.95280022935255 7.160475160788362 3.0902433403616736
Pd 3.224155276810457 5.187787574112803 8.821069030673405
Pd 5.86749260056684 11.117447186431143 6.3582265408358
Pd 4.52943986208018 7.566542392004517 8.81624715704404
Pd 3.801133632844403 4.071796481340141 6.268083502946527
Pd 5.094358034380799 7.093814724032998 5.116194769116746
Pd 6.5465573058494035 9.34635068757153 4.571260926798967
Pd 4.76986797230191 5.978973344933421 2.154237238018904
Pd 2.9517588752356883 6.730271890677058 6.741590549786406
Pd 4.195673479290743 9.140689510524862 6.641028051502879
Pd 3.0448809028513764 5.609171252696184 4.260360638173045
Pd 4.643636193367784 8.605728042577299 2.9429524581950246
Pd 2.6634683034477455 8.338742978369226 4.670397451800024
Pd 2.4891476906219383 7.248090633232408 2.235799077149522
