43
Energy = -184.3623974 eV
Pd 2.575824181809813 7.063531745992405 5.114446633067899
Pd 3.811944544166302 9.045166659967995 6.380590665801183
Pd 3.264257317327511 9.348961537387915 3.770528761213814
Pd 3.4356498766383865 6.721738390106609 7.745301075485359
Pd 5.848720054621401 10.610958826605206 7.280425035074863
Pd 2.9431884342591044 6.75420324575928 2.5053284034620003
Pd 4.825933248909833 5.716371253375359 5.53319509287422
Pd 4.841231153594487 8.66609649806201 8.818795416370783
Pd 2.2959688608658295 4.691509780608458 6.316917953686743
Pd 3.2816963094449476 4.439055357172668 3.8340025505756667
Pd 2.2065362002959117 4.688177338216162 9.045730733759951
Pd 6.169435959524629 7.947634922024984 6.1709165300934865
Pd 4.5637004081447134 5.407049993038225 10.11536753864523
Pd 5.741983698715802 10.177225537992285 4.661388802400994
Pd 5.108278502095836 7.575271586716 3.718910643556196
Pd 7.466145583389689 8.861484173820926 8.482834410355826
Pd 2.3904471626808377 2.391220167941809 7.717325096988047
Pd 5.7341336247223245 9.45415535010428 2.0904628752092647
Pd 6.22713130291635 6.418603641547849 8.330045662224421
Pd 5.216160604442658 5.387437911921443 2.2549949636032336
Pd 8.137768609920702 9.83567478871433 6.058540479736247
Pd 4.101856432382343 2.692690031432528 5.6717548333182455
Pd 6.980509248456736 4.510910373409164 6.53885691836324
Pd 8.401699110568345 6.728343863997018 6.7646894522499865
Pd 4.612022770594969 4.199733599422694 7.738584728121028
Pd 7.768583188644123 8.680768982727887 3.6770638395522117
Pd 7.096186044486996 7.105777796024743 1.6390673173612906
Pd 10.010999049905704 8.63326684041748 7.702391413346212
Pd 4.807274741828771 1.1993395420904664 7.7571372648133705
Pd 7.272406088255577 6.062681399958756 4.353452129324074
Pd 5.95430486578397 3.5691688815976756 4.034469671639121
Pd 8.847898308236063 6.80122960189359 9.421692476661347
Pd 6.734562802011021 1.9627062452060051 6.067470781869828
Pd 4.078162284623556 2.761866802457166 9.875650788867212
Pd 8.934960773255854 4.219992286421073 8.182195057270215
Pd 7.200303536846203 4.90464289508931 10.199115218472436
Pd 9.938091019771838 8.09224327908323 5.080051485044465
Pd 9.43764515210344 6.591869395160293 2.9673758649338073
Pd 6.639203058586927 2.8474337291464464 8.731522250224359
Pd 10.834482672817659 6.033285916990462 7.726557977694038
Pd 8.535058014566788 3.457401895587805 4.690231435882835
Pd 7.804084653178075 4.549833743506548 2.2519276608961314
Pd 10.118429520697184 5.430670909924822 5.264406096654603
