49
Energy = -212.08553795 eV
Pd 8.368512826537234 1.5790867951233103 10.239723495320222
Pd 8.504532097025825 2.134652314435255 7.62679549517961
Pd 9.370662239687766 3.924732707203381 9.630796128692225
Pd 9.724730627601827 4.395907841516312 7.013481371390649
Pd 6.167631272327958 2.4097580416192126 6.346911280693028
Pd 10.498627064288597 6.215394173564729 8.971709033981837
Pd 6.1257908219060395 1.7182392675548792 8.852985323759805
Pd 9.926151051171102 5.126340542712353 4.508801478238073
Pd 10.715960491813524 6.92251777128842 6.435428873598386
Pd 7.4526597257427944 4.669058362601589 5.456267314452065
Pd 6.798746676945859 3.7070642973291186 10.65265210906272
Pd 10.787973238105925 7.650868130704565 3.886547046341304
Pd 7.114586867114654 4.358450079805914 8.113630291594161
Pd 9.212891054394383 9.710492845303413 3.480836664584018
Pd 8.010578277643468 6.2273391269364256 9.938224635885886
Pd 6.442653459152838 2.915125913491483 3.740057353340043
Pd 4.030066507432085 3.030934657325128 4.887011038280936
Pd 9.09021908388005 8.49371337860134 8.72121930671715
Pd 8.193751707396972 6.671389984253176 7.091126133328147
Pd 7.665809545831876 5.10338386678089 2.7629252888010685
Pd 4.588895766467113 3.8105333574602565 9.004457135036985
Pd 8.222240317170144 7.1827426333184725 4.45440973495389
Pd 10.151237709897394 5.7941986051680345 2.001754991976146
Pd 9.225565254647416 9.124920263339426 6.094073915813774
Pd 5.412474019745077 5.925027597917201 10.600640918355364
Pd 8.402599627083166 7.685759332028357 1.8705273967719247
Pd 4.991204174584746 4.918413278598671 6.502943538066525
Pd 4.723444538808017 4.691568606693828 2.8565988266168816
Pd 5.825815203563459 6.800075815106585 8.166959421740142
Pd 2.619117096914051 3.9849246848227486 7.1008085145815185
Pd 7.467583689725871 10.854389070483194 5.106911479060571
Pd 5.601712065416833 6.508160028423121 4.459903450017515
Pd 6.662721926478835 8.567174313539192 9.895881657208868
Pd 6.367392575228571 8.422654439606383 6.093565204325816
Pd 7.236395040905174 10.178688600736697 7.7811793402996265
Pd 3.2815630035095054 6.063474187583348 8.787549478550243
Pd 5.891327315308848 6.95615442691095 1.8103627699134388
Pd 2.877720881542156 5.447713027295651 4.774555693629665
Pd 4.012334912207191 8.150615714439592 10.40184159847834
Pd 6.5922699411085635 9.052096826598287 3.3300590638721452
Pd 3.8293034422472245 7.432141060258857 6.439035106404952
Pd 4.64143018935143 9.37791822826419 8.20825166499087
Pd 3.468156390146044 7.094987595584069 2.7362652632340625
Pd 1.4176538190736758 6.400784309294224 6.8492868482328895
Pd 4.221396438382845 9.074630734582186 4.3078826669426995
Pd 5.082356296785976 10.86794672784802 6.086301582480038
Pd 2.11444175871446 8.437778778254676 8.47789245521227
Pd 1.7838231968163776 7.917032704445305 4.661910290308102
Pd 2.635518388352777 9.887778887034454 6.346105923914933
