43
Energy = -184.59965579 eV
Pd 6.450339439696513 10.914600297839689 6.453384170876597
Pd 4.150067345155864 10.107629556457443 5.503168451698699
Pd 8.670325128855303 9.707327448322477 8.310718813272963
Pd 6.037101618251249 10.248712220897923 9.0655154089076
Pd 8.644863032809505 9.709023806089142 5.524748260046969
Pd 1.9013847933931733 9.71292709336349 4.229470496787285
Pd 6.3379020305347336 9.081096378613625 4.370964184815857
Pd 3.9329894757216723 8.169482093155844 3.5355634057466183
Pd 10.780961330464278 8.498634818363387 4.615221167876294
Pd 3.9618451783848427 9.082932867683864 7.916501097498983
Pd 8.56114058727322 7.797465883805682 3.4068890007889254
Pd 7.57241660687248 8.735160053303689 10.62880259793762
Pd 6.721896757776707 8.455907773598272 7.235348404016157
Pd 2.1885960878677118 8.050906000168666 6.25483597061478
Pd 8.29232053451312 6.890124038609412 8.930445941325186
Pd 4.7598270344978575 7.348381872706657 5.89075049636752
Pd 9.644277100754575 7.667482484278303 6.86118866209984
Pd 6.1575273038655 6.888588940724718 2.9060952952773205
Pd 1.5075256039052354 7.105992478657968 3.804657055332843
Pd 5.419677529500788 7.549263488821257 9.48838391512403
Pd 7.48460158373814 6.646106903319584 5.480573884264677
Pd 3.4104034387121613 6.398516020113353 8.067135222755457
Pd 6.9045438699279575 6.051168435010086 11.05130253930638
Pd 6.225196936799115 5.72177796461501 7.6066718982183055
Pd 10.084339537645231 5.956615204050477 4.799053074996228
Pd 3.504402365210498 5.580694324359063 2.8882773893663103
Pd 5.355844141901489 5.107662924703433 4.720260885449055
Pd 2.6922321271636664 5.5429572867689565 5.536580891382966
Pd 9.127351066287268 5.051539181515461 7.182333760357275
Pd 7.861357204283276 4.791909968357039 3.5467355628051287
Pd 4.934139463107875 4.787852747868359 9.664940637094363
Pd 7.796491380902971 4.2537125131379145 9.343315000786854
Pd 4.177454280282647 4.028639942631461 7.075836049723483
Pd 5.679423372966793 4.535347406032059 1.8384042645205867
Pd 7.011504783044635 3.6867952796784946 6.136087331396515
Pd 3.5331320873896757 3.2548092980430283 4.489260617164308
Pd 9.527321945025212 3.3997544223411977 5.110343698962404
Pd 8.715156094304067 2.4027611725517106 7.617748831011148
Pd 5.977761769989959 2.6172373795773076 8.455063250930227
Pd 7.791631841843742 1.3519389847244672 5.098149042567223
Pd 5.1495504039008315 1.7357414206766089 5.980370622139507
Pd 6.110133135729589 2.7183109061281483 3.623113204104415
Pd 6.962764133445961 0.4176021491213445 7.422596803950872
