45
Energy = -192.15351642 eV
Pd 6.439852741759901 5.631928665191867 12.078246105658254
Pd 7.498218116681907 7.072907189307173 1.5145385535325446
Pd 4.812575327304351 6.07202740634959 1.5234910625834968
Pd 5.089428474959845 3.574261725107226 0.4579436819376915
Pd 7.2074127203537195 4.514461691029929 1.7561315904331607
Pd 5.551315372239925 8.167922712533878 2.9183340265496165
Pd 9.909305434075725 7.1534308037523715 5.497766716809581
Pd 7.916872338938154 7.9902969934647405 3.9372138117942135
Pd 4.868943888557594 3.8723165008999585 3.105553899592212
Pd 3.013661948671448 7.88889464965611 2.462659762908309
Pd 6.322412527899033 10.05595783854054 4.55711153210986
Pd 10.013080152562747 8.368987738722954 7.879753287690007
Pd 8.924243149372296 5.661621912674827 3.4559618744757965
Pd 7.460300032097974 3.668348697982954 4.192033008388698
Pd 9.247624132171287 4.531616096442183 5.868238075182662
Pd 4.0877706681777015 6.083641764313896 4.050260074623397
Pd 3.8082360037344545 8.732607599058579 4.922042625295442
Pd 6.444798359385089 1.989895441490862 2.231035238064835
Pd 5.556390084646979 9.557988427875415 7.058395345900739
Pd 7.893341163434223 6.383307863963434 7.127118185625489
Pd 8.129679314173087 9.159396418728527 6.27636653807309
Pd 3.488945672205012 3.8485100466859863 5.397419282721132
Pd 5.598753916251203 1.949807609358925 4.739416374150312
Pd 9.4169909089368 9.311688096549155 10.274145971731937
Pd 5.969143866880205 7.378211232399957 5.623762617161728
Pd 7.372307041932527 8.442239550248916 8.706252036143088
Pd 3.360265988735589 6.485156022678891 6.462673041253514
Pd 9.254611209555467 6.646204263360996 9.782750228074395
Pd 5.869130626408133 4.7763435915892005 6.0443917151780155
Pd 10.744079308729305 5.796987422632728 7.698429651103365
Pd 6.9235897252842475 10.490004015982704 10.235104303033072
Pd 3.073653861014253 8.865365720640526 7.529006210018285
Pd 8.674371913336532 4.31996543319805 8.539563222875053
Pd 7.444181290085785 2.663654246841215 6.690166398346754
Pd 4.79252657821386 8.974813324207524 9.516083311786515
Pd 3.544525523885532 4.347238083023162 7.992778079763907
Pd 4.723558658260401 2.1355597744483226 7.148054737977299
Pd 6.91318944273957 5.548129475141815 10.252942176116866
Pd 5.494943538221943 6.536408803065093 8.223578411020872
Pd 7.42004574068519 7.944628715407509 11.307024581584688
Pd 3.0903681621601513 6.706239824883166 9.215144314441002
Pd 6.0981756531469555 3.755863462370211 8.626358470907936
Pd 5.37369625006751 9.434965991707974 12.078246105658252
Pd 4.9020077303331355 7.001074414764447 11.281759774762461
Pd 4.379943958620884 4.627591258614825 10.451150449910337
