49
Energy = -212.07040282 eV
Pd 3.6490712572984476 7.51667471140619 3.387422215388047
Pd 4.44305023572735 10.344877700988334 4.666108424041039
Pd 2.4185319426145147 8.684192657939295 5.37461089994436
Pd 1.6259055461080794 6.252623486726933 4.538913385557221
Pd 5.747481527676292 8.570730671518433 2.2821637534843267
Pd 2.780496530671715 5.537660410019462 1.9255712182217806
Pd 5.7105109711564 5.778502430349747 2.457034394475214
Pd 1.7446787836336162 3.6509669125761413 3.577917122204001
Pd 5.621862561487369 8.124351547082497 4.950874868937576
Pd 4.165214381922693 9.161453573480566 7.2161993793760795
Pd 2.2338723265384024 4.280817952188651 6.149436433219639
Pd 4.155267222458196 6.439767206036893 6.42362639029458
Pd 7.259003846659313 9.98646599454459 3.9270846530963963
Pd 4.046485719286852 4.991538517091682 4.287855746557542
Pd 4.084416089201579 3.2116504930405085 2.241618117446352
Pd 7.836617242863206 7.257147748594832 3.262788726889095
Pd 6.573453787118847 5.7296139529542245 5.155303351421913
Pd 9.794206921170431 9.024734026156372 3.90328555575928
Pd 4.054404390316922 7.233169348812567 9.076882573306063
Pd 3.7683811873943496 2.3139546511078133 4.815475818192986
Pd 9.013548816484846 10.862561140962036 5.738955793585324
Pd 6.319448147687218 7.4223047237849995 7.576615134506731
Pd 1.8107056132277946 6.8126288860389215 7.331241999183227
Pd 6.514109091444572 10.22525904948255 6.544546506344796
Pd 8.158213177162526 8.101773995724004 5.90774970344174
Pd 8.63326952617964 9.740814843568373 8.114449665014384
Pd 6.121762564591964 3.272549717510697 3.9136866496366385
Pd 3.2183884695273623 4.693808475324581 8.551458120597454
Pd 5.165467173911698 3.9621751026564667 6.612788363895278
Pd 8.493966754862166 4.610887285628866 3.7292928482082237
Pd 6.045249774654834 9.523350437368942 9.127221487876058
Pd 5.825801694613433 5.124238638261988 8.884407330990806
Pd 10.644093602222926 8.80523135750882 6.469945999019142
Pd 3.1573675672801693 2.146832761074581 7.37342935748295
Pd 6.4380088941668925 7.173828813620568 10.478108671337953
Pd 9.959266646656406 6.550017134088426 4.892188177448205
Pd 8.586640834109948 7.212374083815548 8.924386188230095
Pd 7.8564477181099885 3.0311236801701225 5.8038196078685
Pd 8.119951213384272 5.332407134891117 7.161330269885277
Pd 5.8094768962119 1.4740071852970005 6.599149298915152
Pd 4.987877338798223 2.608739865255659 9.150045725782904
Pd 10.87556233716184 8.550596031105666 9.138906925249053
Pd 8.306772368870131 9.18049432859772 10.624743360538238
Pd 7.449173926505515 2.947327108365176 8.395725971906993
Pd 8.120967011469471 4.949265978944966 10.15834561777022
Pd 10.238863352562845 4.13546176137424 5.857020546927153
Pd 10.690774722607314 6.331397982854839 7.4948126216773066
Pd 10.620283972927568 5.990066799217449 10.129035402878191
Pd 9.92531636970302 3.898542442507307 8.511609060989398
