49
Energy = -211.59678107 eV
Pd 5.983195517348047 6.569569088435516 0.776823859565748
Pd 3.395149066938366 5.411595168812586 9.788973500783841
Pd 5.562248292373318 3.7924941098941862 0.5348870447244184
Pd 2.847398524105476 3.0849355560764447 1.6134768212778146
Pd 4.88296392118437 1.2059757001011322 1.3056229149987484
Pd 3.5119665925214143 7.677914360296515 1.5180899726343688
Pd 7.106177846062888 4.868801095620317 2.6672651712974713
Pd 1.542089607173522 5.5386313419276245 2.1765409436082095
Pd 7.419610897582823 2.228016172878322 1.7480717207617862
Pd 6.012355721675525 9.145135980439646 1.8846303666246587
Pd 4.231874724419733 5.152153907652842 2.353705294597601
Pd 2.454696306136091 3.869398286691309 4.270539269385861
Pd 5.25999691488896 2.9706566636778584 3.189838412444106
Pd 3.3516718114314945 1.287714453546959 3.6604094475379063
Pd 1.2656899444440142 8.22295821505693 3.0924383297009967
Pd 9.051187438836854 5.215306279027042 4.563602564051229
Pd 6.2511229504721655 0.5607729435241713 3.6764215151304405
Pd 3.8700430979603744 9.327698476341904 3.7004784226582657
Pd 3.0938142141544636 6.720647412239411 4.065341681848768
Pd 8.10861782808407 7.370475442447452 2.853365170631702
Pd 7.7942123683073214 2.8839941552123225 4.32634906631258
Pd 6.802010087734025 9.198301115935486 4.566680670748344
Pd 5.543931232497845 7.132930923677515 3.3966698072099994
Pd 4.930176379639619 4.936462128937815 4.904792843589369
Pd 6.977395784247763 6.51540317268066 5.403540780027263
Pd 7.587262082982673 0.882944117113374 6.120506172248894
Pd 9.172497868544175 7.925109533761305 5.348529913548602
Pd 0.7108429479613969 6.015173277131262 4.874706843347024
Pd 5.403459349755837 2.221812576980781 5.692449868899937
Pd 4.77133974846277 8.103336019700672 5.987670636427344
Pd 2.011690900569769 8.469058245827384 5.763028790393785
Pd 1.3340978228009113 4.142284080203652 6.77718463678578
Pd 4.477164567769902 9.671336706394872 5.683639863351172
Pd 3.104440673854029 6.006555510554573 6.494785598641254
Pd 9.140847961806728 3.181047621104072 6.625931984634431
Pd 2.685654833870323 1.9298549313647348 6.161885526499893
Pd 4.2657216270602 3.857735785410369 7.331613942289148
Pd 6.8142409551151975 4.256281907644919 6.6227264333677605
Pd 7.181646164429069 8.351087119022479 7.255984365245475
Pd 8.797602312460763 5.980144244376216 7.272903354230001
Pd 0.8769683276660363 6.743897642844755 7.623786683280819
Pd 6.9825534121003034 2.3243643127107076 8.301739317415107
Pd 4.570123946568929 1.236050248773654 8.088885209072348
Pd 3.2416436464700156 8.05462505839234 8.211804142437622
Pd 2.4046592027392784 2.7628116965336864 8.851963150953408
Pd 5.433469188526307 6.34217767656271 7.953450706138384
Pd 7.215024891060309 4.855655654723964 9.189120341935178
Pd 2.9554576187397648 5.449346952477098 9.086568465636033
Pd 4.9178033653356135 3.4977619689745505 9.788973500783841
