48
Energy = -208.16863158 eV
Pd 10.127845875387251 10.20876187509349 6.679577253481974
Pd 8.42282486394939 9.216328574611781 8.40186295978963
Pd 7.093017661783089 8.561319078184907 10.535808926317369
Pd 8.937350337441693 6.856199186300293 9.456338575455334
Pd 6.088647628110492 10.520855508851563 8.957078287182139
Pd 10.550665396502495 7.683846316852157 7.452639578264921
Pd 7.660770186722479 11.281685076433844 6.813435515077441
Pd 4.574402485910034 8.288304931243662 9.447417731993527
Pd 3.8120700339713225 9.91687117595483 7.400584463931275
Pd 6.37820680926589 6.014882426439132 10.70862708571035
Pd 5.159807261304794 12.100288967353249 6.982294538012661
Pd 10.47638603038874 5.102906796636156 8.061425622242853
Pd 8.215947144505169 7.571253877257579 6.197527548366135
Pd 10.758949564285604 8.37750818076494 4.860868896977965
Pd 5.778702969376249 10.765460350497785 4.7750002310982715
Pd 8.444907940437048 4.3210338452737105 9.886068338118656
Pd 6.460637862784744 6.961428936105593 8.30555588114455
Pd 10.09253416056395 5.814861741341606 5.406077535868088
Pd 8.007262156803451 5.121390933797523 7.33734328915754
Pd 4.143661049034094 5.655706131619655 9.128756035350287
Pd 6.138537695400267 9.047430661618831 6.705315743206422
Pd 8.381440818023151 9.768900776390776 4.694328736235116
Pd 5.963155041188231 3.654604823690837 9.650179950456621
Pd 2.9829556670296697 7.4465377613138015 7.447101817337333
Pd 8.04231376206145 2.572915120818468 7.827242631138584
Pd 8.826443895159096 7.38259824723185 3.4407728023027606
Pd 5.543309676041317 4.290287235229814 7.167108243070622
Pd 5.047022744489158 6.715071315851049 6.082730659965839
Pd 6.370439752792254 8.20641694803299 4.024006396963717
Pd 7.128596180547535 5.539484336298924 4.85750319434071
Pd 8.847165778708977 3.4504139362463975 5.368027461743247
Pd 3.871952673645025 8.847091054053452 4.917492788202079
Pd 3.5108277776306096 3.0428901610587324 8.86873362613764
Pd 2.8444655236351437 4.8119111745959 6.9482308211778845
Pd 9.15829592469492 4.7886371934149174 3.069310364764514
Pd 5.562601662074101 1.5380924824632791 8.089604877757203
Pd 6.421515255975666 2.2951427343538757 5.676494421285649
Pd 2.4417866541542392 6.5153706041731105 4.961280252458611
Pd 6.812897785393415 6.010942182991379 2.302361181381894
Pd 4.689532568930023 4.505447383376245 4.638783331076468
Pd 4.398070185826425 6.7713050040666065 3.1864020365226486
Pd 3.724658530526401 2.30232856752396 6.277720733439207
Pd 6.960161237715261 3.29675015254587 3.2853521725636115
Pd 2.2308836153665927 3.7369586788374236 4.593523551583512
Pd 4.606229114630083 2.029665524656863 3.74348319901274
Pd 4.758277341345385 4.306572637735259 2.0255217924815443
Pd 2.285519134120889 5.369723539062311 2.500749073337421
Pd 2.5990327396131194 2.7483020070004134 2.1890360017608805
