47
Energy = -202.68751044 eV
Pd 7.105964003089114 9.935830408968929 5.35014195102236
Pd 4.789697901127653 10.711346920353959 6.383276828422482
Pd 2.585201298194113 10.506171182945327 4.969654058469545
Pd 6.995636091835017 10.850066153336039 7.839860751653577
Pd 9.225771835688127 9.35139725573098 7.24993236892556
Pd 4.969806433923307 10.175217917965133 3.656552231366143
Pd 9.39428551661894 9.016960095926578 4.567290421080916
Pd 2.7964522916474266 8.815875277351573 7.029525719565002
Pd 7.135964577673635 8.507246953106431 3.087640535759354
Pd 7.030754309866068 7.893961464590775 7.0203471828689565
Pd 4.750491035736662 8.156115377251787 1.946620771884579
Pd 7.6318406832550165 8.914405066155995 9.460990550156229
Pd 9.186839784720338 6.695885556057579 3.439465287149331
Pd 2.702378218264655 8.258309535186214 3.583243986896424
Pd 6.763172197066954 6.450755691578505 4.786791466119036
Pd 4.795424104235668 8.219949696750513 5.354066761604214
Pd 0.805483844106979 8.499348147768417 5.346983222607318
Pd 8.452117203180693 7.055411879927779 1.0255765287220073
Pd 3.275556725374075 7.149503421795122 9.029408392520503
Pd 9.262952252465315 6.821733067359048 6.094152607893652
Pd 5.082806613025178 8.995292678347171 8.413989252641452
Pd 4.291598173194467 6.128913006342895 3.690016910041693
Pd 6.305910933503385 6.0766754529803775 1.998315748758355
Pd 8.345182530165333 4.456741525546484 2.221739090592813
Pd 9.465921633662541 7.0346186359684095 8.77088534052099
Pd 5.600414685539659 7.331507564398416 10.428704032464752
Pd 4.887077693693733 6.2713155458570915 7.105493390927986
Pd 6.009101612965745 4.0533809739271485 3.670415607866978
Pd 8.221292679440968 7.042354619903415 11.209608331527495
Pd 8.77296102169959 4.514277256481433 4.862498327657006
Pd 7.0428249166468415 5.978334963988799 8.762264296038817
Pd 9.105232773219255 4.628475733891486 7.5165804933764555
Pd 4.034807175081824 4.190825716173757 5.450741958788836
Pd 2.513229117643146 6.473769837793631 5.695510094996484
Pd 6.583859482297107 4.2640865285412435 6.526810672831717
Pd 2.674790530526177 4.777160877561241 7.730046085228924
Pd 9.009400413168382 4.679385766371312 10.197037848451817
Pd 4.639104553720175 4.890441528646054 9.504679984222111
Pd 7.897240407649603 2.2129094361921795 3.726493727638827
Pd 6.5308678934619815 4.972230161841415 11.376425278352107
Pd 4.607626208959734 2.8602556267788564 7.72012044628237
Pd 5.636146365825146 2.0074607525341563 5.341375805659146
Pd 9.082291475329367 2.2819049753239136 8.85277586466019
Pd 8.53057842457992 2.3283093903437138 6.299801603989089
Pd 6.779196036916118 3.3219947019314007 9.251456038050616
Pd 6.675643345842403 1.1503543578700173 7.73448731281094
Pd 7.477736618626521 0.1305956211387656 5.354011595748634
