42
Energy = -179.85203781 eV
Pd 6.599591644378893 9.041381409547908 2.8888338985882065
Pd 7.951206721915988 6.5075681541309764 2.154416672106393
Pd 9.026105669316875 8.57716652625127 3.785341121971925
Pd 2.503288504465422 7.055085786790409 3.1102371866470864
Pd 5.099995509203471 6.859917548514865 2.2423162259384695
Pd 3.534720308489346 4.604113882287301 2.4894057658356488
Pd 6.911016163041258 9.245442711971448 5.622062585538346
Pd 4.476016409814042 8.598184941541211 4.521270553110551
Pd 10.321463987165068 6.2323920771399255 3.5797640982141172
Pd 9.495816611354014 9.702504600612567 6.214288448927381
Pd 8.446228913281862 4.584502374287659 4.0600040830400115
Pd 1.951182546897624 7.269897600309397 5.678165991041985
Pd 11.335724853877732 8.107265127229415 5.199117569423164
Pd 6.7457955102145695 6.84224220358158 4.390008432784018
Pd 1.9672166368935273 4.749555637691725 4.690991681393704
Pd 8.763913009979483 6.92923336578556 5.866049069621072
Pd 6.069276152569676 4.447096029538035 3.143645448964887
Pd 3.63109374451251 8.695037864536317 7.015512405965199
Pd 4.334502235657162 6.012698518775243 4.744605810237946
Pd 4.294927385854742 3.3424272383170206 4.8435850356800145
Pd 11.001041375921282 5.533183602068786 6.055766787062278
Pd 5.800267088196182 7.2255941377017505 7.069486935174153
Pd 3.5946253858387114 5.552451893850099 7.107364596908697
Pd 10.510443576917318 7.622969722871244 7.73480934643962
Pd 6.343717835565432 4.817972104030189 6.136327132964867
Pd 9.050044725468178 3.865506679940563 6.433447330694082
Pd 6.9629284785678855 2.5793939625699442 5.078956921303797
Pd 7.990094310875167 8.647810564858629 8.07820887332207
Pd 5.507413624262349 9.334512781494281 8.728989526916717
Pd 0.7698132029602672 5.18985219389733 7.109736689824906
Pd 1.6644416091312848 7.374908360699493 8.29854532991236
Pd 7.941689324462437 5.865806756680895 8.01482508441837
Pd 2.468795448938885 3.179293724399289 6.852877986486528
Pd 5.003173919003969 2.848867911318778 7.360963092610328
Pd 10.254233830449053 4.92556419227579 8.604230450064968
Pd 4.043786062884408 7.179192112924653 9.353989440048176
Pd 9.25407488565346 7.124112125275779 10.00871467219626
Pd 2.52698801974916 4.932117378121777 9.324602410603575
Pd 7.397774825160918 3.1718011590290534 8.31843765682507
Pd 6.580340220521054 7.241652518918625 9.963859684953668
Pd 5.454490159852716 4.934343709671727 8.961695329050857
Pd 7.812854242835912 4.846292863197381 10.435576786041759
