41
Energy = -175.82804907 eV
Pd 3.8904352789291297 6.456515764124685 2.189369762335558
Pd 2.622484870283251 7.020635760001992 4.355688575543805
Pd 6.206123726805479 7.481419389613724 1.3450548450602862
Pd 5.519023652689279 4.457263622068817 2.6466888632415504
Pd 7.8686779691636595 5.559962012839739 2.206725296432083
Pd 4.677898595160078 8.91672188285908 3.078126601362747
Pd 3.118338938544548 4.365769250642577 3.871167425462527
Pd 2.621225780666774 9.659267869184411 4.702646335727344
Pd 5.02197432415218 10.734151268648155 5.142342055501527
Pd 2.0109789956712834 5.341608014821646 6.401819018761487
Pd 6.114033179431557 6.728042575440301 3.879928688065175
Pd 1.5303450220209067 8.026415805671494 6.525741741608843
Pd 8.474146622643682 8.092857844157718 2.615700810814201
Pd 5.236141750700115 2.6786017034533476 4.484541759795186
Pd 3.20593454375652 2.9217574949102985 6.259648870433861
Pd 7.711580899493219 2.965930346608037 3.292989092379262
Pd 4.581142068430647 5.423102599855779 5.739480571879059
Pd 7.0893110478143235 9.084481190679483 4.54199083017474
Pd 3.612420965540438 9.780874750997329 7.356675509388632
Pd 9.975198170099882 4.47151657771561 3.2258473500630966
Pd 4.628148017097803 8.098871172041177 5.673958422846267
Pd 8.9862170895591 6.501875241025345 4.671130959098791
Pd 5.686674314848623 3.4898280229094976 7.103049706772402
Pd 3.552082375566481 7.052533208847381 7.861298067494564
Pd 5.002432450206702 0.8470031276182924 6.351690202708422
Pd 7.141940925175712 4.62402242432878 5.1751579589805585
Pd 6.435045028618766 9.543892596398699 7.126699180702183
Pd 4.081631813100902 1.8728703720113153 8.675620850208265
Pd 8.90703535634159 8.516016146234907 6.417053785218036
Pd 6.777889094203249 6.882329485417177 6.507746689822791
Pd 7.510234317826724 1.897944285586104 5.818434934160555
Pd 3.578177922216106 4.48869463864808 8.478766467360298
Pd 9.520576905417004 3.764392691479202 5.6871963520411155
Pd 5.74088485485755 6.000940954455356 8.808356805305637
Pd 6.72900993996817 1.2732617776191504 8.371439894162249
Pd 5.988649789866279 3.5318899347484347 9.73569073606208
Pd 9.053793317679702 5.875764239159161 7.318817898218711
Pd 5.1524546029355 8.592689344482904 9.248774896143736
Pd 8.15102592338498 3.48677950672595 7.9436127903516685
Pd 7.7273690442494125 7.826878383433849 8.816439132148375
Pd 8.065733967023688 5.345519153648932 9.794621576499686
