49
Energy = -213.35134893 eV
Pd 9.464391572856039 4.5239201151876705 3.0518533198141604
Pd 8.205703648342316 6.740065780357564 1.986612313124726
Pd 8.804016359882551 9.102764245236813 3.269637953670035
Pd 9.780095428974793 2.9716926305459612 5.530335140318193
Pd 9.067403014271019 6.738607120097169 4.5962120521190215
Pd 8.1797081567366 2.077777322109816 3.4342492754790452
Pd 6.872685967413982 4.1868649072950195 2.209380680800071
Pd 8.657438494142143 10.442230459144232 5.808853263552911
Pd 5.573893526902017 6.3547638544780805 1.122588850228181
Pd 6.195281382047395 8.716741548150399 2.4021214897261114
Pd 6.843509678834125 11.006939100902057 3.782992049430316
Pd 9.34088403068402 5.291136425054912 6.91015977846103
Pd 7.65352216264769 4.271272213816886 4.871620112849166
Pd 8.930252354448251 8.008542010549789 7.011252321972374
Pd 6.305392695282513 6.347503836586617 3.6901843571352497
Pd 6.980121269051222 8.645150822721716 5.039906099143095
Pd 8.927397505702649 2.8494806637060712 8.138219394251637
Pd 7.328050348262834 1.7813061892209434 6.03733148159874
Pd 9.567125773407206 5.073792838049128 9.626378175584339
Pd 5.580727943958479 2.538139391059448 4.017426764595029
Pd 9.134921655510094 8.046980193885078 9.731037592821195
Pd 6.91615577512244 6.347671871705121 6.234593459158727
Pd 7.854613089391383 10.103115503001211 8.414700608342919
Pd 4.22673913964495 4.695964813351513 2.817714773985105
Pd 6.071844916847376 8.404362395904439 7.613957438565211
Pd 6.7372099675398385 4.03099191940793 7.432981500479412
Pd 3.8205118352610516 7.402484619371331 2.9360666260552923
Pd 4.977384464009143 4.70373786215707 5.436192445667854
Pd 6.455011708717066 1.6624695537488943 8.646989724976
Pd 4.690393660803992 2.2877775078351097 6.660277698327036
Pd 7.480391809135866 6.322114555280786 8.76272426862854
Pd 3.0053634931889976 3.0657952009867953 4.6356362568915435
Pd 4.486093045564404 9.775035455927647 4.31143163255409
Pd 7.113723726197114 3.917197838882379 10.098194989863137
Pd 4.57246822227449 7.408377758952831 5.536081714293321
Pd 5.980747136795672 10.829420789066342 6.39766658486724
Pd 5.1515812535548555 10.480648845337534 9.0131313050999
Pd 2.49702180284362 5.7394109282992085 4.731588531813295
Pd 7.793635217457533 6.270960860584687 11.404786050043246
Pd 4.869954210263674 5.974042815792787 7.894937342450486
Pd 4.550843428656624 3.560187127926678 9.106048923578264
Pd 2.7976588691740716 4.287388495175053 7.072198579278323
Pd 2.189945197039156 8.43789790645318 4.859927637150843
Pd 6.462375424522264 8.407265513149902 10.273396479365703
Pd 5.257502823941126 5.9235077580111035 10.499763356777406
Pd 3.6036110751369357 9.530887459749819 6.963385434152742
Pd 2.398317975188409 7.033774665949573 7.18688391817996
Pd 3.876917933949044 8.08432295133441 9.304985951590897
Pd 2.761162218267334 5.589217748347319 9.477106691033928
