48
Energy = -207.7911473 eV
Pd 9.601685172616499 5.213132203867834 3.46158261320531
Pd 10.180365000819823 4.590129841275105 5.97824808142105
Pd 7.741566376955361 3.6207652729713735 2.3325238401321373
Pd 8.82313646741188 2.758150365242149 4.657831537803047
Pd 10.732048418489017 7.13570764226112 5.150297122500557
Pd 9.38376542052931 9.594367004817194 5.133892714895887
Pd 9.366238339965378 4.644888932318334 8.597656429998601
Pd 8.874356255608294 7.772505195650556 3.275684842198161
Pd 10.606778619526203 8.818395833254467 7.345031875846688
Pd 6.221615832818937 2.9966102161498576 4.2971362457599955
Pd 7.362530768563718 2.9023264331444003 8.879954610037755
Pd 7.4453799614156475 4.2909145140560385 6.561403319683448
Pd 9.419826210150909 2.3208486740361374 7.232571333736524
Pd 4.709199945200349 7.1333424085217665 4.596495742915834
Pd 5.4251329603156195 5.237690143760436 2.556291099810294
Pd 8.975387038852613 7.330965843394995 9.119321009925647
Pd 7.203361605865914 5.713711540408425 4.398674479102975
Pd 7.119764910470862 11.017380430917868 5.673887594347749
Pd 7.025062901209583 8.305754143256998 5.114066306512681
Pd 6.885726584272942 1.6579981973329525 6.494814747701095
Pd 7.795017773085609 6.1301170372697245 1.5542220267420126
Pd 11.230383793169407 6.2950256337512105 7.739903081015839
Pd 8.618607233844621 6.738401723762667 6.590357106719301
Pd 7.59480010571999 10.13404462296594 3.1494338199020735
Pd 8.007527482653707 9.241940519627148 7.517309428459504
Pd 4.952947405947016 1.7262470792113729 8.51964361318403
Pd 6.976744804977335 5.542228179992656 9.245374099176997
Pd 4.386851143707331 4.5970575287494855 4.9480644851087785
Pd 4.266107513513668 2.0984539015299077 5.93991096485189
Pd 5.036450357217857 4.167815666673229 7.532588754251153
Pd 5.041078260666883 9.892558657351733 4.209384885169731
Pd 5.265612706627499 3.6965801721109486 10.33919438062701
Pd 6.112602199308837 7.952871398215319 2.5110312504302574
Pd 2.3430102614784327 3.9061217246629076 6.493479409593518
Pd 6.254820373770449 8.096176223034485 9.25111596364949
Pd 5.94611031819982 6.630079652056629 6.956852524643307
Pd 2.94092465402095 3.5845910743711578 9.040257503222707
Pd 2.9788906979156504 8.425981218775101 3.1781631025440946
Pd 2.2527532341229444 5.947242963321347 4.291056885476291
Pd 3.271038803970134 6.430641912651741 6.772229906297199
Pd 4.397937238930326 6.051770281957717 9.41989717948741
Pd 5.432777761494555 9.43053359564306 6.992028287762252
Pd 3.0985959639995904 8.984055789980937 5.860398512094889
Pd 1.787905129791219 5.947950927963177 8.895664667294758
Pd 0.5761354650294237 5.877164368528228 6.466923697483319
Pd 3.629992234003797 8.40018646157121 8.5552666473459
Pd 0.8520060270512736 8.0618148015058 4.858180716796131
Pd 1.1534170867139935 8.223683814705343 7.580553256138384
