47
Energy = -201.96723592 eV
Pd 9.433253815389847 8.192044615606926 10.557423074376715
Pd 7.202092744208245 6.767085331950549 11.306046898518034
Pd 9.119306764528458 10.263426582816038 8.843569664312376
Pd 4.852969018006959 7.458279037477502 10.246843948149554
Pd 8.875695077395564 5.878766685602314 9.415902089545911
Pd 7.167495726481932 8.324223366207844 8.988149409961292
Pd 7.549955904935868 4.045808883512251 10.79580605317935
Pd 4.683473766691359 9.676629795271614 8.94139700653001
Pd 11.394444254887983 6.515529343059424 9.277153099525254
Pd 6.767211132842765 11.052203611667208 8.181213942461518
Pd 5.128131172256358 5.0056056869056755 11.327907697242907
Pd 2.8326615870984884 7.714455622019325 8.58124869075874
Pd 7.637360595137105 6.366104122347749 6.743539778727946
Pd 6.303871064664448 5.667725242997578 8.850491045906692
Pd 9.749299392650894 7.929281243132411 7.856098236645911
Pd 3.6899675195882042 5.2338415693212506 9.109776522300923
Pd 10.205987487134164 5.393926010995853 7.0732845944777045
Pd 8.186205964534782 3.675176952996244 8.233646596036378
Pd 5.540095785057766 3.1674613209133766 9.124109990433272
Pd 5.184555129436408 7.579287505422393 7.264982893375573
Pd 7.940199625899068 9.30559300239461 6.492610448466522
Pd 2.807222132375901 9.87750469857411 6.973012941413258
Pd 4.329833446165742 11.93616571531867 7.639804659688115
Pd 5.361015462324967 10.119025546415603 6.069432292239292
Pd 3.6680563632787124 3.317221970276376 7.212192331693372
Pd 1.3981712194263491 7.756524834787644 6.269824968875635
Pd 9.601015078222742 7.526542483622735 5.296834444286058
Pd 6.188107259775114 3.6609791696863105 6.534128582007429
Pd 8.744704680331553 3.607748988896253 5.709846105768888
Pd 6.376086240401638 8.158818403079136 4.694128537590421
Pd 3.6971983516339395 8.215575510523163 5.092607858728041
Pd 3.086091835694359 5.822692468272313 6.6434054861834655
Pd 10.58496131599524 5.169672599064182 4.406593181123441
Pd 5.366670046498408 5.82367727469885 5.2083767336328926
Pd 7.91147032359732 5.647902697332683 4.2146402559342
Pd 8.51228304525771 9.29881174086873 3.670278584547022
Pd 1.8201691378108642 3.9538052749968244 5.375007415267605
Pd 4.272212120502481 3.484106268735022 4.560999344518802
Pd 9.701406193920088 7.127090931491981 2.6644691191872143
Pd 6.7639657865425855 3.2534034618050174 3.8611072461900786
Pd 9.328430386566561 3.0489548161775186 3.199373663010916
Pd 4.560869253679181 7.7104367207717 2.683909187091708
Pd 7.123147085550963 7.3307399872202375 2.279477788293312
Pd 3.005338846128307 5.869504655380436 3.8853917177583046
Pd 10.5877244354465 4.861452327422466 1.7359244188295708
Pd 5.401714689894595 5.182180219056138 2.6125243794906194
Pd 7.93936797919537 4.817621330320801 1.751288099986114
