49
Energy = -213.29207471 eV
Pd 11.130610889313935 6.473343156997266 7.613639402489256
Pd 10.438665364046198 6.601666142367251 5.107204223928996
Pd 10.766669563381248 8.899758158592995 6.309885209791347
Pd 10.313321996895871 3.932865293045358 7.88484273016616
Pd 9.487931143069657 8.146749309328785 3.1373312499173207
Pd 9.820954227795136 4.062918550123763 5.252964550427861
Pd 9.511435134014606 10.477204093191993 4.486476206838052
Pd 9.162349641911891 8.112656213654796 8.270101925679818
Pd 9.372695850633884 5.821511085694087 9.588442210212445
Pd 8.384668265731833 2.4347244520182567 6.775341027056618
Pd 8.43186049989704 5.639369625474622 6.898159979469235
Pd 8.599561587073769 5.607110123017878 3.4503736828743286
Pd 8.625861967520258 10.41288196215022 6.996415154109083
Pd 7.86925355534859 3.7053583592577026 8.97472659951587
Pd 8.235011209631734 8.154090969881715 5.439282701533604
Pd 7.338771709645607 3.488570398944845 4.517055453364894
Pd 7.609244909350397 10.03279997537641 2.596666841785005
Pd 6.500280875106002 1.1648719508044556 5.493238358225962
Pd 7.715445463110137 10.111696175539514 9.460861085521593
Pd 7.482348727925462 7.591724682572994 10.292624412905475
Pd 7.31371113809525 5.12127391084925 11.194509286936063
Pd 6.599100719285483 8.230480758369527 7.554364239687746
Pd 6.3344370236066565 5.93247486539903 8.541303296946456
Pd 6.895063957088383 10.786303785613045 4.973493187824563
Pd 5.385753022980077 3.7688181545969486 9.90965140107307
Pd 5.621730100892206 8.530192575039877 5.187861233247111
Pd 6.588202742207902 6.034375005487199 5.091647799771441
Pd 5.800330632223427 4.075826940949931 6.802558697955174
Pd 6.096857427135045 1.8190324338466832 8.098577985584168
Pd 4.890212556779462 9.544528333649131 2.9535911623872604
Pd 6.092439721748609 4.950605754732871 2.5442099808972594
Pd 4.987858105473225 6.49775180564027 10.730836618355653
Pd 6.857890650724202 7.545037932718787 2.7940780570771446
Pd 5.302635846565876 2.3472307034554953 3.3418646173503164
Pd 5.936843099777419 10.776276900892853 7.528240851850228
Pd 2.947182991001987 7.7614050592182915 9.518615523940573
Pd 4.385323226759218 6.485008113180251 6.3486686218081125
Pd 4.132074349161418 2.2339943262522786 5.7873305693805355
Pd 5.262865406644789 9.05401914479439 9.68106775917713
Pd 4.343935661892705 6.89250428008974 3.351560462377467
Pd 3.599717243981628 5.366340788670326 8.687647254344308
Pd 4.269234054585431 10.8325766617699 5.3966813603146875
Pd 3.577735944110562 2.7281312060005334 8.306099083234493
Pd 1.9601868508100462 7.017482339473772 7.090003524953761
Pd 2.893533655437226 8.576101505619974 4.867245083616631
Pd 3.8544508185895263 8.987804837319631 7.371746339327193
Pd 4.2891252034773855 4.49710741413163 4.429984475271153
Pd 2.5650612512632143 4.3313301609874895 6.477713562187687
Pd 2.086889261393973 6.071438868311484 4.560540202404834
