43
Energy = -184.64154246 eV
Pd 10.523352801895728 7.845083517860048 5.5872333591577235
Pd 11.60678865687382 5.990035760037483 7.104548987949983
Pd 11.085233556317641 10.27318837011689 6.461748806719951
Pd 10.486152571277257 8.271221272363583 8.184472859913406
Pd 10.289204956619033 3.6152791337625527 7.26041749926257
Pd 9.60374815224996 5.36938617465717 5.3791055282578855
Pd 8.580378437324923 7.313901963562657 3.875932018622097
Pd 9.253510628358411 9.915158003693788 4.574753759745332
Pd 8.510561729529686 2.892966419384017 5.4008554649310225
Pd 8.0042920371345 7.463886779717768 6.585167730592626
Pd 8.557957353997207 9.990074222339405 7.197950711055675
Pd 9.26220450727831 5.868708863815492 8.332799263012761
Pd 8.045456209365991 8.133227739760365 9.161846124757858
Pd 8.024284937851311 3.4788711713833895 8.571202066453143
Pd 7.61168725476434 4.802968884893379 3.651608210888547
Pd 7.162394707111408 4.871898488545408 6.476686421635617
Pd 7.464400646849028 9.375995998533746 2.6434683995151316
Pd 6.008638424732449 6.731631822674966 4.765274443147346
Pd 6.607741304155698 6.795919880577136 2.1757850894923507
Pd 6.72108668637316 9.41980784029977 5.223373242932052
Pd 5.926693592353303 2.9956589340698376 4.685610864432484
Pd 6.626569249025716 1.867787125009681 6.995768705642718
Pd 4.070291176258334 6.915787382363626 1.5465406981921268
Pd 4.970674956202497 8.75573143488666 3.2680950478192177
Pd 6.8412156907497295 5.71218254798614 9.470221576215021
Pd 5.995786348731256 9.315986828664238 7.795559871466572
Pd 5.434816651768652 6.704280469620869 7.449080049516481
Pd 5.387356447059322 3.8201540245767447 8.24601905878458
Pd 4.2392263943870585 8.655317745645682 5.883772580601856
Pd 4.0063653928468685 2.182897431066433 6.618165830082598
Pd 3.333275494304413 2.8927037000207574 4.083553471860208
Pd 4.335578374687484 4.819079835218504 5.781659495622001
Pd 4.881606737270921 4.815118397129429 3.0051959672407413
Pd 5.591711645733508 7.940886780140225 10.138491743961678
Pd 3.2995556036948153 6.880431358202743 4.040854309325216
Pd 4.13769631313834 5.731510585661646 9.626392503270258
Pd 3.5095722869538744 8.274448871770325 8.47889463436906
Pd 2.756021443921043 4.217058922477716 7.9155951351837945
Pd 2.569948949722213 6.6801584132829825 6.554601295036712
Pd 1.4869752149716426 2.7500656579681912 6.056317672556406
Pd 1.7597484338523097 4.926751252052241 4.654164082645158
Pd 1.660845616955456 6.414578012770582 9.023696649813186
Pd 0.4245345552312482 5.098353014916583 6.966529826277094
