42
Energy = -179.45552926 eV
Pd 10.733980937602643 5.288745562873784 4.141899880913304
Pd 9.00211634606528 7.133945036187893 3.3928387313308574
Pd 7.222532488824048 8.957073823017211 2.6205503052002896
Pd 9.316037820773136 3.1889723909903975 5.2778338207511055
Pd 9.020234864271702 9.755676017181381 4.429168441214046
Pd 10.835653921728895 7.726588815789729 5.3058029783656195
Pd 8.525008410580863 4.517197567979703 2.9005691612649436
Pd 6.569263965237917 6.402599985066166 2.693981449627123
Pd 4.6299809776775 8.297576978759476 3.10444352883754
Pd 4.0305494553245715 5.820187623560354 2.191125037453625
Pd 6.182739195790178 3.9618653088677673 1.788932740941268
Pd 10.632169775358745 9.993644965879154 6.569708390022125
Pd 7.01064121311629 2.603501994349415 4.112295920290295
Pd 9.75048411899684 5.517400090769371 6.521417058725494
Pd 6.267833952893594 9.7548357588576 4.930675626806984
Pd 8.135285468516283 7.737310270834211 5.792134155111599
Pd 7.951071246837997 3.7005794933223504 7.582094248764342
Pd 5.655167809591472 7.0766959933174 5.1844050098818775
Pd 8.05603574316965 10.01390056354835 7.066287753149188
Pd 7.4340994239337785 5.1186187131347465 5.231440201157238
Pd 9.844207924774727 7.84396593297422 7.919415982330887
Pd 5.090527227455024 4.452514082788851 4.1206825633301385
Pd 9.391117597101537 5.512228641199803 9.091466983710685
Pd 7.59643844276176 8.444366631765368 9.214900509462339
Pd 7.163206322259487 6.266039280523609 7.736917729004599
Pd 5.728467591876493 8.703487307675472 7.337428659338894
Pd 5.6944576767151975 3.0670903158044327 6.377414249678569
Pd 3.699998163879118 8.973701879127962 5.4949536089877435
Pd 7.319711130977366 6.000800203183425 10.53332963143637
Pd 4.681069232587528 5.453033079363902 6.9712452255958945
Pd 3.135005088816322 3.4844911695544885 5.4628657852959845
Pd 3.1389824973157556 6.232564066008896 4.703923901244974
Pd 3.356164344419437 7.622697307112729 7.749117692758697
Pd 5.22845832061994 7.217154615177148 9.48708864349765
Pd 5.842209820241012 4.2712245073634465 9.137288173496273
Pd 4.9138682727911025 5.472980728365135 11.485568912113374
Pd 3.5487337484133197 3.203166330175474 8.032631591799504
Pd 1.9355519190331176 5.20921997410461 7.008978572659805
Pd 1.378517529575629 7.6945241636423 6.047874452033037
Pd 3.1265746003993238 5.5328364606021 9.482236548335075
Pd 0.9839321630335104 6.997033575083621 8.630128742268077
Pd 3.846846322191211 3.2289116525335 10.606229754724783
