42
Energy = -179.2192847 eV
Pd 2.8886643275565294 10.257599610277376 5.715777938225709
Pd 3.456952543148761 7.927805889307832 8.968475851758788
Pd 1.6359652637983884 8.342455214420664 7.036002408544436
Pd 4.969688412917252 5.704676027723833 9.143758022520494
Pd 6.606979854617003 4.53049098550343 10.933999489812134
Pd 2.701662985405679 5.892120140596268 7.510563900118521
Pd 0.8574175724307952 6.263068787924533 5.530241237041939
Pd 3.8077707074745355 3.5018037758847345 7.874166548935568
Pd 4.425294030038969 10.11433777328804 7.892441678680764
Pd 4.132912367589753 9.89345435275773 3.3637402082038452
Pd 7.062348295436149 10.322741632274248 7.734098446410036
Pd 7.658712751250074 6.638381181718519 9.743950842947948
Pd 1.8502144641214344 3.8085852920557097 6.092686379227228
Pd 6.037707519962818 7.864876166441259 8.01940401183986
Pd 4.128419413378298 7.808966608275407 6.191310350209129
Pd 2.3407294868751314 8.071858890473655 4.234554981749948
Pd 6.325368978171785 3.5033008713191496 8.550854167300797
Pd 5.267330724009835 5.362507795025119 6.473282435647497
Pd 3.2583926277667903 5.532788812294689 4.6170902310600646
Pd 4.255802852262228 3.081276401168124 5.248106689492027
Pd 8.675750172099145 8.26019680203458 7.8304949785918945
Pd 7.760642605789244 5.57819705997443 7.293433676855924
Pd 5.625565942718985 9.918928614203644 5.544656870759013
Pd 4.881581809814947 7.385547959992343 3.577248412935904
Pd 5.4630800498065275 1.4704361786337465 7.12412731181673
Pd 8.343577497460265 2.048316581073651 7.5861442869946245
Pd 8.329424201309353 9.572302772120644 5.530221421702585
Pd 6.900150734866922 7.333635999908437 5.446971314557109
Pd 8.73372160863346 4.080858715983981 9.44373223059135
Pd 5.770790903944236 4.888309200247345 3.8481477549911367
Pd 10.100662513830862 6.267693207612442 8.649246052992396
Pd 6.787189112158675 9.381030054639387 3.2472925689551055
Pd 6.839909881519497 3.2243827910151914 5.777416448349629
Pd 9.966529957640539 4.1217856381773075 7.087763288995924
Pd 9.34653729597759 8.631599897936182 3.345994319825211
Pd 7.4009256360634454 6.789008332387404 2.9030252019488287
Pd 9.694072106492184 7.083999837661927 5.630149868974776
Pd 8.326744732410015 4.971221327575971 4.621344412229446
Pd 11.867022344658489 6.071656843908008 6.7585341842954865
Pd 9.333320420862472 2.567128463714486 5.053635510211073
Pd 9.991815615930852 6.1612280243361335 2.937989692201565
Pd 11.05906225556636 4.641911172542853 4.727215829425493
