45
Energy = -193.94178621 eV
Pd 7.4956062601802635 7.166029199278669 2.1518859891325652
Pd 8.724431989137402 9.620575815578194 2.7724380745240698
Pd 6.179310351171558 9.590196483601742 2.1160208688419266
Pd 8.517547453193629 5.088893197320439 3.4287220323982015
Pd 9.742653963543887 7.444808198672527 3.7446091120950236
Pd 4.859697821675123 7.420285936681702 2.703753527570141
Pd 6.0069998756958505 4.9309243712191995 2.793355276558639
Pd 6.857204953295978 2.477351039898107 3.727460139372563
Pd 9.584805524405349 2.9393236551825828 4.322682341452055
Pd 3.3225107434246457 5.337631280889828 2.9104976397133475
Pd 10.719375478624585 5.338320937275693 5.111456390923805
Pd 6.8963224304485555 8.061187768359062 4.509150173448333
Pd 8.928157498708067 9.50135916113946 5.47191786141033
Pd 6.991106923794843 10.958781527954088 4.33281608756308
Pd 4.706451343016347 9.579630738496558 4.384172587287664
Pd 7.172142639238499 4.18673691842627 5.589459249362542
Pd 2.9468105123115156 7.544369336013381 4.619092919765674
Pd 8.431570848131534 6.430602480748411 5.8659113492961525
Pd 4.4628366392357774 3.5440428765367407 4.520144119080539
Pd 5.192715549891182 6.069585330637276 5.083280651443632
Pd 8.14765983822338 1.4515700178310242 5.957343354183207
Pd 9.449180730913012 3.6038135128890723 6.9005056921275
Pd 10.842757173393501 7.88272743886185 6.171874750751878
Pd 2.342288415939246 5.050110773234203 5.3257916460084775
Pd 3.9685589197965303 8.779707295955701 6.737779093698578
Pd 6.517181308149273 9.668918200158583 6.621147465076138
Pd 10.417273499995764 5.898261994522198 7.829810284263913
Pd 6.138874284772995 7.082220110785803 7.321760182468241
Pd 1.3868479519701202 7.479118663484775 6.916584768201161
Pd 7.318458097254356 2.672332683461347 8.208817814277095
Pd 5.5441437523400054 1.851572896181314 6.215988046391494
Pd 1.1824587353506315 4.681991555148682 7.617249885936508
Pd 8.598177472152752 8.09832111402221 7.885783216168798
Pd 5.330484478462341 4.385622691833321 7.343616790613544
Pd 7.909920509708339 5.27692763830109 8.291332851977769
Pd 3.549167760515311 6.2076867521857615 7.32673077673243
Pd 2.8618074865245293 8.683394410387919 9.052639799434852
Pd 5.549485767177746 9.11621354922719 8.998024008422153
Pd 3.142250190174049 2.9298969005122766 6.8199814137577786
Pd 1.7707742722467659 6.379453980573303 9.546268009178224
Pd 4.792963668381793 2.083276972954261 8.82989303264855
Pd 7.063242120267681 7.084819928350066 9.969078120357002
Pd 3.304096343258814 4.23790010670389 9.228352727222559
Pd 5.969859843672377 4.4020252379582585 9.921820200326174
Pd 4.489595413158593 6.663021557944657 9.722365020461279
