45
Energy = -193.6909629 eV
Pd 7.464085145635108 6.717599637592898 4.930232639142111
Pd 9.198747194393357 7.4735974420734 2.766655447349734
Pd 3.694885925952553 7.631464361226383 9.380190299472808
Pd 8.226831662484837 7.353885827014099 9.43873896528669
Pd 8.908442889719597 2.9336315585897332 7.7667995657859965
Pd 4.635583800645393 2.623483418245283 4.665212608846218
Pd 8.991639395604933 6.490679485263864 7.070340939203567
Pd 6.733157697520361 9.059441650805137 3.674624578486526
Pd 4.403706288576936 9.282868482492661 7.386060718194091
Pd 2.355711575352699 7.526703870365057 4.908403939893911
Pd 3.3225418038590684 4.988106035056073 4.705917836489968
Pd 6.751323223194112 6.7836983403892965 2.249603442864617
Pd 4.995280962137022 7.626472203795433 5.2360410919258875
Pd 7.454584848139672 0.9428616777515633 8.557667491261402
Pd 5.255686898421467 8.735629348979089 1.4335054967315584
Pd 7.1501729358246555 4.865472089273236 8.54412425932276
Pd 9.452035067559509 8.55118370220214 5.247880168809462
Pd 3.7965315337252497 9.37335616572558 3.441573406448823
Pd 6.141618275051346 9.093357544867729 9.46454975222873
Pd 4.144036286437148 6.747183936809509 2.902638733642661
Pd 5.57780505219887 2.724657636585393 8.836257793804922
Pd 8.078397767053833 5.399939486255373 11.307098805849026
Pd 4.41838448167677 5.0529293313161325 9.057955484579013
Pd 9.745386325981357 5.080349035735391 9.297765947015328
Pd 2.6176945900333326 10.131527162859625 5.633000254779606
Pd 6.564067822318926 2.383775674503299 6.435187810787956
Pd 9.06987333880023 10.077169560198103 3.112991731810003
Pd 5.871684096529268 6.683121955085764 10.562032709024836
Pd 7.780893877968737 8.830321196067883 7.247726558002838
Pd 8.451325631906855 4.910012270125524 2.978213288188199
Pd 1.9124372043337463 8.379058699676083 7.508204432002604
Pd 5.717743468459086 4.721049815275274 3.4934967221049886
Pd 8.012620347931552 2.9265196598467766 10.278123843183105
Pd 7.218874372184914 2.6144472535596077 3.8353317289442166
Pd 3.3323926471112113 6.244858904335268 7.020269946180947
Pd 5.859835336952485 4.960302318289994 6.1358678820742805
Pd 7.8856308900677305 10.740080561873562 5.3961905995766
Pd 5.2337424191842725 10.594593937467083 5.247402243526304
Pd 5.756319577210263 4.085739326092694 11.138231233370096
Pd 6.388341207869529 11.030681392680139 7.590147412547527
Pd 5.90893161416482 7.056445330326963 7.697173620923817
Pd 3.796421722664032 3.5594513922095192 6.991136274821806
Pd 10.770451223523317 4.548202305989668 6.890298450564503
Pd 10.246607586955328 6.026073962702236 4.727020605830951
Pd 8.439175579552863 4.1696566452916874 5.5437548319860985
