44
Energy = -189.61605778 eV
Pd 4.319393749998502 8.967419322099314 6.453494462801777
Pd 6.0712598581439785 9.951183105977998 8.263902580766725
Pd 7.09473165467169 9.536208486540941 3.488558373568861
Pd 4.384389846799941 9.78993127568183 3.8564715430503536
Pd 8.020287618792485 11.51336134312129 7.388188194166573
Pd 8.992131547535216 10.014582169357123 5.387917462640203
Pd 5.403648680130718 8.20340879873626 1.865805960265792
Pd 6.184791957228005 10.748349409561152 5.647271184889785
Pd 2.6642668148630695 6.96684230886632 7.158823998248885
Pd 2.887953277419933 7.707164872181363 4.506230645088771
Pd 8.159266773349687 7.934074056871403 1.6721756414110909
Pd 4.161615711315397 8.207084485504852 9.062145320328803
Pd 6.980993000388615 7.8008332955617306 9.474232248933387
Pd 8.629683436245713 7.509771155310215 4.262912042301702
Pd 5.571082119549608 6.703159899823326 7.406088771394731
Pd 1.3911215557760432 5.667646148262717 5.188931378671662
Pd 5.642119771426388 7.486527663949774 4.498738609630645
Pd 8.901919954410172 9.151235519349987 8.22400882493957
Pd 4.070103061633036 6.100785832408868 2.7139648391023448
Pd 6.785635514416138 5.9209376648063134 2.607908850194692
Pd 10.25598837611596 7.765040935563906 6.280959424425404
Pd 2.4684622945710175 4.195824039486848 7.089279527376438
Pd 8.508392605813503 6.456798426606433 7.702557796226554
Pd 2.7409665944168093 4.007289230592889 3.626644033487684
Pd 3.82690516696499 5.405567982694091 9.006557765723686
Pd 4.1894850020342185 5.450323187428087 5.425548563466605
Pd 5.1835244771534255 6.563649031890173 10.942861894025238
Pd 7.235004195552778 8.392823220793673 6.365090232790124
Pd 6.998242226019327 5.388683402463451 5.494812063663402
Pd 9.48097135872788 5.6940587955940245 2.605991989054977
Pd 8.046935259377058 3.7804848212921964 3.5765501461317286
Pd 5.464904060950916 3.9703382148545328 7.250590463956008
Pd 6.872032080263074 5.130033943268767 9.30646799374014
Pd 5.3957601721817 3.857829133656514 3.5886112485040425
Pd 9.65017388663079 5.249288706351883 5.3898787979145615
Pd 3.9568212836477654 2.5814396994858857 5.541815845821438
Pd 3.7644067595488058 2.607493893982653 8.735017523128692
Pd 5.042709492184898 3.8489584428574446 10.776493553708274
Pd 8.284217257513374 3.845484305258912 7.404692523806772
Pd 6.7143770782530785 2.4188920277233894 5.396021134005886
Pd 9.420014589024365 2.5425580420142815 5.4172919493677
Pd 5.298717490791358 1.03400917739286 7.20804279460052
Pd 6.580293533124995 2.4697979425275065 9.128587209178802
Pd 8.016325938173866 1.1855126369302726 7.343459172216549
