41
Energy = -173.87475371 eV
Pd 10.124058113867925 3.2429155222934756 4.474359320838612
Pd 9.869929570396842 7.354786317587664 5.942584366243184
Pd 8.639230441708214 2.4397960775817724 6.497448602066814
Pd 9.855986114237492 5.770203821399396 3.769972905824276
Pd 9.159521958329522 3.325608141654091 8.848018302689727
Pd 8.11287069475838 1.4584030183442542 4.146424242063606
Pd 7.71429313894401 4.015622809204718 3.6315272763935424
Pd 9.557111272355742 5.971615520769803 8.273196870489087
Pd 6.148709078402356 2.8326093417614966 5.382998076556729
Pd 7.263332046643367 6.574922549485389 4.029937439377305
Pd 6.875920158061798 0.39062292477553884 6.3148678372964415
Pd 6.739727977939404 2.1834836800185573 8.335789571884137
Pd 8.589917551763246 9.68717316976115 5.769974378875678
Pd 7.279686642134233 7.447556266582945 6.718616219433318
Pd 5.170120894953591 4.655360903803675 3.4956963083924677
Pd 9.015539365842479 8.589668353405363 8.297579867987007
Pd 9.202835346413835 8.342829472868342 3.5546685371957607
Pd 8.588159923372524 4.983376624756096 5.996443297532107
Pd 7.968807517255923 11.014116023821924 7.92696167289065
Pd 5.716179202040577 5.361389967239494 5.973841248739109
Pd 6.674729848150771 9.149458082959733 3.993668830618375
Pd 4.540484035637354 1.5552902203268082 7.022542936923674
Pd 3.5944329434228677 3.6867020437215325 5.612077879156862
Pd 7.171006382353185 4.817236286846846 8.225987807459301
Pd 4.939075250538888 7.21384667021174 2.8871355856063357
Pd 7.5065909180862365 6.9049502841780654 9.772442174341512
Pd 5.254572524261528 6.602199116444637 8.403981800668458
Pd 4.785481020557651 7.749024360871259 5.505670363645284
Pd 6.305720800186863 9.173005200284953 8.764323182841096
Pd 4.59255272202683 9.808545655812113 2.6103320312467218
Pd 3.87037304998098 9.174975936181541 7.60229214296816
Pd 5.983253577926274 10.162192329054848 6.329731627567854
Pd 4.676122286870731 3.939197542392961 8.151906262847648
Pd 3.037139302289144 5.972792948486533 4.433307477821305
Pd 6.267976676718827 8.56442221256315 11.287383303254977
Pd 2.5040363472651035 8.323425780373055 3.3742273563837837
Pd 3.121729419695578 5.851431180262268 7.13583872287185
Pd 4.072441786305692 8.140509509790379 10.043195067286042
Pd 3.684353330484452 10.057520871733958 5.058341979855406
Pd 2.0181452610377897 8.039612254208677 5.966901554427837
Pd 1.9648091749884566 7.628564674389085 8.594769237646146
