41
Energy = -175.44987977 eV
Pd 9.191816223520801 4.036567078539823 4.540301062985337
Pd 9.120993292334054 4.807217643808244 2.0252737719902654
Pd 9.155450021300023 3.2582573712920246 7.012048647160504
Pd 9.673021562760505 5.874622147746572 6.410662899195248
Pd 9.40665796258116 6.694032232406707 3.9193800755993924
Pd 6.9616878452524205 3.395062892458569 2.9786499842358825
Pd 8.786536982018147 7.464203610354229 1.4531963293107881
Pd 9.112244042690586 2.5960161415149443 9.55433774627173
Pd 6.800986340429362 3.1402208224178128 5.682475538012191
Pd 9.683165718876618 5.079558953612559 8.948911346489073
Pd 7.03402634272145 5.610157050891001 4.470639071998418
Pd 10.147345294328659 7.650323386930556 8.317394024918999
Pd 9.778709727321786 8.557670782793917 5.881221553550043
Pd 6.698731034576207 5.811476892487786 1.8133418562608798
Pd 9.353579129838726 9.335922459008632 3.402505751127651
Pd 6.75995489735398 3.0205003163040574 8.408063340593007
Pd 7.6358430755700955 4.493905649561954 10.60793196087427
Pd 7.224373940983513 5.364996619969257 7.313860169185809
Pd 4.719877837707897 4.226274205963906 4.253914307032437
Pd 7.323474905616298 7.664914516213493 6.052268788579077
Pd 7.027279277522602 8.133558512006315 3.2973562842754993
Pd 7.89662386196628 6.95689669848194 9.454075876080783
Pd 4.663160341451013 4.005811582364106 7.076495450402255
Pd 4.894627061124336 6.442251282151555 5.94574410102092
Pd 5.378458440297906 5.185918233674468 9.380038587423535
Pd 4.743662585697013 6.7461611847901635 3.1891061900261817
Pd 8.01426946332163 9.262623104355276 8.003029925596987
Pd 7.4679619390115395 10.131792868550942 5.180282746538089
Pd 6.300322798728424 6.616880264425605 11.501411866920574
Pd 5.609508897419284 7.652220401654881 8.163997865937208
Pd 2.604125489768164 5.047798775684912 5.645616525809275
Pd 5.032552703878508 8.930743178185848 4.845982335248316
Pd 3.2230278567567683 6.046510782774552 8.109506469348666
Pd 6.415491426141775 9.056583351820787 10.22260754799773
Pd 2.7142473848049438 7.512462247132576 4.620650449813329
Pd 4.083454020295505 7.354270858792232 10.327437007532453
Pd 5.6440080435785385 10.145352614413156 7.153521521141533
Pd 3.3835794687957588 8.68802009619361 6.947971972402015
Pd 1.2051746851870233 7.126480420626478 6.7479005207688525
Pd 4.058662407695513 9.867831591863508 9.279338486572636
Pd 1.921689562270511 8.198071472508076 9.122684395636915
