48
Energy = -207.39667239 eV
Pd 8.668571114065932 10.80847773214221 5.983841103517569
Pd 10.257027343041097 8.810755072348748 5.136195871886389
Pd 6.664266352297993 10.110951259632547 7.516074973435453
Pd 12.090523933900785 8.064105863178508 6.74445110503502
Pd 6.179266860140867 10.3660980698013 4.883970283640659
Pd 8.402680431926733 9.71304889940549 3.548717109141048
Pd 8.725382514477658 11.290072046657121 8.619534168512068
Pd 1.8026726672495954 9.332489585643616 6.144795210191156
Pd 8.826993561607386 7.035686613797382 3.7523141544946417
Pd 9.731975546290007 8.993777821976021 7.882788089556711
Pd 3.7107762425490827 9.49382155816517 4.208311395733692
Pd 4.151749986231286 10.379658160371317 6.753019197069186
Pd 7.554701939234782 9.170276949254362 9.846160972160876
Pd 11.26863726242242 6.9577665935883175 8.952739336717887
Pd 4.931233870281593 9.731709356637717 9.3700494051864
Pd 8.296831860882852 4.558505452668038 2.9962588465025
Pd 5.907654599061788 5.610452972241816 2.4606889202626876
Pd 7.6800857370248075 8.205359885951816 5.956707920261228
Pd 6.261506374706867 8.104776170309256 3.4183252271096936
Pd 12.001577864508048 5.415869734594623 6.72598675625024
Pd 3.8412586210599144 7.221133794566422 2.8661145738085034
Pd 8.663787327747334 6.875353695133317 9.194301823802798
Pd 10.376794193589697 5.006931709992062 4.616873013138494
Pd 5.0843630357118625 7.942795505180176 5.881815921244832
Pd 2.6598903099804128 7.053865684021259 5.217345545872106
Pd 6.072912079799512 7.432123627440191 8.325153992028895
Pd 6.701169616419266 6.794539904267848 10.91547386756993
Pd 9.614089152246704 6.596255039293329 6.559045443533493
Pd 4.122160099576565 7.408669509858794 10.397448035797572
Pd 7.408864497992852 5.2703915124845935 7.397249618193822
Pd 10.014124186724912 4.673829595905347 8.400066981286738
Pd 8.358338959769707 3.609307810229093 5.481501403484024
Pd 3.3367789463175876 8.114392743448429 7.959176652762281
Pd 0.9804140949505882 6.9658752557239225 7.221080952462911
Pd 4.020517806121809 5.010287861478223 4.367899033919707
Pd 6.668442229455129 5.821872685164417 4.995217325515694
Pd 10.78282725066622 3.041493594851603 6.436136343303543
Pd 4.72507686370628 5.463491842680085 6.943495374268846
Pd 2.6886143867136454 5.766047826353358 8.842124354948279
Pd 6.093514742790903 3.3640628190152313 4.0025312608593016
Pd 7.722385196380697 4.390478087862633 9.866611666265955
Pd 5.145539361717785 5.074588725682815 9.595668679944238
Pd 2.2122085104137876 4.657692980098793 6.432350199041709
Pd 8.530282059823318 2.571299801823299 7.904660801754473
Pd 5.969633702246732 3.117246859090141 8.07779165466625
Pd 4.287452491113433 2.9194351771236757 5.9665708798668335
Pd 6.673118256442062 1.6666718396250149 6.011905175341688
Pd 3.3718998889714475 3.2567786435922264 8.464033309004172
