47
Energy = -202.00968725 eV
Pd 1.5700335863401758 8.065842573404142 4.74008149496986
Pd 4.109708712688379 8.32782178201002 3.6101745670152128
Pd 2.9262855898877658 9.992310915035167 5.703536372844633
Pd 2.8477081898072787 5.923250204004708 3.880430699169341
Pd 1.971280067514902 8.175543173966291 7.744355587501214
Pd 1.3633611422184122 5.863922161381629 6.122450701920028
Pd 5.515363617025499 9.682680194405085 5.465454500736594
Pd 7.7440611841498725 11.040334749699971 5.306513357492487
Pd 3.9272059160181585 7.41324917746909 6.282368498018772
Pd 4.883924729871827 5.946417418905068 2.052004091866463
Pd 7.048504961740018 8.306836613238499 3.807568862084372
Pd 6.740541169412729 10.71585604054703 7.785069762225896
Pd 4.248761846646243 9.84286945076 7.9478938973188855
Pd 1.9316649257719123 3.5113275131873176 4.902580281610677
Pd 4.334445819212279 7.472294022358342 9.072674629582956
Pd 9.337824583431782 9.723335791697593 3.66094769351435
Pd 5.465839427098736 6.276114814097086 4.559969942674138
Pd 7.530789227416592 5.7867165047795295 2.8312803104131867
Pd 9.397043980364614 10.770007973775346 7.551589535030905
Pd 8.6603546821352 8.722226401274153 6.132932897257008
Pd 6.361162479425479 3.579441760616583 2.0378805397741298
Pd 2.7140978141177423 5.566121857243698 8.28006120492133
Pd 4.257416650099401 3.693874731332416 3.569419808739003
Pd 9.606204772071669 7.095146772936939 3.7680419566024703
Pd 6.7076720678233785 3.9798865017959124 4.78893553687716
Pd 6.419780922431183 8.151775749614332 7.422583124337668
Pd 3.9427355357304723 4.645873381113223 6.114797831191875
Pd 8.281924281171882 8.949040733034414 9.194845453544623
Pd 7.806696851071462 6.333560208789015 5.613050218157173
Pd 11.193484847186372 8.583497595846278 5.315056299743259
Pd 3.498876078156032 3.0057784491001858 8.164805885943684
Pd 5.9718790629079415 5.622575324686088 7.425341851923971
Pd 4.853773262134956 4.878558533697515 9.679130430811869
Pd 4.001655088378087 1.934727052732892 5.665536543397119
Pd 10.603221874792023 8.3257511345411 7.904312681643892
Pd 6.730500362476395 6.858915726765004 9.949540607245352
Pd 8.654791745951782 6.476382837784078 8.215829251566971
Pd 10.412460466700265 6.146186360147546 6.22511558555768
Pd 6.072314251035024 1.6238291462088508 3.8948996500279414
Pd 9.3841683041014 4.399528019546061 4.329686032229081
Pd 5.998052224202274 3.0428298626097305 7.115352473860268
Pd 7.519479599451067 4.277532353568811 9.313971340912767
Pd 5.732819935614405 2.3278637045904964 9.635912918048934
Pd 6.275966327504293 0.5804252668214599 6.3254657106737495
Pd 8.640604753140371 4.139191163249992 6.904790755536616
Pd 8.365888668173426 1.972547319043398 5.3888789583862655
Pd 8.040897765196434 1.833162424830762 8.185243594293766
