41
Energy = -175.02948462 eV
Pd 5.808787744275747 10.665988136417866 6.858310108375196
Pd 3.4660956565138092 9.047721943891512 7.123240670224145
Pd 7.830529769939218 10.452748477079634 8.579617577320542
Pd 5.575338218208875 8.787568036988354 8.742979170749901
Pd 7.782274386832666 8.239737337230421 10.208098751285537
Pd 3.8425101916245588 10.748428278371836 5.055557069694714
Pd 3.014514354813102 6.539478487294635 6.315604837979212
Pd 5.063620274423033 5.916675784084847 4.6540797767277144
Pd 5.298182223621558 6.348160545616341 7.649820438245462
Pd 8.283780551323302 10.2040001442805 5.8284268519595654
Pd 5.708724782298824 6.643844774411348 10.351358701746813
Pd 3.2978928207305978 4.6107741427080695 8.151973187151999
Pd 9.91084853418266 9.752809132731134 10.074772355904038
Pd 3.2740942361108907 8.329679164647008 4.365173492083216
Pd 5.592778796011973 8.241902795981163 5.779002638280261
Pd 10.303434032608017 9.961553963291342 7.483806988180711
Pd 7.739872800553521 8.08608983614635 7.310321196955194
Pd 2.6170661306449854 5.913721850765245 3.583637532005911
Pd 5.7542474788680105 4.215888233222966 9.285090975380749
Pd 6.271381970680786 10.2455693061917 4.1115644016715285
Pd 3.015552867046781 3.975310606357635 5.5160237614162275
Pd 5.453800309092031 8.08030425468282 2.937822144629484
Pd 7.403437333706496 5.817897215905993 5.881700881165114
Pd 7.8313332643575055 8.049266193421017 4.244996975799573
Pd 3.635438522545979 2.102133904253138 7.383900946056922
Pd 9.99818771580083 7.527673056261824 8.640611528088073
Pd 9.956214550726774 7.894670578004526 5.879779626967827
Pd 5.475091286314226 3.873339833994932 6.510095941869322
Pd 7.822743752586586 5.924969953890139 8.881136137228886
Pd 6.097275127989474 1.7946290181352524 8.38895819878325
Pd 4.672812460648358 5.946220564522884 1.7589016101862316
Pd 4.291690135523826 3.801366208349607 3.1624313048834125
Pd 7.100781316408315 5.874600451916626 2.8453577526842526
Pd 6.746924661995203 3.660502169020745 4.113999646466789
Pd 4.666605501400925 1.862030425934556 4.822073147767516
Pd 9.418398691888456 5.851213518518912 4.190419391808498
Pd 9.095239742110582 3.4363364752552332 5.275037521226082
Pd 5.180683887863027 0.06297945108437779 6.65264588140625
Pd 9.75847716161464 5.42723687609719 7.036697426620195
Pd 7.193665852378345 1.6534302896436333 5.859875925879079
Pd 7.876795726117042 3.5976826641010997 7.625122196904397
