44
Energy = -188.78551906 eV
Pd 10.067854451939342 8.009278393252462 9.58453631806121
Pd 7.889180929988806 9.296839402415488 10.534616514458515
Pd 3.2088406474549043 6.938352213411129 10.479859320084316
Pd 5.499095590899519 8.178413173835095 10.531415543342803
Pd 3.4296535713064316 4.847595703242863 8.738693420733297
Pd 7.566029888661823 7.099550773610621 8.974303973416449
Pd 10.025425011589917 5.690674607646903 8.340224606816058
Pd 5.624168534868904 5.594883810961425 9.937502714314986
Pd 7.70947634589296 4.437339518829177 8.673803161961832
Pd 5.361561181166335 3.1479034400475845 8.88006266627162
Pd 9.231521386118912 3.7944376608551447 6.525112185168462
Pd 6.732545070745162 2.866046474981786 6.68738633985441
Pd 3.428000359613801 9.475339589936054 9.168361313297353
Pd 1.4365471979318951 6.580345617072516 8.491089331085483
Pd 10.670144420366043 8.066371081116294 6.970329934813254
Pd 6.068986532391808 9.948433178488346 8.696352527225288
Pd 8.604302497717446 9.410618654564514 7.919990064128758
Pd 1.3913218829854253 4.067300021942479 7.375470267511824
Pd 4.36344640440587 7.323016925034409 8.069058478587971
Pd 6.432699991086584 8.20382286196971 6.718868374248717
Pd 3.981805925361881 3.4202181423622355 6.475495566100736
Pd 8.36687498269059 6.37677200396898 6.398055296438495
Pd 5.835528125457016 5.431085472837226 6.900396812702109
Pd 7.060626532365157 10.88844655224812 6.366584885031223
Pd 2.750737420413933 5.96016004920921 6.263307554241146
Pd 8.265208999627436 2.0691590272030225 4.63934653706686
Pd 10.873170292318393 5.807298417698056 5.715580549158241
Pd 2.2372541657387797 8.587026004105681 6.883516257310691
Pd 5.457667123526514 2.6561305765743004 4.357389206476795
Pd 7.367499178568299 4.55194532083684 4.533955352293111
Pd 4.42715556745023 10.073794376243589 6.619765549858257
Pd 8.702725170013103 8.857363793035598 5.2936519793890975
Pd 7.065685717060803 2.1972687047573842 2.28923487661745
Pd 5.9507615931459545 9.639883935101977 4.3153131468015555
Pd 4.478132553302801 5.202950958062879 4.5195254949074615
Pd 6.641781192995238 7.035715726099819 4.379920768472694
Pd 4.178706050647952 7.810456723820569 5.180632358617844
Pd 10.125417909331333 3.9467776714999565 4.014957486914177
Pd 5.731751727818865 4.549910670060892 2.3135572926291714
Pd 9.233335507179994 6.549221784321054 3.6991444773605373
Pd 8.440205452959011 4.412315880854598 2.0717190631367326
Pd 8.001488375094999 8.935597956759592 2.786159776434783
Pd 4.665487753425851 7.088676524023702 2.600040324145935
Pd 7.201668232466233 6.696939356846271 1.7939014044016985
