49
Energy = -211.38879133 eV
Pd 9.480572524157061 5.560242130003258 10.175315475193077
Pd 9.681763282740187 4.070243736905627 7.947536790497384
Pd 10.370501598298823 7.672354878955506 5.474039379839007
Pd 8.98063142710935 2.9294614821176674 10.357431314911741
Pd 8.912132776169429 6.716543966692752 7.734828173594796
Pd 7.185211303303509 4.623782022217511 11.532512926378976
Pd 9.914379232375484 5.100782456553766 5.5569878079622095
Pd 8.640064189635051 9.259276057363428 6.669388065801668
Pd 7.203817160795713 6.959734544474351 10.20140051544626
Pd 9.519343457333703 6.49231194489551 3.1918735720936393
Pd 8.039065554727243 1.9254839757041007 8.072442579245525
Pd 7.244441071607959 4.571488716190148 8.874849578208567
Pd 7.732037271694823 6.744326220843529 5.239273193804319
Pd 7.080052457326872 9.020786806216972 8.760522548588948
Pd 7.727504983002772 11.152407800715865 4.860715379429436
Pd 6.274165808725313 2.4523492764759984 10.109514145444324
Pd 8.963830136057497 2.594413507665087 5.689004201892628
Pd 6.8953992207685975 11.207673787620674 7.478606423816557
Pd 8.55474644011835 8.925313908320573 3.8676526513752396
Pd 5.050123730078479 5.426815294544056 9.980005205255948
Pd 8.097802361110183 4.245822982499926 3.775437264036589
Pd 7.1808950396037305 4.446949879341661 6.374799911017075
Pd 6.751096219600736 13.290431416497684 5.963949859348647
Pd 6.222476663483168 6.841555032765707 7.585266302866369
Pd 6.242646577855517 8.848781685850605 5.684320297690862
Pd 5.643701413264259 2.4332829400019342 7.407275406084036
Pd 4.67507472846179 9.596028968790735 7.614790220113064
Pd 5.079315808784771 11.397146970105815 5.438439721979505
Pd 6.306826570028747 2.421211067091876 4.781433990481168
Pd 4.474101673336839 4.83263656789888 7.248003643583686
Pd 5.928434701112396 9.696641994439256 3.27560327092002
Pd 6.89993110841318 7.235388674222298 2.6878510259119834
Pd 3.7533714372747022 7.251755687080305 8.599798640429563
Pd 5.608160169591877 5.230512029410488 4.376225476384621
Pd 6.517832789100474 2.962623833300704 2.1351712926014654
Pd 7.897477735046726 5.19062454260533 1.3670137613551
Pd 3.872456349942139 3.1906334618986154 9.294424218681597
Pd 4.2447786585046305 7.064748481020505 5.870021446298458
Pd 2.219600583560261 8.701658742867583 6.967439690582527
Pd 3.7702591728479677 2.391537914797094 5.67044793950488
Pd 3.6011974191099805 9.429900788218955 4.792601945392685
Pd 2.110132522174857 3.5024331082229336 7.379068190962113
Pd 4.344831448892412 7.507821324002279 3.1316487656031917
Pd 5.238348914183295 5.376371087601224 1.7403497505992236
Pd 4.163314094672153 3.3495996371254746 3.2280786336593255
Pd 2.8087973355404237 4.754615271659641 5.041711277346912
Pd 1.8678036255741768 6.099677047581859 7.127573743826679
Pd 1.9502585844709044 7.273172957052771 4.567582344825749
Pd 2.697430185664568 5.543147061720106 2.570736462072654
