44
Energy = -189.94930779 eV
Pd 7.956072331523204 6.500044323141849 8.896647810674654
Pd 5.919894615309889 7.298079772205848 10.575006101975267
Pd 6.210829250390863 2.783008145945872 8.641284955190585
Pd 8.769965717319014 3.9316421692466252 8.747985281302556
Pd 4.679486071605522 5.458681070315507 11.910578198509995
Pd 4.140880050746736 4.055224989821985 9.794333771613804
Pd 8.116760185950103 1.9341537499275014 6.994383757640084
Pd 6.756616439931959 4.670291977979537 10.40160073599955
Pd 9.584309222774262 8.43292026717111 8.037893099443963
Pd 10.31487507217687 5.762668079447773 7.701907472496848
Pd 5.482481612843512 1.6054474223831758 6.37510770849002
Pd 7.194971025580046 9.01146964691648 9.101750000293562
Pd 4.440444511235901 8.755583613469678 8.849202572380499
Pd 4.088981204622982 3.6490033745286237 7.199491665636517
Pd 6.237906036024978 7.91666134206312 6.832971990274934
Pd 11.78951527269385 7.635687944885891 6.69975353974152
Pd 6.997270443218441 4.688288101143171 6.976496144723438
Pd 3.2168791161555736 6.745741925249439 10.021024922775021
Pd 9.446101414144264 3.9685475367100227 5.90611564160941
Pd 7.001832523215005 3.136103964985979 4.8677268114905194
Pd 2.1518758712961747 5.003056144815959 8.2782597039117
Pd 9.869516948223016 8.752365558458907 5.33453784262069
Pd 3.0577328603838585 7.199083170463674 7.177641221922119
Pd 10.65342222253924 6.111365789574836 4.773995367219482
Pd 7.908434837861143 10.000026629654283 6.685494574882535
Pd 8.434641738127258 6.70782715201149 6.085970657323128
Pd 5.675202248880643 10.860406603775477 7.900496148020644
Pd 5.189504905584324 5.987176953587679 8.353046846679543
Pd 5.02979836410315 5.711715556444496 5.625836856119174
Pd 4.219206626906277 3.2056032294469006 4.612848144797477
Pd 5.78046594138079 4.797668311843962 3.214207338739118
Pd 6.650529182722222 7.223351052802098 4.199967433228812
Pd 4.16784746245294 9.36728456485958 6.185332582727331
Pd 8.365213750377837 5.115255154402984 3.790387364296961
Pd 2.3525096470225084 5.129241644802651 5.59902851595468
Pd 9.096198402498935 7.592298661397034 3.0163029986342784
Pd 7.75525441804789 9.6413920650991 4.090690470610245
Pd 5.949379823498016 11.165297827314594 5.290753171742542
Pd 3.410485312156126 7.415848478053972 4.50266258410694
Pd 7.327751501701067 6.145445544183775 1.5554956688106778
Pd 3.1828947492769304 5.179398479294638 3.0700983848536167
Pd 6.927499559724813 8.751899939639907 1.751496630126519
Pd 5.088406014579215 9.303173493172075 3.649070946929023
Pd 4.831106263392425 7.1155193475613085 2.1460671336796127
