47
Energy = -203.90905063 eV
Pd 10.205809916281192 4.685101628657916 6.415400635029891
Pd 7.78687882865058 5.615132273878324 5.236561540695583
Pd 7.917002250420554 5.198942557762067 10.584828447770889
Pd 1.5165452847285705 7.166427317477789 5.63410067076678
Pd 9.330023986557304 7.205239605983778 9.454551644338054
Pd 10.163015798123968 4.595556181531354 9.12024213537118
Pd 6.576007134120343 7.551368454166643 6.849951027610909
Pd 6.497554062109399 3.318895864802233 9.187562414135012
Pd 5.2957450772148205 9.412325261817688 8.441209826392754
Pd 11.41710683193398 6.7827491574984125 5.191931475349851
Pd 2.9109179384276067 4.8884192611701796 9.388927606985769
Pd 4.144513248493517 2.946934769836127 7.799281587528426
Pd 3.87711049396933 7.5489778926066915 6.953004237880761
Pd 6.46856575619121 7.870554161139392 4.00215162729517
Pd 10.679042028381307 9.310102294823372 5.5051557234951165
Pd 2.7955710317655402 5.30433677610582 4.041142536180757
Pd 6.261306012378199 3.854297844318361 3.7123561289948106
Pd 3.7582107267506655 7.841605621789901 4.228956420824148
Pd 7.858746897656798 5.365259102806597 7.903547452104287
Pd 9.16565176494243 7.727402665481852 3.943658008624677
Pd 5.0021124990757455 5.983284043195403 2.7156689655617186
Pd 5.15005868125417 5.721348598314826 5.38836221790561
Pd 3.929788728662535 7.4394317139377 9.697738874004662
Pd 1.6405713944459501 6.940691368753558 8.298688232609305
Pd 8.6087605548243 3.0108534612828772 4.9886882056462305
Pd 9.23926138719833 7.381216996593805 6.699817014498563
Pd 11.509641026945305 6.5248582695197745 7.910645319070821
Pd 8.008336256274925 9.293323626202229 8.423573423632355
Pd 2.7374246810519662 4.996800124038049 6.699401950233876
Pd 9.427330868459304 11.091486067382743 7.036160743120269
Pd 2.6561406669065026 9.448432593200586 8.47849253924876
Pd 7.912651795876169 9.537282002197864 5.474233590334513
Pd 10.750943241353578 9.063274745368767 8.150815692890236
Pd 6.643643609683364 7.368930455858589 9.681426752191996
Pd 2.578641613626927 9.629867716912901 5.85599617929108
Pd 7.643135229663429 5.92850445584778 2.5720194289843827
Pd 5.2778467436360765 5.327451435675959 10.74795730308457
Pd 6.750249972321413 11.258794094133899 7.158755484053013
Pd 8.716002419178084 2.7590009882373336 7.612468642126589
Pd 8.782815123381692 2.6951985950744963 10.295223370429119
Pd 4.080526882031425 3.216569668537376 5.133934292871935
Pd 9.977379814106776 5.103214584871577 3.7353380226538118
Pd 5.221653643979892 9.633806519794554 5.668922285532878
Pd 4.238187966984955 2.8812881882541035 10.43577467691867
Pd 5.207295193140642 5.480127981007188 8.07803614475944
Pd 6.397745136370635 3.4499732304794826 6.440937359476166
Pd 8.478871644174754 3.4220912846335327 2.3682610692382418
