49
Energy = -211.82814431 eV
Pd 11.909804116274126 8.59284707542582 7.408980961027846
Pd 10.344371428464333 7.2846586121923105 9.088439763407079
Pd 11.035608412544674 6.254843697558195 6.495354695751087
Pd 10.3111278285525 8.681592368370602 5.317416739661271
Pd 9.51546470274879 9.71397193306513 7.740277800803116
Pd 9.831439865411786 4.729518147274672 8.35708137026281
Pd 9.627127647814543 4.042146628384838 5.773200820893723
Pd 7.91972562797968 6.195825288140062 9.409027705809951
Pd 8.175698920764841 8.719303626313545 9.82909999227859
Pd 9.141067696714622 2.244451044711291 7.691800735198417
Pd 9.208209241427745 6.333615802867127 4.49960607968846
Pd 8.662699300464087 7.292481079662914 7.0346838603132165
Pd 7.475450283722389 3.509811669530284 9.188449767659149
Pd 7.729016185940307 9.526807141061552 5.72648102327046
Pd 8.581072637499313 8.67568676105831 3.3305894059425696
Pd 5.71774118884555 7.499452217934938 10.499532288576926
Pd 6.9154600920139275 10.341262605132842 8.114011092789905
Pd 7.787670747424014 4.201780963810403 3.886363769113199
Pd 7.393040062985995 5.013214471758188 6.818428072236918
Pd 6.562518672923107 4.927180245465761 11.255574201062243
Pd 6.126806841937006 10.117014445715755 10.661598644068237
Pd 7.318476874935148 2.3229269066704474 5.856210367142962
Pd 5.5147138108013465 5.3596777364775345 8.762437327585666
Pd 7.472525794088002 6.3821901138852795 2.5000396213703633
Pd 6.158395133926525 7.786915241789308 7.717844907380287
Pd 6.777932867013636 8.627103040362258 1.2881033608842902
Pd 5.39991827163007 3.0428568908216653 7.579120913443833
Pd 6.16103993768645 2.132675772684609 3.413996879943223
Pd 6.036825796106961 6.15623928402866 0.3380219227096806
Pd 5.4762942632718845 4.266518909842079 5.115442465165646
Pd 4.3647412832885655 9.476477046372061 8.844379196767282
Pd 4.30885736866645 6.317948030386718 6.41646485112341
Pd 5.991901091651899 9.286915861862527 3.7533961561273497
Pd 3.983672652830795 5.377472448478822 11.044146683799939
Pd 5.095394450909316 9.644428599854178 6.216103914239817
Pd 5.478183868058051 4.538493163608578 2.424600476194831
Pd 3.411625135432935 7.007650673383545 9.087405292909779
Pd 6.550042547836584 6.981180626603167 5.0483450066724265
Pd 4.677289601990013 1.5286209858756783 5.577003666305024
Pd 4.867094775524762 7.163150555888085 2.4474676570102023
Pd 2.7369854476645537 8.447377808553064 6.9988916699604715
Pd 3.5946152506530917 2.8989796958827254 3.571946700033146
Pd 3.2325988677729725 4.108569577928821 8.797127237822705
Pd 3.089361203203326 3.7241172632943584 6.150520025260818
Pd 3.687893674237129 8.308417562232261 4.486520381517074
Pd 1.8563657214415115 5.778535382629788 7.2918293827772125
Pd 3.3657109443351287 5.498018693640158 3.9572968958365133
Pd 1.4750905558593375 6.993127226731772 5.043457135754056
Pd 2.2527293242020088 7.358848469312998 2.4894878411713544
