42
Energy = -179.73840181 eV
Pd 6.9545106969946255 8.56788734758858 1.6074741722064032
Pd 8.658999415984729 10.873382265539993 8.969040938036068
Pd 8.101472859624993 10.358030205034698 6.428891885344596
Pd 3.749673747470467 9.157261824469053 7.804732821567531
Pd 4.943688810390644 8.658529586775403 3.4016113001158508
Pd 5.51641609311648 9.60744567401611 5.7807800333391
Pd 7.546205972269746 9.755430360111701 3.94289753889972
Pd 3.2748544065948546 8.156550442691676 5.343822841232452
Pd 1.6822534057181615 7.455034483189691 7.337234247729574
Pd 6.173566500928887 10.159508016852849 8.330615580126212
Pd 7.782775805699155 6.035001479941457 1.5950058212651599
Pd 7.80166539392933 8.623969101808617 10.00586777125693
Pd 5.362924450365278 7.954569403990737 9.577117870470975
Pd 7.039786617426537 7.22562610976172 4.106012102035988
Pd 9.383323785500506 8.197934540195961 5.413065403105864
Pd 9.35450732569563 7.870363305926223 2.7898844845928306
Pd 9.521747514939287 8.530974950585025 8.022410113794024
Pd 5.208679751495247 6.499711484485752 1.8906370332117466
Pd 2.8110647070214805 7.373218499784384 9.682535655627971
Pd 4.6273852585461945 6.691910001673936 7.226315523718869
Pd 7.09096132101172 7.916722404823767 7.017185944897016
Pd 9.327587763894224 6.065457799507662 7.12302798199468
Pd 9.373716417590547 6.5050689886615745 9.779889758062634
Pd 6.865084520573201 6.412721092990573 11.189252930175119
Pd 9.187764794944412 5.69096455685014 4.537090457400116
Pd 10.090578534603763 5.138908949903312 2.1869004566400068
Pd 6.970749111531579 5.829070224335641 8.632674055291867
Pd 4.616746653196787 5.446596598620388 9.932484609743822
Pd 6.831613597160684 5.354738304490791 6.014956188963808
Pd 2.308071074255556 5.572723617743246 5.581477594354604
Pd 2.6742933719368525 5.074104446535234 8.177281896104052
Pd 6.524286396243277 4.6510426301163275 3.3534676202795763
Pd 4.440527385791726 4.087563550292482 6.377698509360404
Pd 8.757376878755476 4.562831857642578 11.434093558098937
Pd 4.620510731290496 6.041104266089533 4.491551468028303
Pd 8.696085625444175 3.2908530399084723 3.546141932789519
Pd 8.964266577589969 3.971597153252314 8.857417546917839
Pd 8.855830343825021 3.5637153486453315 6.24316704189137
Pd 6.551385105676815 3.690872034069734 10.261945391166753
Pd 6.643244814629045 3.1584244472574237 7.665207506747787
Pd 4.303748091816508 3.042382521442712 8.888693034293274
Pd 6.417170238246193 2.7613010531960085 5.083506959075892
