45
Energy = -193.95541321 eV
Pd 9.514711479299857 3.6469449879368936 8.288420580363614
Pd 7.925623113848335 2.969081902195648 6.119207761404511
Pd 7.791506493245789 1.3713125332685467 8.233640332184478
Pd 8.10195801623995 2.691940425053457 10.540610019317764
Pd 5.708567808016921 3.067471674728324 4.596598889888092
Pd 8.72442948256326 6.2431710015934545 7.822105597792218
Pd 5.610226103084741 1.8882452397060252 9.790270090936986
Pd 8.412052271632088 5.307805492158366 10.310885291958208
Pd 7.950397859705414 4.45885629935565 4.018245353124685
Pd 7.660401685958522 6.983265644267254 5.413722886076077
Pd 5.417241744762117 2.198415664170894 7.068336361765355
Pd 4.028775078734409 6.185974606108611 10.273764798073696
Pd 6.330173617735893 9.089411138430853 9.32541399268573
Pd 3.602944591031226 6.28295603305042 7.579781640067154
Pd 3.55178259220163 3.9918075016869174 6.124661304372615
Pd 4.3201126092999305 4.007678454713388 8.698122509078354
Pd 3.6632986005399406 4.223202114910864 3.4032344854410255
Pd 8.338470007681165 8.873937102662103 7.427454448350041
Pd 3.425277091572857 6.6499556902457995 2.3132560410752707
Pd 5.9030459571546885 4.353349827059352 10.899303290615913
Pd 3.76560196870441 8.499426832831482 9.007741080706763
Pd 5.911120333491337 5.208126219216346 6.271521741540659
Pd 5.72741774746322 8.057057920392364 6.914219808147347
Pd 6.0870299851279945 3.8897698643513894 2.0635186080610417
Pd 2.743659423827231 8.877678441156363 3.6952454357905355
Pd 3.38453505754745 6.445649035980267 4.96867754555881
Pd 5.770063615886869 6.414989022199449 1.104117588526552
Pd 4.9227619345345435 8.81843515721965 1.946804561409186
Pd 3.149102472831169 8.702320904260901 6.3724709663182635
Pd 6.944672775105047 3.9494336783962485 8.397739818007901
Pd 6.215329128113431 6.399125646975807 8.805825349348915
Pd 8.247882410771437 5.578142441386399 1.655968277622489
Pd 6.474844475458473 7.037623095748497 11.299401263510237
Pd 5.762187473347898 5.91387401276576 3.695373274458536
Pd 5.313834435950343 8.314813944562168 4.441528582662158
Pd 4.374132587778769 10.698061416958243 4.90924708880892
Pd 9.775279526860228 4.910804689344851 5.850869649926042
Pd 4.771003676892128 10.54327423179616 7.626229789349832
Pd 7.438071713586537 7.887363165623165 2.6765647439980946
Pd 6.6786004564523385 10.40309969128464 3.268288954608266
Pd 8.597898623843493 7.904686190853742 9.893936321404485
Pd 10.321097410339256 7.583913568123659 6.128304791059703
Pd 9.636004085248127 6.6408855785766585 3.7094944709784694
Pd 8.789340061362791 9.213575705730872 4.612776521394097
Pd 6.770548917639829 10.32268574674631 5.932941271320256
