42
Energy = -179.70544196 eV
Pd 3.7609010598421735 2.677317641166294 6.192703742608278
Pd 4.0578474270716 3.0630833215843816 8.854876817998083
Pd 6.243529387002192 2.321936469766358 7.361463429343597
Pd 4.56323988330004 3.9872618026209343 11.36060748323187
Pd 2.574166227739628 5.123668601392122 9.942268669554169
Pd 5.900765105248051 2.804562757240504 4.7181973131413635
Pd 2.9112672645826616 4.959130986426038 7.305551171508265
Pd 6.502591570517618 2.8669848778295894 9.999391343140811
Pd 5.597410437754941 4.763975576602022 6.6105560755940225
Pd 3.927537003693546 4.8110284000728765 4.514292025636532
Pd 6.911181717352539 5.47117058695277 10.9401537107136
Pd 4.324963993809932 6.653697259587687 11.323127626766
Pd 5.180174268550452 5.420397779245623 9.009983575489452
Pd 8.153119230984753 3.6804737824576925 5.98529833367532
Pd 3.4915490878490525 7.452502469250055 8.82053649094141
Pd 7.728892964178945 4.518958293910924 8.47133769506328
Pd 8.150739166265602 3.218520664334407 3.3406175908489573
Pd 4.1397469583204165 7.013969951797897 6.3393303963925005
Pd 5.753639111892789 4.1079665244246435 2.3407637518214153
Pd 6.958256168777378 7.044791706574926 7.236140599451477
Pd 4.846653934427752 6.515018289922587 2.6823004808809134
Pd 2.798592063460376 7.224196333229157 4.082897214070361
Pd 6.029656709042267 7.83132538728836 9.777182287217798
Pd 6.765066799256192 5.51891687697529 4.4193618818880696
Pd 3.4166257855910462 9.397439948404298 5.522976793150565
Pd 9.43839633365234 5.7929494454560855 6.9948751394892446
Pd 8.015099967430716 5.6097641934099345 2.121252509794834
Pd 5.323344462042884 9.21887627572897 7.46440836566402
Pd 5.910623016341001 8.071555264005108 4.8213430633756875
Pd 6.92345373135001 7.951205760978912 2.2599836040035615
Pd 9.607630886619875 5.217986344542683 4.308265669196125
Pd 4.4656262753129665 9.147751485000631 2.96589661419932
Pd 7.75151779536406 9.457346734065913 8.814016668038322
Pd 8.446456187153771 7.481925701504952 5.049719083641008
Pd 8.591976569191747 6.924735960807314 9.3670160992508
Pd 5.645727280279832 10.72055402675621 5.080960660198957
Pd 9.563375661488331 7.8091157522684815 2.796758127909471
Pd 7.780002937818223 9.94341121235366 3.6611898681443256
Pd 7.75110249885719 9.765662688267572 6.269991312371425
Pd 11.081691798513312 7.156118148948801 5.3231276246483095
Pd 9.739521493550258 8.402435493167472 7.381848844698018
Pd 10.149391405456212 9.621601378320161 4.929052094244097
