42
Energy = -179.11570011 eV
Pd 11.334591090092152 9.103908502174985 8.792456839157305
Pd 9.001272203304474 10.234032550532286 8.416702550065528
Pd 4.333395642190239 9.116430403250654 8.768509496717499
Pd 9.264527824151578 8.047029459610764 10.08088672354209
Pd 10.679470492673909 8.556851584201196 6.306901312061938
Pd 6.587176516107771 9.740250399199155 7.4915043091364915
Pd 4.263704920059453 6.778141972972487 10.167744190700843
Pd 8.725898243407038 10.247859335476738 5.793231813977024
Pd 6.693786973444027 7.726908737564758 9.620867045444985
Pd 4.362064878312573 9.26444315723818 6.094299342776991
Pd 10.755022290204243 6.584340139077364 8.20725149425233
Pd 2.950156654120904 7.1154727995737135 6.3108625245381536
Pd 6.222619045538779 10.409278698202233 4.648672997074943
Pd 8.462645725241963 7.782479966617696 7.575079703507905
Pd 8.360680080126667 5.5849164794978945 9.170246076043462
Pd 2.223240874573403 7.575316302901842 8.705624989057867
Pd 5.379769174754944 7.088512309368091 7.440944706596661
Pd 5.81449323542456 4.996176953956745 9.034115510700707
Pd 8.41657961596551 10.434606287556079 3.1894048801963373
Pd 9.473577897610886 8.14390354679648 3.986931115449546
Pd 9.93083547070288 4.176471022764609 7.526920592159332
Pd 6.97319670885721 8.269202845891062 2.7322219054187884
Pd 3.2130840882902465 5.118314575373668 8.286757464470886
Pd 7.165247223402443 8.064520501378858 5.367728465115084
Pd 9.848171282520168 6.074261185014967 5.642025494217955
Pd 4.459851874549336 8.72463683685556 3.4928602569147933
Pd 7.472881648062703 3.285941998339502 7.91531002925945
Pd 5.1936463304263265 6.569304877663319 4.715830410451071
Pd 8.001978761196607 5.947974305065009 3.708918077666549
Pd 4.697972142133116 2.721622579657489 8.096278408839408
Pd 7.362030812846048 5.5622372710763415 6.488239106970941
Pd 8.622456788290132 3.665031269814967 5.211377525268536
Pd 2.274650276636495 4.685634414133339 5.605572891376512
Pd 5.672694343774964 5.962850817743815 2.250366750681586
Pd 6.511842292209378 0.8644082177722124 7.958714408765529
Pd 2.1290316359615358 2.8534126987782367 7.484118769445686
Pd 2.7772545721106647 6.66371429796002 3.747767131241065
Pd 6.3358376281267255 3.985140303884661 3.9536628830049376
Pd 6.40482151484969 2.1593564069863285 5.735907168073034
Pd 3.843391935319314 4.217120687213804 3.514087679596732
Pd 4.954292119637734 4.52906198347586 6.250674272080677
Pd 3.7922965104995416 2.31106065509457 5.454562025691364
