48
Energy = -207.04715258 eV
Pd 6.628088120090711 10.496462011400324 5.833414258183589
Pd 7.008875089466437 3.8045176848624296 6.060233656432648
Pd 0.9703564622987849 6.6063878428598 6.921562866888105
Pd 6.828775426801784 7.848871165421129 10.402902509659956
Pd 2.7160762844016433 5.94891393749633 5.111192005134805
Pd 7.4278279756525505 10.471242696387574 4.919015497819299
Pd 7.121228895755555 5.286725944239246 2.264499241095646
Pd 5.345122601152553 10.40030583253371 6.600841495981914
Pd 7.278106302560619 1.4400839457159746 7.465295682758698
Pd 6.015140745073761 3.2049826219137842 3.655115456375601
Pd 5.14380440602255 1.5809716216504512 5.837082935100539
Pd 10.873853594787017 6.875247445760388 9.785036075858097
Pd 3.35830126850002 9.939634288613846 8.310973937506363
Pd 5.938532289224872 8.153189538045138 5.095705879277672
Pd 5.137087384211416 10.20546347421229 3.6235359119644333
Pd 7.805497762668494 3.6546018370686046 8.710846179553222
Pd 8.903857487742572 8.333919753858883 8.831977158879047
Pd 3.6371269415567062 8.022312958441765 3.662781352624955
Pd 9.439400672522371 2.9330766108225608 6.493448602798082
Pd 5.168505420429758 3.31967702984755 7.975179597593596
Pd 3.2678204745355512 5.500904871027216 8.019749671887382
Pd 8.480384533740631 5.821437924178913 10.091142882154697
Pd 8.307238336271475 8.378000109457272 3.464899462486215
Pd 10.682482146273001 7.8537672786074415 4.596019990803344
Pd 3.5538064420290265 7.895143496881938 6.681970969374102
Pd 4.390980781210501 7.688168889926669 9.411887527484689
Pd 4.073879466280137 3.8537364951620625 5.586985993764302
Pd 1.8589751762515665 7.733050167722712 9.086998994634618
Pd 7.931844650854608 1.4593492892094118 4.819760148471434
Pd 6.007139751729819 7.788853345144503 2.4154275629468493
Pd 1.0788464937559543 9.357062260196269 7.088193480200431
Pd 5.011932692029373 5.6842768871828095 3.818676794711036
Pd 5.446999337509345 5.89441492315855 6.551873962174873
Pd 5.8341955621423605 0.5450951175902767 3.541669956660252
Pd 8.114235820782891 6.055080467784195 7.430734064665697
Pd 7.836046338630741 10.496462011400324 7.641621574180632
Pd 3.036688334353124 10.10122098480096 5.344665725106899
Pd 10.825064999740794 7.320428677111081 7.196692040983788
Pd 10.286897652739732 4.78737665471613 8.212721569419958
Pd 9.58037095710607 6.109343105184587 2.935691414621808
Pd 8.60889662723641 8.425732775836002 6.129553312875457
Pd 8.751497319840086 3.751329307752057 3.885914480531045
Pd 10.075496428030236 5.385092135391789 5.546954932572034
Pd 6.380292080414998 8.10868517908417 7.718902906509745
Pd 5.794145050508415 10.122703454877325 9.3593383380228
Pd 5.911006096783629 5.558663088734389 9.212208725448026
Pd 7.561176541235799 6.085663893028016 4.788453216933647
Pd 1.246429012811533 8.138583264559584 4.731490025713004
