43
Energy = -184.31307706 eV
Pd 1.7169112450005926 4.554082982912917 4.251131856032434
Pd 2.6706247691499976 6.020245042153155 7.301006419320222
Pd 3.887428283001769 2.6730968619219437 4.25881346968702
Pd 2.517859261624137 3.5304478441176865 6.535119338439735
Pd 2.956367162113829 8.59699062508735 7.8668490860700055
Pd 2.854619358640538 3.7235407795465405 2.022713346054025
Pd 2.1272285615205675 7.046752485599234 4.980668830012726
Pd 4.5506010552557505 6.756698664974563 9.042398840674386
Pd 4.963782082286145 2.463733830984874 6.707381024685197
Pd 4.191990841366564 5.1616025765824505 5.068927328522463
Pd 2.3588360258700134 9.56461336780713 5.536683810550273
Pd 3.8799578104502994 4.168009474371865 8.732563575321985
Pd 6.475831223126224 3.4603082988587683 4.755247914567706
Pd 5.369109403751654 9.395748533708254 8.614955333854038
Pd 6.480550252031497 7.800285471432206 10.583389413174274
Pd 5.316002094932261 4.4202713651090955 2.5715990258903645
Pd 3.392323341140065 6.2441668131721615 2.7165516244981958
Pd 6.027332502569663 2.7468092732618206 9.20922857653074
Pd 4.8207838758016175 7.490128981570567 6.324842007495351
Pd 4.915621670262122 10.0868092867641 6.025278578836853
Pd 5.891828936073975 4.97432075191537 7.189491987665858
Pd 6.718960886871669 5.258528556366454 9.769575510501006
Pd 4.214585869603222 8.427810936076748 3.9289987078587365
Pd 6.031848490404574 7.080785693419185 2.462230724413338
Pd 6.985636598023951 7.365897775541911 7.9037903355057155
Pd 7.618032309604397 2.8052322714280047 7.053441378897245
Pd 8.57018495480653 3.290003775140796 9.562694643982727
Pd 7.957458849617326 9.661892509994683 9.436025808592316
Pd 6.623759219631796 6.192400160234792 4.828399003337034
Pd 7.407577626799892 9.779480593550803 6.825006718033215
Pd 8.612305138532273 5.1857939436699825 7.725577176002705
Pd 9.009508846223241 7.197984027439627 9.601133263179456
Pd 6.7672240050623245 8.855087946920557 4.451844754544073
Pd 7.883252339070005 4.9250296411468755 2.79952778667238
Pd 8.753861412995763 7.288632243428485 5.994686401706679
Pd 8.660197486521085 7.420610160002909 3.2593135832719393
Pd 8.846124363061804 4.50456774652666 5.24223408122134
Pd 10.518086421192608 5.075857204318324 9.562776379546701
Pd 9.840192763411824 8.993790293818645 7.675741979597508
Pd 10.933446939978271 6.477171133735888 7.379442336409967
Pd 10.651278033452181 6.200940896097333 4.506664145498052
Pd 9.295215852647308 9.613784179506979 4.8617965336770235
Pd 11.496458091394771 8.392892420806543 5.672844277675441
