45
Energy = -194.36318604 eV
Pd 10.61427755107187 6.642431240407561 5.3505667021477015
Pd 11.495204781193156 4.2744607019543 6.346983120773613
Pd 10.140517695387187 3.4562434246955522 8.459521558005099
Pd 9.284386908120435 8.892043385511487 4.557113187773821
Pd 10.91101998363019 6.137157836987677 8.159557435844741
Pd 9.304207083674333 8.077310706171627 7.179020735042038
Pd 9.123055991523845 2.6417592920131683 5.957424800995142
Pd 8.698942232718752 10.604520794844644 6.563917330320823
Pd 10.270453374707301 4.324735597498662 4.04213453764311
Pd 9.618341446691268 7.855309408259777 9.790010642841333
Pd 7.716471132292218 9.466727401266539 8.810950520214105
Pd 8.988829911013 6.489945516166617 3.0557935402950664
Pd 7.228598296305779 10.763439837298717 4.3660666350898305
Pd 8.624887241252097 5.43439759311747 9.452350637684088
Pd 7.667826124116297 6.92131200048526 5.235723475798034
Pd 8.843683008237692 5.147987078249516 6.677237362415583
Pd 7.502270969036985 3.335402211223117 8.105387076681922
Pd 6.969672822649758 7.388215486666465 10.468073495708289
Pd 6.935620829249724 6.8879965096530755 7.836818245625409
Pd 7.065548276538941 8.44485804999373 3.149521592389336
Pd 6.4596002157071455 9.171504932009247 6.386016841179392
Pd 7.709589800178849 4.196291528238877 4.189565569560257
Pd 6.259600923701678 5.94039162759177 2.803555773360027
Pd 5.781287876247881 10.491411036248596 2.1315712139220753
Pd 4.648205146658485 9.78659459164874 4.395556377604556
Pd 6.031312980870185 4.992076136477589 6.176038999317789
Pd 6.395019619062737 2.340450368183214 5.786287913201166
Pd 6.051910107139292 4.955789163816401 9.6129892012776
Pd 5.118070073026142 7.156995393360154 4.927958698187882
Pd 5.213390621659987 8.720484326208439 8.845247396145945
Pd 4.89107662549921 3.300757785062197 7.869874473078553
Pd 5.102964686004278 3.789557833786695 3.908782235718561
Pd 3.5923834206212355 5.703853612249998 2.8067459817276585
Pd 4.557997575664337 8.097102432042117 2.3092594939830833
Pd 4.246056440199036 6.179542265559165 7.857396318123935
Pd 3.7901502916474965 8.755104254980493 6.6223970305420465
Pd 4.257890882480128 6.744696892268473 10.46922572135371
Pd 3.2828481263633904 5.1958520695353725 5.352583344945826
Pd 3.5734388493225957 4.1405402122373145 9.998595422296729
Pd 3.5819717379508336 2.5832195381301926 5.712665243289183
Pd 2.624839033742148 7.769609908168908 4.4095643813657865
Pd 2.629730753552615 8.392347643234952 8.94811959414517
Pd 2.360087957924779 4.167352123537585 7.589586168713353
Pd 1.8239918994821922 6.8293979134022385 6.86070319372999
Pd 1.7620264047145153 5.968863609680468 9.443741607368395
