42
Energy = -180.82651904 eV
Pd 10.726256285676136 6.956884932330319 5.15870728042113
Pd 8.138519198724628 5.05481076687036 2.6482175743647365
Pd 10.410762620822032 5.240365446287985 7.306549780704564
Pd 9.462774851490721 9.194961763318279 5.638736300405756
Pd 8.977385019384496 5.0482047885134715 5.061564818852199
Pd 8.41762338164704 7.5309566649588255 3.741039945026398
Pd 10.738669588972819 7.977823051867431 7.657810515497453
Pd 8.957118121730524 3.002941859173348 6.784611989649285
Pd 8.18998831785475 4.826122499948803 8.767252902435537
Pd 7.464026229296959 3.0467495099918613 4.294017621858472
Pd 6.395908687592366 6.32639759501266 4.878946678014711
Pd 6.383591375744824 6.85615160503843 1.9823638320198027
Pd 8.953194437917452 7.246890433654288 9.474860804526338
Pd 6.811088316024108 8.76466530957631 6.237255371993391
Pd 8.015176709482867 11.343932807604675 6.276830823209745
Pd 7.780781382427085 10.215520934020372 3.9024410979993
Pd 8.368631220453016 6.853836433273445 6.896489398714033
Pd 5.712731027088055 8.780152254019713 3.5655436952612143
Pd 6.743395055773777 1.4274734667552456 6.240144112331682
Pd 7.185855000593094 2.3711016687436692 8.715743100915565
Pd 8.621111093194836 9.579282906755921 8.198016587381902
Pd 5.550110922489523 4.516279163572083 3.0670362281832007
Pd 5.357259002269142 10.725829867216593 5.472550360581864
Pd 6.219352816435076 10.803380478879523 8.144173040966225
Pd 4.079646985239982 6.701516992432468 3.3145244922917985
Pd 6.588293263678786 4.228918023905889 6.600315114888892
Pd 4.854908518734533 2.8407984116793488 4.951728613520763
Pd 4.734271724974521 2.4439567470978294 7.687619007345826
Pd 4.129619690946602 5.312000004142278 5.982235082363008
Pd 6.510909515862016 8.447560083452053 9.309356012269344
Pd 6.782306834240031 6.216454523193494 10.595000052190011
Pd 4.247394531765859 8.10489846209307 5.60200619852143
Pd 5.770583381359769 6.613432401205095 7.574988509629317
Pd 4.284864766784868 9.069395393090124 7.977755112131236
Pd 2.837165886031306 4.366132846508647 3.9509512917746488
Pd 2.5705353458432767 2.792975599347117 6.21870965792836
Pd 1.9767830902531813 6.968901120905068 4.796717190414506
Pd 5.547674164862522 4.408438758064531 9.21642209987961
Pd 4.246605111590669 6.76537790864044 9.644651356154073
Pd 2.6407864387951485 7.07842232850923 7.47319434345865
Pd 1.2598430171986785 5.0457966510873185 6.387100616455396
Pd 3.097897327605697 4.5532203981613835 8.268110354597653
