45
Energy = -194.00346774 eV
Pd 7.718183654897042 2.2860160359190105 3.4215630731173197
Pd 9.11432870932669 3.8885504307216623 5.113866058871522
Pd 7.209112860209591 2.0929541839092063 5.981127643285637
Pd 4.97976084874814 2.4436824555562167 4.284382193592349
Pd 8.23606238554351 4.912780132831746 2.8495771973272355
Pd 5.999527324324709 3.70680757637072 2.078177574842673
Pd 9.841241946722462 5.868752903459644 6.704551999296745
Pd 8.791477721277488 3.4959387812179306 7.70410528758803
Pd 6.727834679766676 1.8720212626311044 8.53001555935339
Pd 4.86274502540307 2.94290607982473 6.930482470854478
Pd 10.213570104907006 6.154777742409497 4.115554691537481
Pd 3.8657533471144463 4.775981387558409 3.185886375358017
Pd 6.48631877201761 4.455784131617849 4.884502793243537
Pd 6.6689348590309585 6.131091771677854 1.0589198024595807
Pd 7.729327354614583 3.666633578062423 10.18658630873386
Pd 8.434074368099777 7.530913165031469 2.6720183442401133
Pd 4.318746023594157 4.980092192472573 0.5578743107083383
Pd 7.7317250462155345 6.648348047438946 5.423135714363457
Pd 5.072457856934059 3.7432800452769937 9.556797299464117
Pd 6.618619247406245 4.873766864103083 7.5467262464882525
Pd 8.922315436051386 5.802815938188629 9.11964168717094
Pd 4.159849719786731 5.158031116986012 5.725373629997796
Pd 9.423064358761525 8.556752130233054 5.1589221328581125
Pd 9.413793611181667 8.255971031097983 7.9157164357377345
Pd 2.9706385216597617 4.381408557558259 8.074979601965836
Pd 5.8419819770244565 6.638896878478458 3.4931272959702024
Pd 1.644546497615774 5.772556392128091 6.157565262816401
Pd 6.417694243640288 5.912924727029484 10.198514351054337
Pd 4.526359852545226 6.557202705440078 7.971924867966396
Pd 6.976193689122829 7.468656358877772 7.9691228327398544
Pd 7.3592449149353945 9.656058371952012 6.514524691728663
Pd 3.9417202151392106 7.235902347665306 1.7885971156276779
Pd 3.018277194069184 7.129226303221859 4.3335739338930965
Pd 8.187140640562284 7.9282587980219805 10.479136953176491
Pd 6.183321350028107 8.711820640079841 1.588938284474436
Pd 5.297488236623998 7.8694656473352556 5.748092877081447
Pd 6.982743331902117 9.211584729120704 4.0577399216016925
Pd 3.730365943192464 6.0063529922258985 10.345674177553839
Pd 2.7731237590670674 8.167575341339207 6.784562873012825
Pd 7.32496035852379 10.012502363347014 9.085966615393216
Pd 1.560515825598624 6.511937628341851 8.708972243631504
Pd 4.389280348386022 9.228049756265431 3.5324962867161256
Pd 5.522872128321406 8.345226652095091 10.240710960971505
Pd 4.965936645345304 9.488104215939636 7.825356240781331
Pd 3.0575015892846875 8.541775008711065 9.418715160755468
