46
Energy = -199.08306037 eV
Pd 10.107311773686876 8.204116051592468 3.1254969656205964
Pd 9.55423394012917 9.04687801243254 5.69208582301535
Pd 10.72531675704245 6.627499366604088 5.153634046652297
Pd 7.749988242161463 9.37663433594637 3.6940693670516613
Pd 9.469391331497008 5.582580045349079 2.70315228376703
Pd 10.542169417879741 3.9354128206177963 4.457087152825463
Pd 7.584700289213035 10.878357444412043 5.8950663766563105
Pd 9.320360276173485 7.165968627557841 7.4608661841065205
Pd 7.893110600801539 7.547052921477565 1.7554208253727899
Pd 10.255993527974194 4.728966697867503 6.939786077061482
Pd 6.8268774031349295 8.200635178782338 6.224684158573443
Pd 7.994449832651772 9.462396270847723 8.185050721327531
Pd 8.286178526802244 3.1768944935796988 3.1269187814283845
Pd 8.163033798636212 6.782658401748966 4.607875810200867
Pd 9.870425966941045 5.433807454021928 9.394017647619636
Pd 6.746736105427414 5.352981426854806 2.7079960349497645
Pd 5.360352748097384 9.967368725049937 4.603749225893815
Pd 9.597305849120156 2.2249990153775707 6.344950004105524
Pd 7.892539208680198 7.267726461095293 9.761209622350393
Pd 5.425836400979672 10.306634288005103 7.352353597551452
Pd 7.049789288638436 5.7991803040378365 7.705668539606513
Pd 5.7104897487680155 7.667481748850648 3.3836701452455924
Pd 8.064895836435248 4.33726597524118 5.4947625179838795
Pd 5.536679229089804 8.087653945381025 8.749214783010855
Pd 3.150137988609293 10.479747716207862 5.8952915192754105
Pd 8.219590080240371 3.456225787277506 8.270503475628537
Pd 5.68697672677683 5.786821723460641 5.3574371060496135
Pd 7.690224173827396 4.675577538588044 10.600800272788398
Pd 4.2363554175126055 7.902243793294574 6.403825411913034
Pd 3.206499371536101 8.290891168871743 4.04138826349299
Pd 7.359287661048885 1.6481387087462818 5.144864155087309
Pd 3.070432288256843 9.38384616960825 8.351647737627287
Pd 4.042019537611076 5.5452412036244 3.3538118996435475
Pd 5.680584521369848 3.3558476319503456 3.9986681119655367
Pd 5.4955148195033345 6.0392951877681496 10.311641475276064
Pd 5.688261198647902 3.5688842509020064 9.335944239894848
Pd 5.934567065849796 3.273641279962187 6.728646680587905
Pd 1.4482398148061282 8.4834425968943 6.210104757011893
Pd 3.4159656574017565 7.571255308815803 10.360086046534928
Pd 4.399738389885804 5.408390297511835 7.615004070917836
Pd 2.4682229153946116 6.160736809598707 5.485941458294834
Pd 3.5416238358108703 3.7790535199237714 5.479831672570187
Pd 2.2139232363755963 6.860563175162226 8.147542754926295
Pd 3.6111965610206154 2.690582012557474 8.006230959260071
Pd 3.1156167024310997 4.823297523203659 9.779387007017869
Pd 1.7212083491047139 4.407098406281512 7.359751693562449
