42
Energy = -181.12808851 eV
Pd 7.112786056184217 10.513479118216956 6.111183716212421
Pd 9.811009756731401 8.528880304238077 4.445599731951059
Pd 9.400693609769473 9.463619858511631 6.87960696634918
Pd 4.9408149725877415 9.72412793879206 4.695715020760177
Pd 7.36968839165883 9.752591289362533 8.680784273905022
Pd 7.499938493392322 9.624875113256735 3.6552707648169673
Pd 4.981855151298244 9.50138661930432 7.305102220091226
Pd 5.0189374597949845 8.90796994978289 9.87176339845321
Pd 10.513848585236493 7.014691726256764 6.628692931730151
Pd 7.527377129108468 7.8849766574702915 5.683537071509806
Pd 9.493183650220889 5.886441221057675 4.491212986477303
Pd 5.742981555850214 7.738024197595455 3.12231608636928
Pd 4.911680487941732 7.118936333012394 5.67502721715459
Pd 7.297645442530132 7.773744098362989 10.660406408180082
Pd 2.7333558520461505 8.703925590682127 6.060334638846611
Pd 8.263455517244399 7.253362044616327 2.6156195182772723
Pd 3.7420789846241957 7.244642092643119 8.149692748489844
Pd 8.95514270038774 7.522589879295195 8.647537330386829
Pd 6.428051645882621 7.352836815421661 8.016810901761106
Pd 3.154361773918948 8.036264537252631 3.505653466873435
Pd 6.751740162388573 5.563956335076459 4.516758488190891
Pd 6.3099759308170364 5.620066723162528 1.599585815179831
Pd 8.554904217825902 4.564922975212363 2.421019016822214
Pd 2.5577106811220967 6.039505274098972 5.181189398130402
Pd 8.120821333949824 5.395517593679815 6.806131782505206
Pd 7.52301085498163 5.294370513663254 9.48047887639942
Pd 5.14877085319115 6.213307954533519 10.233092349540497
Pd 10.823485473910944 4.355894645357189 6.167489587448636
Pd 4.21935927430507 5.578140978766046 3.188843404218012
Pd 2.466471474307291 5.710625478503982 9.80075082916715
Pd 5.4471998730581195 5.035424881105416 7.31484957402088
Pd 8.784608153822562 3.3165783828772195 4.706867029052782
Pd 1.3199869633999315 6.744939641684894 7.424493913962157
Pd 6.185358297797099 3.397185891348003 3.3083860584843414
Pd 10.054451395963131 5.107160551002268 8.640660070059205
Pd 6.573989123605105 2.969440113864668 5.95743239248861
Pd 6.633576626643902 2.989910851916941 8.67568904015727
Pd 4.233267124827684 3.88667505052371 5.14072462178789
Pd 8.912675848942367 2.9490260397056813 7.3665666986411
Pd 4.32612560864119 3.8511962169015566 9.52973199008084
Pd 2.817596278113599 4.548060883586237 7.361141166707263
Pd 4.3628284835382045 2.3475288898588857 7.303051749921121
