49
Energy = -212.73786717 eV
Pd 11.127768525995291 3.2419607235169026 8.165941100288372
Pd 8.488642271293612 2.8240569317092614 7.437037032825063
Pd 9.202033285298706 3.710557236194791 9.855423396793746
Pd 10.375712610142827 3.3072195417799115 5.615897036574963
Pd 6.628044016316144 3.5564255104660867 9.232020221422145
Pd 5.988328141155113 3.237723382075533 6.600685918599062
Pd 12.047936341943474 5.230053413697156 6.696166166228882
Pd 7.870030152820718 2.224532496455073 4.815070406573706
Pd 10.745825490197086 5.931643696909676 9.24277360217024
Pd 4.134113956096927 3.717228893129704 8.501977103846725
Pd 9.358032536474107 5.3021296080849165 7.21055815912357
Pd 8.010264050935296 5.995580417380569 9.91441898523966
Pd 9.9301988280379 3.8464341826362323 3.1138947251073996
Pd 5.334639873913202 5.704637623779974 10.19471233290051
Pd 6.804165775074013 5.626065911207649 7.5450964776132565
Pd 10.450230371986065 5.923960943560351 4.666300514628647
Pd 3.535465412225507 4.187033261248475 5.9114180428736995
Pd 2.674841388482458 5.421623153266426 9.996778991486638
Pd 7.419286143735558 3.7192304101355744 2.4459811837467202
Pd 5.377445008065757 3.50643028839543 4.060441285927636
Pd 10.866764228823891 7.555476648600796 6.677936784812302
Pd 1.6282017473001484 4.2260641754988075 7.747683740259887
Pd 7.927701482898559 4.775290687242684 5.019116146330511
Pd 8.92856155518625 7.957520502976069 8.43406068747846
Pd 1.7853662369610233 6.8241791636074725 7.94768083372933
Pd 5.821653120815129 5.815005082377172 2.4648250003583296
Pd 4.341856536702046 6.226643450807578 7.729777514361016
Pd 9.622362903467481 9.84168076869615 6.569457985729474
Pd 3.685894276098803 7.913991933267215 9.75199780601199
Pd 7.224979139310602 9.899669897994757 7.615915775753067
Pd 8.006293017185847 7.394677124831671 5.954557125060105
Pd 6.29839066672927 7.865499695181799 8.981088451111706
Pd 8.53930622244858 6.198309257408644 2.886530936348577
Pd 5.623701609187749 5.926670435989551 5.125936883312986
Pd 4.945962294913475 10.156640578555676 8.872413818411761
Pd 5.492299715920321 8.359986421667573 6.1304551724629475
Pd 1.1550328003957564 5.5133348423801785 5.404399990225106
Pd 3.3189069364270605 5.247361307023233 3.4470434616883217
Pd 3.2200211080804912 7.0108373708585265 5.562558274033139
Pd 9.553458562457742 8.470898570079104 4.186695712271503
Pd 3.1074304796558483 9.09362182192541 7.378445430434483
Pd 7.525983691162518 10.147691284147212 4.9878657097277745
Pd 6.853691006610412 8.048062538184773 3.5499667088757847
Pd 5.002933989037244 10.890230711581951 6.243718817808348
Pd 4.259850302157151 7.788504060224731 3.2347848482775556
Pd 0.8858054679219269 8.337906540960704 5.9423186140402775
Pd 1.6040553685321428 7.454022142270467 3.478228687531495
Pd 5.287395646286913 10.219264811196592 3.674114022262397
Pd 2.971064476593696 9.614359318293916 4.765761146779674
