40
Energy = -171.35133368 eV
Pd 8.631188851443124 6.677806657354162 10.175770121689192
Pd 10.4751713702952 5.572704791229804 6.032087237873311
Pd 9.968855603337628 7.415539113752479 7.931171730227183
Pd 9.118013514251627 9.887360415307297 7.239539211925171
Pd 9.376908102232733 9.21485796275498 9.825352009219598
Pd 9.601749628615277 8.045568943457047 5.295813442331732
Pd 8.796142584141835 5.781956163050207 3.9406729837098533
Pd 8.50567484505459 3.7632576117659466 5.784299193022022
Pd 9.122618472080145 4.80566034874499 8.2758856123444
Pd 6.722895377403142 4.087013857672035 3.8014451091398915
Pd 6.599150975957499 10.723442963114543 7.67997041431991
Pd 6.096267784856749 7.556912340952405 10.649984909564173
Pd 7.824256971576501 6.352822338977719 6.479627351038864
Pd 7.329046940470777 8.200051717818372 8.352053118406607
Pd 7.115801705062041 9.07696244445449 5.670873799567932
Pd 7.930594293201308 8.265882303476642 3.258840460032866
Pd 6.879163887252919 10.091956057566366 10.260412970078619
Pd 6.902834056738249 6.1046691425890405 1.9859041550005923
Pd 7.148837110697891 3.082343169420291 8.06634631727675
Pd 6.573396003976993 5.541313590382166 8.96397989422334
Pd 5.2819190187511165 7.188284291980935 6.955335421839664
Pd 4.031709049797042 6.516347414692324 9.234574142348436
Pd 6.088085960876239 6.697105365842818 4.442817920932752
Pd 6.427713165463032 2.085107542420953 5.640531869139829
Pd 4.772336729930785 9.151807352146815 8.91441642606751
Pd 6.103339743047041 8.59832107537903 1.3865486466780297
Pd 5.76128228526728 4.584711322808232 6.347162226474709
Pd 4.435017584740348 4.001863133597787 8.589008271236843
Pd 4.526640316272831 9.705109907968042 6.267241554197511
Pd 5.220648484477768 9.158045025517474 3.7944652222780135
Pd 4.816290446178315 4.431417747761207 1.9392764479441336
Pd 5.036185552285684 1.5168118803887791 7.911456729592002
Pd 2.6900921664168114 8.150115630558668 7.5306861549539965
Pd 4.544528230434965 2.490480505104932 3.756783461878147
Pd 3.3613841743905604 7.575782739727111 4.992282955358121
Pd 4.273627421380783 6.98779071110277 2.49999767757482
Pd 4.251659196179534 0.5745704482200561 5.538818548355629
Pd 3.9156157490562826 5.031605841759811 4.375105541989377
Pd 3.0257673139079557 5.574118455099426 6.844218675377824
Pd 3.554227632765947 3.035866873545686 6.216353468149762
