44
Energy = -189.84603217 eV
Pd 10.095631734122906 8.545749353978074 9.478953339330957
Pd 11.744222360802418 7.751302500835542 7.548497380340659
Pd 7.7247325162498965 9.778172604330436 9.07736428427668
Pd 9.672678708114603 9.289134232834956 6.94102127757205
Pd 10.389584338369438 5.84950092304066 9.268306380066944
Pd 7.927578450898074 7.079014501131745 9.629386797554382
Pd 5.530337469738224 8.277031856868236 9.687454307661428
Pd 10.604196984155669 7.4191820087676446 5.002788025420698
Pd 5.305559811718857 10.146162081410615 7.729614456106439
Pd 7.578545787207827 10.859123411592911 6.485642389767022
Pd 11.495182752087224 5.236495199102654 6.743540500120653
Pd 9.202448565597745 6.682297287325629 7.084837956529515
Pd 6.759347166182836 5.6060071823276285 7.607806334230548
Pd 9.66204780747901 4.8876507034993715 4.925993072751184
Pd 8.098842414691184 4.425967152569633 9.889154560350677
Pd 9.130541571119705 4.077393336508731 7.523261223604897
Pd 5.72470483704653 5.560083973379184 10.086572184171064
Pd 7.1231531255648735 8.210257884920894 7.096322022129176
Pd 7.54224761306836 3.443968884288931 5.603457618366988
Pd 8.297772478798136 8.80752850721178 4.661961398901773
Pd 7.301040120194968 6.210317521377283 5.0876794548348565
Pd 6.218945911483673 3.1450729611021986 8.219914512712934
Pd 3.618564114374111 2.461535160534684 7.394175088476406
Pd 5.727704311513224 9.436204761376658 5.166356186001542
Pd 8.721892818056975 6.7262049986165815 2.9909728878172817
Pd 3.0710654339599404 9.145267943037952 8.787110883673932
Pd 3.938928324181042 4.853438535650814 8.28936715480235
Pd 4.7742880862935415 6.900290110695161 4.822952655712834
Pd 8.173095415265248 4.010385452180868 2.992275636770817
Pd 3.318532067782771 6.766184946602964 9.960688722895947
Pd 5.672732586832901 1.6451890481098406 5.950873029703274
Pd 5.077632340818785 4.407449429586047 5.875927923219881
Pd 4.734089462315856 7.272196801540361 7.391720235740964
Pd 6.333810285007334 8.179088364858421 2.919468951544143
Pd 2.434220074601314 4.6209360459562046 6.047232952329128
Pd 3.3746199094837217 2.414499289096028 4.7287214461044
Pd 3.683740657291134 9.180126467045353 3.545889703375968
Pd 3.2331454097712777 9.094699696640575 6.157503773830294
Pd 6.096761960884108 5.55105948609637 2.73412497161654
Pd 2.184175173406105 6.867684741126486 7.4138765556942605
Pd 5.738857205882804 3.0598230557879265 3.6329651148877615
Pd 3.5751443935443468 4.769962558889871 3.5687175234693975
Pd 3.8960149454867614 6.958892240939905 2.1861470294845513
Pd 2.227586163479047 6.988297734423608 4.6534613640745555
