46
Energy = -198.35681715 eV
Pd 11.062514787639735 4.275459711980295 6.703612999903776
Pd 10.558747529760295 6.350847734971272 5.19450542332067
Pd 9.61357021412558 8.614351852604075 6.320889525004382
Pd 9.2054600122884 10.67673354066638 4.725563827329798
Pd 10.288344755859635 8.4202835387186 3.6361761571445808
Pd 9.400832507592192 3.931847455205592 8.758034892341785
Pd 9.913823589749482 6.445192103878526 7.817729029851358
Pd 9.359564444581215 2.2376909882606455 6.629344574196903
Pd 9.324312941712718 4.006381395995352 4.595305054617382
Pd 9.092225347895267 6.053433789221418 2.8133679343960156
Pd 8.445324131402158 10.770406490699711 7.367718802774998
Pd 8.398309339921592 8.45752549820411 8.72495749104927
Pd 8.036225173644706 6.047014694531547 9.683180402472914
Pd 7.978548349125738 7.0565499680362205 4.943433098631442
Pd 5.0251569363151125 2.484852864820679 9.417728813285361
Pd 6.904125332245886 9.592932201849415 5.588500581614017
Pd 7.826827936408426 9.041778414953642 3.140615573363913
Pd 8.032535129221888 5.0243341330072715 6.677526222146637
Pd 6.495592315347175 6.932172700985709 2.373754821740895
Pd 7.109426572099575 2.5076112601796012 5.261562919481227
Pd 7.114066345724613 2.741676340774994 7.917622258683704
Pd 6.633398891110061 7.292991436035814 7.214508425132559
Pd 7.37002847655629 3.529945959553538 10.437281139095623
Pd 5.208916200048983 9.084570513734862 3.5425581193122753
Pd 5.362755361655728 6.850918383079553 4.915714534329815
Pd 5.8142863642409095 7.585814757616374 9.686082283782268
Pd 6.082460882768465 9.858497029652112 8.157179765880468
Pd 6.842236591315958 4.7807061858943305 3.888747719480422
Pd 5.783668362690812 5.033242064316317 8.8883841742567
Pd 4.7937698968483895 1.974921782825071 6.720986017364648
Pd 5.3968538593322215 4.537186103622894 6.299651870637473
Pd 4.409412581520485 9.038683427978384 6.172673902503981
Pd 4.015364574067131 6.570432724935753 7.5591895901534185
Pd 4.355755758424689 5.360467376513371 2.784643759845885
Pd 4.738141424526221 3.034862148157578 4.216451943640083
Pd 3.377734390350914 4.0186275924094925 8.078367447960444
Pd 3.6844059718599804 8.944127737014888 8.74897933942532
Pd 3.0872161445644415 5.444645295636786 5.090736056560791
Pd 2.424877850378634 3.4904997706785372 3.0581453266737246
Pd 1.4308891304276212 5.474510630088095 7.054175732547945
Pd 2.914095012792003 7.944563395126774 4.217240007483484
Pd 2.4845014891949058 3.002350171778046 5.780925896227268
Pd 1.985804925329578 8.122315442984403 6.875254333773553
Pd 1.7012574554342674 6.036044167951643 2.774735047364916
Pd 0.4847610062898413 4.4128195986582766 4.672911255163026
Pd 0.5462198931153963 7.046100585587085 4.988185914212328
