45
Energy = -193.157606 eV
Pd 6.958951369736956 9.789939709597666 4.990347659489745
Pd 9.463781403191042 10.571785050822022 5.191071203007413
Pd 9.046746132801 8.220370750261997 3.9518943942587876
Pd 4.763391652323088 11.316707644380244 7.128272764396897
Pd 7.418363131893216 11.391605544452904 7.036787393062855
Pd 4.365327816029491 9.986342221294054 4.9509861369292425
Pd 6.645083336417562 8.276025400148352 2.931936134892118
Pd 4.037196617187614 8.629354971541458 2.762701083203159
Pd 10.944782997228627 8.387758919045176 5.771276888042308
Pd 9.808976693499654 5.930594569019672 5.201519155638596
Pd 4.58260211468042 9.955486235158213 9.428798803166243
Pd 7.75810272199177 7.379768500660703 6.149988986449166
Pd 7.52853749554342 5.8926021323864495 3.8512852209628483
Pd 9.04320555031507 9.35160542458562 7.495547140033166
Pd 6.1163518400112356 9.014999235072715 7.497597119247594
Pd 3.4641794135634636 8.841135043427384 7.227708853148718
Pd 5.122333675654748 6.132251488441466 2.8016046798419394
Pd 5.228884693138065 7.448885983641469 5.300435700966967
Pd 2.6371122556534625 7.7707425096670395 4.945760623936502
Pd 7.388572005744502 10.082823949443155 9.54749505606238
Pd 2.493907248611415 6.4112086589460375 2.7182613591998903
Pd 12.117989485911796 5.892446324245582 6.404298135250918
Pd 5.806532419175496 3.6999276868074036 3.782335276031051
Pd 10.818939003511632 3.550856194140349 5.5739778059176945
Pd 10.269251596509468 7.045525942404757 7.895458148407311
Pd 9.882214666801381 8.705446436503873 9.998713819159217
Pd 3.608275376889071 5.037558088291245 4.647655639410304
Pd 8.223640500876515 3.6869408918977196 5.239478785170345
Pd 3.178369564524961 6.200188079456577 7.011760799332434
Pd 5.934195426621852 5.01737602977159 6.014303653352843
Pd 5.624134239219719 6.481556555199658 8.156167009918072
Pd 7.890317107804453 7.3901362611134775 9.077586070517464
Pd 8.166755129109227 5.165015706191863 7.513203234159694
Pd 3.5268736028805754 7.383639792666223 9.505688560532372
Pd 6.065265163286876 2.3306193324319575 6.160391192727412
Pd 5.947717720730588 8.064536426224667 10.587718803586307
Pd 10.603564720691436 4.360511663673658 8.013888862014088
Pd 9.98401470105272 5.870524042014279 10.213109373201616
Pd 8.147543123116355 2.623752760206114 7.813544556228183
Pd 7.501974146243156 4.972311141495589 10.129007496949804
Pd 3.324350014013178 4.699737417611963 9.151232654636559
Pd 3.7340360537507555 3.5293428221009484 6.780684510791567
Pd 5.130820532423131 5.588449574159115 10.803579426971185
Pd 5.780066990562445 3.7563522106360336 8.541209344259478
Pd 9.410028142334186 3.2511985159696666 10.059200911081783
