43
Energy = -185.57614044 eV
Pd 6.563990060518477 4.970912958027999 10.398861143958522
Pd 4.235371018412415 6.049602791602361 9.792487519832905
Pd 6.45490136608547 7.582835568605742 9.842286723524502
Pd 3.1511548617144127 4.045733734524351 8.333030601728188
Pd 4.299231903548467 8.413938369241038 8.542884491234942
Pd 2.4822106272845144 6.6366115517726945 7.762761807769042
Pd 8.966925411650221 3.946083973922946 10.447172400220058
Pd 5.7597932093264275 3.300160138084582 8.505463199027597
Pd 8.920127442817357 6.581240220335321 10.135208517004779
Pd 2.412839968057122 9.244924439390898 6.836136239275381
Pd 6.304997696191605 10.16367779234897 8.944416308670547
Pd 6.697577088924878 8.084967563588949 7.196478575540745
Pd 7.628748840663685 5.557901478425922 8.036072043973475
Pd 4.335581106489377 2.8650770793787204 6.218980046050432
Pd 5.11737002425312 5.597629377356881 7.374057678185874
Pd 1.9779240365078272 7.369330034584592 5.015594372950551
Pd 4.925022242026189 10.245790157312484 6.62776641645723
Pd 2.517355120704437 4.842345658908108 5.799921118233274
Pd 8.65951671008026 8.93029360286901 8.890181194055362
Pd 8.425689468216918 3.0075192679653746 8.076152941082295
Pd 4.417390194632878 7.572173580076359 5.872522183337985
Pd 10.200149006866102 9.696813645198437 6.862265514645655
Pd 7.621951970943647 10.437970840265441 6.552278994465197
Pd 10.973961044896399 7.639407278119309 8.622065222525968
Pd 10.307540088739378 5.01294981044547 8.386747874274763
Pd 6.827350792175648 3.6934557972360658 6.040349650293278
Pd 3.170463134742531 3.1556926054762235 3.7759860822624116
Pd 4.856790027641038 5.128211011406413 4.670865015352818
Pd 9.227440351937934 7.225707698155587 6.734636750900528
Pd 2.7691935783997415 5.722628704204278 3.1374421182736416
Pd 7.063066240274516 6.382361783523276 5.301641425024031
Pd 3.512785604126162 9.557257032876494 4.345150913387884
Pd 5.811740269938721 2.7936432931299873 3.7357598990966037
Pd 11.392032886229511 8.328168497605075 4.951311241111612
Pd 6.229361606288976 9.178655272010797 4.526041893646013
Pd 8.781281137873371 8.837030357802156 4.680606554181656
Pd 5.708735623492195 5.219704063939108 2.2221778826229617
Pd 11.533539411457259 6.038883602892208 6.263299194178813
Pd 7.868790164701196 4.535727215028584 3.6239706430187306
Pd 9.288514975852255 4.533588674729908 5.935741507453268
Pd 4.711703099765259 7.473614630030579 3.180151824937048
Pd 7.411106800092604 7.2824333951492175 2.909806686336751
Pd 9.750964113221158 6.385747506550554 4.084306556707623
