41
Energy = -175.91620561 eV
Pd 5.073360716835717 9.097053250813518 3.7148218378603572
Pd 3.4384139069993327 8.137005216142317 5.557824004936757
Pd 7.015379120810764 7.1989754223408 2.842869549753567
Pd 5.031167090571028 10.102831386198629 6.468367137240911
Pd 7.583876240414537 9.779491899672426 2.69205391815965
Pd 6.521554779292736 11.348706026574499 4.658632808243515
Pd 6.473018505220294 4.58128727309792 2.843061081339411
Pd 5.149165628600682 6.417571998836909 4.472172554186128
Pd 2.3762718091207486 5.691353644774994 5.266253697869993
Pd 1.7983197156503705 7.332798490231662 7.383609147485904
Pd 3.736085567085876 8.793476219156846 8.439396550878353
Pd 9.371310935995258 8.092245688205095 3.826888767355001
Pd 5.5611413994019 7.468643930200842 7.02306774844086
Pd 7.105147880374632 8.793758529995113 5.225945808812422
Pd 4.168626910252534 3.9157850239441774 4.193180616429213
Pd 7.892157501141048 6.474311529007297 5.781777675661883
Pd 9.13977269180658 10.620726183749879 4.7890835462340196
Pd 6.05244603395733 2.018236184736094 3.9909171151535796
Pd 7.740082799124174 10.532656335581844 7.088629622663604
Pd 2.5394380991641365 3.012632098802194 6.073169308570609
Pd 6.02503476209136 9.906229491080074 9.002307498649081
Pd 8.534463799385957 2.8719197190245835 3.867149080497981
Pd 9.60395937337874 8.57872120552578 6.506629392796
Pd 8.966837108339853 5.455008576138375 3.5583841984311895
Pd 1.6052010830191479 4.733338731715807 7.824697467293891
Pd 6.673221808132635 4.227450481823705 5.425528479688986
Pd 6.791738910837715 5.224546642301683 7.886748049561401
Pd 10.726057958965093 6.408687625577912 5.4103515877914
Pd 7.7736885203335495 8.040876948852425 8.329397811324476
Pd 3.6006568882987913 6.101693854555024 8.904186486874705
Pd 5.043741458741109 2.282606320609561 6.423675003218069
Pd 4.400657118795932 5.022113811027481 6.700552432009372
Pd 5.707272314137799 7.393721851727812 9.880093762636672
Pd 9.332114195973126 4.210418101213537 6.032485000131164
Pd 7.77951568884423 2.062101236567569 6.467048672149057
Pd 9.652152684640873 6.1838242421396235 7.886097074204122
Pd 3.801741813894626 3.3399789309608767 8.620285613235824
Pd 8.81251342988552 3.677263823513636 8.585793420244196
Pd 8.017741929289613 5.913146484535671 10.0721743145112
Pd 6.386217222722245 2.700978405658156 8.679113742282162
Pd 5.541927312618746 4.740900658309605 10.167143829079038
