42
Energy = -179.90383632 eV
Pd 9.485268511722424 6.685395352612897 2.7146291655538874
Pd 9.044752025631713 8.424888082576262 4.754916328814683
Pd 7.172253257029492 7.929649888374101 2.985858790297066
Pd 5.152344139875086 6.627552909375118 1.8819486214848251
Pd 7.2818272522655425 5.111653098040141 2.470684067282445
Pd 10.49225584900016 6.193763666689654 5.097497665793278
Pd 6.815688452447107 9.917595051842117 4.880464053764274
Pd 9.462345765567454 4.174683572955878 3.7335275772795002
Pd 4.822721488032454 8.179816549858351 4.029860241843825
Pd 6.17569671593826 7.83889729336335 6.31982617022264
Pd 4.337655893024159 10.104464313072222 5.865432335211315
Pd 2.551408300262544 8.244665751263017 5.467989098707138
Pd 7.588753276721331 6.137223444278937 4.880299405253182
Pd 10.88022437369887 8.189717864393453 6.76155385052013
Pd 5.024399679370932 4.916184537018274 3.8875450990368234
Pd 8.663394134511496 9.992639339957687 6.807545880473354
Pd 2.9160738279629745 6.478238637576226 3.3277868713604777
Pd 11.025799874240784 5.562045826915487 7.57685378597054
Pd 0.8145667302964669 6.388366573745522 4.90596814549003
Pd 9.005719578887934 4.363298405549176 6.382310074569597
Pd 7.0931549149378 3.4522014950683286 4.754967904309614
Pd 2.5800027273618196 4.339453202477905 4.9731799977857705
Pd 8.544628018821522 7.086799293423127 7.314872950272772
Pd 0.45028417312137403 4.400335468322804 6.578532543648284
Pd 6.138154115123687 9.978436324134755 7.821303181814742
Pd 10.59077602136233 9.947035602485625 8.66968750139434
Pd 4.1411984640483785 6.160667123067352 6.046941795997036
Pd 4.852522993541766 3.429850192237578 6.109131000546354
Pd 3.8916633632486315 8.320823214989492 7.855819351788479
Pd 6.457046851468293 5.305412574115279 7.337802464384294
Pd 7.1855440732715765 2.7619456684219994 7.318162441799467
Pd 8.214114916916378 9.015818935273892 9.191144996520876
Pd 10.296860624798235 7.355563027110873 9.394473668926537
Pd 8.821488288328545 4.963906474927138 9.000841590519
Pd 6.102433205937732 7.5397312685766025 9.110987035891338
Pd 1.8946858638395416 6.486878329915485 7.438266169954345
Pd 8.088110086527157 6.900783858450774 10.783601301804376
Pd 2.76761926615618 3.8849222692561725 7.668056446616931
Pd 4.1102468508096015 5.8354523140717935 8.840256833726688
Pd 4.985735910976677 3.2102437252329006 8.856351705755685
Pd 7.498975665565739 2.8116173311307726 9.874858280824427
Pd 6.346642586141576 5.116420256642876 10.093301715581664
