46
Energy = -198.15978612 eV
Pd 5.703409711657077 1.4629458183934088 4.726609293875539
Pd 7.393526887240664 2.4743770367523283 2.6814447577628875
Pd 5.170113490950334 3.6061397587341784 3.35163548828198
Pd 8.050415585655292 2.1719088338112 7.78992451078706
Pd 3.6461269720028 2.9595849301113906 5.536484013447635
Pd 6.891052634008313 4.953698119805567 1.7584738991510693
Pd 6.086939366266806 3.491746847998236 6.491075289642384
Pd 2.6142071489772944 4.4215274874264425 3.623234451139105
Pd 8.148439282687201 2.3717584377250764 5.172659652912103
Pd 9.040679461509006 6.310895090545557 2.692740354519737
Pd 3.7389027404591606 3.7240705969617487 8.04592235781463
Pd 10.53270127866047 6.0904376372871 7.771078136694632
Pd 9.630327732388954 3.9523255194300053 6.5340890995689875
Pd 9.033579040328906 7.000888138331501 9.67711409727331
Pd 7.497117272629275 4.848507708016014 4.416431020931113
Pd 4.436047167183212 5.959041285106271 2.3522890408016353
Pd 4.9410665669829905 5.556447671279313 5.13355787176976
Pd 2.5059792764191733 5.28407044851805 6.211075766358783
Pd 6.1995662013662916 3.5070424669195224 9.135221571558978
Pd 4.229160218963961 4.955674826750015 10.349016388600138
Pd 8.794723197718021 4.3617034170481706 9.148442077248488
Pd 9.62741978720961 6.248275288739535 5.2557673731338905
Pd 6.590310936706855 7.226641741231489 3.1566587587687476
Pd 8.710018502850996 8.512617717419976 4.176669123601893
Pd 9.088812761926619 8.295645448360856 6.883171247333968
Pd 7.706187794907805 5.700316230385116 7.215345979625731
Pd 2.739797957680105 6.440818885330859 8.6676246521
Pd 6.821018394810781 7.934696971477194 8.330659245417326
Pd 6.532721516613659 7.598885247718238 5.747807781644658
Pd 11.003831689572575 8.551138800024424 8.779048153373934
Pd 6.746453079766846 5.833997322791887 10.14578860252839
Pd 7.182992443927647 8.308813033231099 11.08984675022149
Pd 2.901295713943286 7.00499494005984 4.210388269909701
Pd 4.404022538869843 8.611635295536257 2.6893586185028124
Pd 5.1348454193490305 5.930527397661997 7.776226632951996
Pd 8.345366039411305 10.599837097852287 5.683408117757638
Pd 4.73263200720618 7.598802001799755 10.235841117573374
Pd 8.638564387053389 9.656987058334222 9.350806322059457
Pd 6.00023036611909 10.17876807395673 6.7645480418896184
Pd 10.143614129867597 10.769541488070065 7.537600542862249
Pd 6.351251757756257 9.839826089125607 4.074886019635103
Pd 2.03219043513782 7.891378245568904 6.5440279259692025
Pd 5.86268912755786 10.091947255686048 9.45696072689012
Pd 4.165961377559601 8.991046122667402 5.3075679276360255
Pd 4.20187852143593 8.584570330819158 7.858064375043773
Pd 7.6486507524084955 11.730338512904375 8.060247227133548
