43
Energy = -184.26956446 eV
Pd 8.346157169207869 9.905346500684558 4.366012423059079
Pd 9.895469952095171 8.3622231845526 5.989954700557563
Pd 10.300421070310161 5.865832458441741 4.947294425798879
Pd 10.077077290397 6.262174936752853 7.653599991693636
Pd 9.582558846762609 8.699585889263524 8.723964517433807
Pd 8.141641816339064 10.166200479873318 7.073149659785488
Pd 6.746699158039201 11.73824164891674 5.499664671639304
Pd 10.31384403661609 3.7278813325359192 6.653468202284687
Pd 8.08712492373911 7.244401624552876 4.336809611190492
Pd 8.020140063902863 5.026823560421956 6.019348930552884
Pd 9.188912210939339 3.457219487508311 4.2061739998808445
Pd 6.175584343001269 8.94657492064134 5.527460113143751
Pd 5.82176953589875 8.11600595108661 3.1027863905288404
Pd 7.630990495127792 7.440699557276613 7.084716176710632
Pd 8.203689886039456 6.656831827582222 9.707511178073874
Pd 8.658413476574054 4.285649487608396 8.708856780457406
Pd 6.805685728560109 5.664961852483869 2.777647797590832
Pd 5.490551173332354 10.557196515016903 7.550040832576864
Pd 6.864350191834169 8.914838766142157 9.155647860598183
Pd 4.317078630661691 10.680905582024552 4.998189490475589
Pd 9.364590549079068 1.8312970010969545 8.374470525992457
Pd 6.267729944601574 5.365553244179223 7.963711100917417
Pd 3.074510708073491 9.55590088058804 7.061756879141359
Pd 7.819190290536847 2.36424261798989 6.366307939335187
Pd 6.853379390830515 4.540965279755069 10.646164557901102
Pd 7.683561846283153 3.340978957222508 2.008668868046481
Pd 3.671677819769637 7.995445166431832 4.834517092082927
Pd 4.820736352036239 7.5696661393165705 7.398268050817739
Pd 5.634475549994952 6.065719629292451 5.282288247838151
Pd 6.68697881213532 2.5164178005367575 8.860154744270822
Pd 5.5093365976575575 6.776198416995399 10.097953790045159
Pd 6.5037171471000175 3.4316175572593415 4.36492835127469
Pd 4.139398603658912 6.137378295187949 2.9296859573262624
Pd 4.185756806167224 9.064280783825577 9.477923514864417
Pd 4.438638778967355 4.173003309857525 9.316539458121753
Pd 5.021470237103117 3.6946675470462873 2.1508050232925644
Pd 5.315980273691067 3.2773354771274508 6.724907378135249
Pd 1.8957388490003795 7.264908937168208 6.80199889352621
Pd 2.0626280883483203 5.812170819663143 4.623143181457361
Pd 3.4702336642715172 5.144596898472261 6.92703363164289
Pd 3.0426416224476402 6.574640737460787 9.128367959415364
Pd 3.9156267451565396 3.8898775211682812 4.6294601359463154
Pd 2.4297107390933577 4.244248577948351 2.485869829655088
