46
Energy = -197.84890192 eV
Pd 7.035533729916005 4.539918291545674 0.868805288364483
Pd 1.9294843395824737 8.321407692602088 5.869572489076054
Pd 0.44160611085636636 4.056991758786905 5.088794961714647
Pd 1.5483927215300983 1.629381737070263 5.569420539507198
Pd 3.7933117261142235 1.2739992036618697 7.036671185273545
Pd 6.809864252005885 4.335491910491245 9.251598368418906
Pd 9.756162691266905 6.681335565927593 4.581045651397562
Pd 5.11595447576942 6.581740876689653 8.783651827360583
Pd 6.418362532959703 1.837885112890618 0.718464887240183
Pd 6.1814513870283925 0.8719973353676892 3.248926273862485
Pd 8.364603331440282 3.949533885600003 6.975819733742674
Pd 5.105268420741036 2.620008563822166 5.231230799565605
Pd 3.633985741921913 5.206353460375989 2.144985308367176
Pd 7.585481092339057 6.4899740612051895 7.706941318931647
Pd 8.656738835072531 5.454551536982908 2.763436963514487
Pd 3.8651566432052102 1.629332198098451 1.8552912561771857
Pd 2.6949883718497722 5.279470746512046 8.891267730977312
Pd 5.928989187836976 0.049650294674161106 5.818122153866114
Pd 2.5628838084663688 7.90368793449934 8.444427958828776
Pd 7.806278485079121 1.8938917137824813 5.194689130506632
Pd 5.226258425686718 6.310094898579426 0.16278333173090515
Pd 2.7640244173296815 3.8171696978939056 6.502932895262731
Pd 6.380784083741917 7.063137417535008 5.4168409792508125
Pd 4.688242988279388 8.640963182724477 6.825435491556681
Pd 8.925704070220617 6.1894784264205045 5.388466168034031
Pd 5.526600023452384 3.476066248484772 2.688146180297848
Pd 1.5416489202553891 8.330117235962 3.2596708986022147
Pd 4.134684761161377 7.875390794639711 4.205860633911325
Pd 7.124267158172006 4.452198440722148 4.605512953402822
Pd 9.756162691266905 3.7014166054518913 4.630154955981421
Pd 3.513604531987603 7.720401316707904 1.6242453007505944
Pd 3.620691502402254 6.32268563122238 6.598279835541977
Pd 3.694295395273976 0.5939664297446703 4.312541283625723
Pd 2.6012734344391166 5.724125583321108 9.763450601577356
Pd 4.499048540290671 3.6569593690451776 0.0676062105771175
Pd 2.6808399672497933 3.1622704858223485 3.7587707291569106
Pd 8.16105942593622 2.7303088012644166 2.6267638007482312
Pd 4.589980444008118 5.1098331931910534 4.55603636884808
Pd 6.09770171997737 6.477314016488081 2.7418256303556183
Pd 2.180644885525344 5.921013259264095 4.358905332055396
Pd 0.9464596644765016 5.976223435164094 6.941287188380348
Pd 4.353105685330354 3.292998520285597 8.66134567192771
Pd 6.4612263212198835 2.070943346930045 7.567016470387436
Pd 5.703787911813808 4.70586841609645 6.912035851759287
Pd 1.9512416840157305 3.4782314078839245 1.1808946900735673
Pd 1.0379046048121578 5.9840338881670005 1.9957678628174154
