47
Energy = -203.16650441 eV
Pd 6.79656970234835 3.8426722944721527 2.230708597790667
Pd 6.049506641000336 6.2331074066592675 1.346643745872371
Pd 8.580331475706886 3.5960994938823925 4.14295889775954
Pd 5.318869800121024 8.620087268460274 0.5536811604864845
Pd 3.7542487167533247 7.369788921758335 2.2795584001297713
Pd 5.848106342108027 2.748924150030826 4.558658972941989
Pd 10.409648981901025 3.363178297320834 6.060709367727394
Pd 7.374065226920715 8.513049983750832 2.1999151274117494
Pd 7.974626385632404 6.047302707121034 3.171103315939798
Pd 4.696271199150501 5.004462369364795 3.321821357467635
Pd 2.621665536366377 6.199270365942195 4.36632716644434
Pd 3.873110631143386 4.2463876668079905 5.734264660466
Pd 3.331167158304066 8.731786763699324 4.5519914150751495
Pd 7.871315168636185 2.261947365018819 6.283702366871723
Pd 5.053116075306907 9.831968604312117 2.872839527172583
Pd 9.167243758183892 8.252979439367373 4.076504611039829
Pd 9.77857416801892 5.817901662941037 5.077416796484761
Pd 3.790895537499407 5.0817952696851325 8.422883698305572
Pd 6.552533824463726 5.127398889452586 5.333754912026246
Pd 1.6804080258561713 5.32005356537396 6.7241993947173775
Pd 5.772948130209796 3.5005220808437807 7.319005024585472
Pd 5.756021868357268 7.4599600732245746 4.108963865000393
Pd 1.3028117920799946 7.877724222636067 6.001320106962019
Pd 8.447424039399344 4.791793159249287 7.179370382563695
Pd 4.86784043360256 2.962130063522995 9.734195051862818
Pd 7.113046616004999 9.853176426768 4.624066735081829
Pd 2.1977572831888064 7.289061522678688 8.374902206867704
Pd 6.9192456261630175 1.4514522463341226 8.624724246734578
Pd 7.630680674300652 7.347814616816109 6.037045501230629
Pd 3.251605066803933 9.410226398176139 7.1052893794565914
Pd 4.363031722225921 6.8675612526889065 6.398027068404128
Pd 9.44959957643347 2.4637661093002623 8.417640866054041
Pd 4.671533387648202 10.86246686901636 5.268594934575116
Pd 11.224526155209173 5.624563550635688 7.296519494583164
Pd 5.466099118703671 5.357854579155926 10.544099052940128
Pd 6.403860308559297 6.231902990383663 8.124773876691252
Pd 5.8986852892147095 9.22569096237845 6.927920539657267
Pd 10.718588288124398 8.104242200828576 6.18749194272703
Pd 7.418677244183472 3.8771555798865283 9.553232952455037
Pd 9.900555286029695 4.881906628257371 9.469107401124065
Pd 3.252258491563226 6.695671351885823 10.6834932091493
Pd 4.671738128057956 8.072151043282497 8.96312089545257
Pd 8.5885845198111 9.60359700426435 6.934169527487736
Pd 9.273231857078684 7.218969919897457 8.223537188048075
Pd 5.858520884683523 7.846718631120064 11.250829378835888
Pd 7.297679078315898 8.754144737167191 9.13192533679176
Pd 7.950946351256716 6.417669260005535 10.40858693526596
