41
Energy = -174.97504129 eV
Pd 3.814257847705129 5.352335834527673 9.851095056928104
Pd 2.795455932606958 3.452565116790919 7.806738117177805
Pd 6.4099522575352825 5.150518089983743 10.53273853320344
Pd 5.360018248403782 3.6301741963213 8.48869469235889
Pd 7.595242243465969 2.8157953535702624 9.63810787404312
Pd 1.5719952033365772 5.802465858438918 8.334935803509213
Pd 4.68351526028524 1.708469494266953 6.924816527377551
Pd 9.154787753742239 4.995136422091742 10.347223541269202
Pd 5.7326180846242245 7.088280559659163 8.87046475679624
Pd 1.739311984368812 4.985023256996039 5.778143353492189
Pd 3.911748538409616 3.685188019293581 5.300010308380566
Pd 3.245384219436418 7.831965649645691 8.823866312184188
Pd 4.112358665131363 5.695873248533877 7.186032668388421
Pd 7.398399623604644 2.6592024838774964 6.815649231373738
Pd 8.216793943972576 7.408253339377896 9.494207896942482
Pd 7.545076612729256 5.071881046469148 8.1454645807573
Pd 9.7674354743106 3.422259201564775 8.208578262733383
Pd 5.841592403342127 2.167392009925469 4.616159586338645
Pd 6.28073625118396 4.931653808080947 5.759035372921695
Pd 2.2423198205659705 7.543151916342923 6.329520247091095
Pd 3.9744645653160555 6.218732299441262 4.563869732922828
Pd 4.897582287915744 8.16606239420956 6.646647010684147
Pd 10.074838301964377 6.166621990926652 8.00617589915236
Pd 5.73075787964999 4.672333877607855 3.20716706116771
Pd 9.165643085970927 4.699679584297302 6.0253840976541415
Pd 8.043974371251268 3.3395113115378616 4.081055266046378
Pd 7.575954588892684 7.1636799143053045 6.569371513368362
Pd 3.5509953069210867 8.812405123376218 4.449286122213291
Pd 6.981222768043381 9.35437850781346 7.912673629778648
Pd 9.647360262336148 8.791548398763213 7.710003678700572
Pd 8.249228042983374 5.884210373504306 3.936073125657289
Pd 4.691740798355429 7.47444628422626 2.2875590993762613
Pd 6.348050590007948 7.8137096658905065 4.26517220751601
Pd 9.981424097212512 7.284337794977325 5.453599759595832
Pd 5.847386350941522 10.221258870082739 5.33995730826984
Pd 7.08632058502442 6.410135683352898 1.7355865834032322
Pd 8.407012824839608 9.536148777261742 5.536193195309583
Pd 4.971893743532583 10.210543247934948 2.799625888888931
Pd 8.72690122544548 8.292028613596964 3.1540433255343223
Pd 6.808603828845286 8.982535979590985 1.3578116226144674
Pd 7.54142905273975 10.68001826198347 3.3308997592949448
