48
Energy = -208.16385222 eV
Pd 10.273460896875022 4.5644018742845684 6.488640131150586
Pd 11.173513847126088 6.848854804632797 5.223125448626489
Pd 10.475168795205196 6.907300268950867 7.8383657804166065
Pd 8.974211581636157 2.864330400925591 4.827081660648362
Pd 8.322091206634445 2.799314986740798 7.442008036210098
Pd 9.086483786055377 4.898997363902505 8.928590468371269
Pd 10.985290750919482 9.249328011215585 6.539945070044448
Pd 7.224494597017792 3.276922542160532 9.83596439731978
Pd 9.4267274797062 5.3649112690031835 3.9466694532893145
Pd 7.7542395977146015 5.06778541606721 6.146620962682267
Pd 8.85090964468489 7.823836366865712 5.909304380432175
Pd 5.7568191616477495 1.8972374697580472 7.915868432922044
Pd 6.367794689246431 2.719620262754803 5.498973151269352
Pd 9.046309677389893 9.166709614869665 8.407934096644686
Pd 7.922080906992759 6.097802713350698 1.73109666471164
Pd 7.134687039926849 6.807425951488998 4.254103421190504
Pd 7.0878230684339085 4.157702466817033 3.40494090075788
Pd 9.318857216023781 7.982667313948337 3.2150279514918227
Pd 5.782353412380264 4.536949516290746 7.975762615394108
Pd 8.722106581911627 10.713596978613168 6.287044198219679
Pd 5.074409171714341 1.9120209747950248 10.493371623101286
Pd 7.514711194430001 6.8390515486425 8.035119406000057
Pd 7.025368966973392 5.885262466122384 10.478833338758006
Pd 9.322893426285626 7.245245580310641 10.236689938695791
Pd 4.772197559972186 4.545946564476776 10.489301690881382
Pd 6.991402090454169 10.945753195855714 8.481207626066194
Pd 5.23829504548017 5.291885650696311 5.3348727800593405
Pd 7.424911570502571 9.56423170367153 4.31512427771252
Pd 3.3997263936322946 3.002196650505945 8.733464862658037
Pd 6.948351308807885 8.583139949739959 9.959363201228092
Pd 4.486106372995397 3.431927471512807 3.578850624596291
Pd 6.395432433369681 8.38527752816947 2.207379480087875
Pd 6.556021775317896 8.935839447230471 6.806056176717435
Pd 4.894172756979809 7.868054189642768 4.916132183025239
Pd 4.669015482909246 7.177684490141221 10.03595602337064
Pd 5.2969407371956585 5.896328818145764 2.484071753385259
Pd 4.924176664145524 6.94444221651237 7.457854584606032
Pd 3.8338420634885053 3.1612499475555613 6.207438160746991
Pd 6.083969669786632 11.353827183115465 5.881246906422376
Pd 2.8693023949097984 5.55577059104131 8.93501307366465
Pd 2.9932355580443404 5.702205641787513 3.784760190900894
Pd 4.904940151371477 10.21600473955762 3.7070585135077314
Pd 4.732358216902831 9.491337751239282 8.70519067795405
Pd 3.6684984404156222 8.042907821421975 2.6031882829174147
Pd 3.8452020702106156 9.890985150861118 6.242860846803332
Pd 2.592058971974788 8.023396521419306 7.809638074614627
Pd 2.758417865660656 5.619764015817483 6.376248631374846
Pd 2.295944801000612 7.952049661968899 5.086695432809793
