48
Energy = -207.10902659 eV
Pd 11.52340931121813 2.6759727217884013 8.739748639802867
Pd 11.283784091419554 4.639382386843689 7.124035514390107
Pd 9.99145448833392 6.582629132405155 5.716736605444113
Pd 10.369126889497538 6.887830085109373 8.280977437208417
Pd 9.997307959857004 4.077903804151127 4.832520783277404
Pd 9.991141623045607 4.552267528709045 9.702520554862483
Pd 9.184365470120445 8.974081329288957 9.429692255225596
Pd 8.940153606837313 8.433531389597624 4.192698107846335
Pd 9.261294096816027 8.944601275509747 6.781178595185303
Pd 9.547047661318995 6.064547608703507 3.121557245166151
Pd 8.985235921590002 2.271629934719603 8.417699488645782
Pd 8.675920386961705 4.678974465386964 7.341424136932653
Pd 8.211497515851109 6.480529961054888 9.80061096240042
Pd 8.955839893280128 8.18208022354367 1.5603407383718777
Pd 8.241679927015232 2.494736988321243 5.869160106156655
Pd 7.527954930144683 10.435867650467427 5.253978435461283
Pd 7.613245997781162 10.685834079590629 7.991297765673809
Pd 6.4280298439041506 7.981574899236201 5.09053827145617
Pd 7.5216186782732155 7.090013441565997 7.264143254334321
Pd 7.544158419016944 5.317780240045093 4.920865363474216
Pd 7.269147397092965 3.995223530646894 9.58467686463945
Pd 6.587430356697958 8.53744412342475 9.273651543258486
Pd 6.882539627748352 9.424928471721232 2.750791865460348
Pd 7.06464475903575 6.708936320454123 2.6342368949495376
Pd 6.389113813435339 2.2049610960222736 7.7361657555872005
Pd 5.095636189389243 10.68816724946822 9.269997673315942
Pd 5.435452774898681 9.77871802742825 6.817615854291471
Pd 5.989389519490713 4.839915780506142 7.195657817168941
Pd 5.146736695711163 6.37866028753532 0.9299897714179448
Pd 4.941526240411626 10.320552507313527 4.272250566648056
Pd 5.874075583136977 3.1547049618674334 5.100593386505303
Pd 5.620462375506898 6.025345755842503 9.733769359853907
Pd 5.634569627312292 4.519417874247761 2.8580330349139325
Pd 4.84719642775536 5.933222636871186 4.963021139780482
Pd 4.710256318152737 7.22368708316072 7.471553520037125
Pd 4.591605403603503 7.961021842950611 2.9938492715475493
Pd 4.107595721898279 8.26242445927869 10.026293229381661
Pd 3.9279437475785643 2.3123751065512534 6.701306845267121
Pd 4.483573831066819 3.6523924972642496 9.074854835960153
Pd 3.074332497027126 9.460644639712516 7.88267900838544
Pd 3.46871561855929 8.38645843284363 5.374894089048185
Pd 3.2295304252180697 5.724935196048973 2.5821687334986807
Pd 3.366996810431258 3.7248698247104084 4.422411021257529
Pd 3.221388991972269 4.825466422145922 6.962287208266381
Pd 2.9881451571620903 5.894587352591364 9.394649463048804
Pd 2.1119317813785834 6.1162829466798065 4.8727618915869675
Pd 1.8718586531195933 7.155256989267884 7.218997970527189
Pd 1.520813661436706 8.133173327574994 9.622744822992951
