52
Energy = -226.42894596 eV
Pd 11.36047900992956 7.828622461295007 5.642154129200418
Pd 10.791217407338685 5.236240767369279 6.071514358379462
Pd 10.02810814715743 7.21321815992873 7.875344181304364
Pd 10.406716751021735 6.33417530634116 3.3865005339322063
Pd 10.446820884253473 4.682330011472855 8.785159392143406
Pd 9.201508653283172 9.411077866961893 6.653993209224738
Pd 9.786297560905409 9.137394331248018 3.933621348571897
Pd 8.293288351870714 8.882080576105455 9.161325857553363
Pd 9.776950822829944 3.7506946892361905 4.081731669560867
Pd 9.544226838086386 2.9434769901981888 6.953095821349123
Pd 8.81281888429024 6.991987637539032 5.234475991103512
Pd 8.283277795267107 6.248901216026657 9.60499729138788
Pd 7.929853203428629 5.345438080438049 2.661020617931607
Pd 7.237099773973503 7.843128706165841 11.435483397327637
Pd 7.97299748237386 3.54116722440858 9.295288058451964
Pd 7.7932537178963965 7.946853934149535 2.650389838491258
Pd 7.027526207379813 7.542331676680204 7.169527244331284
Pd 6.584225345763131 10.120601891037902 7.371882972688082
Pd 8.31948264392661 5.226542276682934 7.120016884507989
Pd 8.32397116229916 1.6036103701041984 5.062979974933384
Pd 5.932150442847757 9.938591755843593 9.981495678670784
Pd 7.255895615785976 9.351292617451527 4.877076957286381
Pd 7.412470095630098 4.205200164890533 4.970412828197736
Pd 6.774777903302881 2.6577003887820236 7.070610705062656
Pd 6.3225308837186365 5.053998606811709 10.886190854460455
Pd 7.643039669816648 2.6556161326033862 2.7056002248361892
Pd 5.960611541144521 5.099734717198508 8.134474683059132
Pd 5.628361557022134 7.419012036374547 9.466773815148551
Pd 5.438969765190758 4.147865778718165 3.0129913410918956
Pd 5.127838660889639 2.978234485581984 9.332211487345187
Pd 6.29815211863212 6.673058846800958 4.706231672818204
Pd 3.23457217892032 8.035236752397383 10.328332553179399
Pd 4.7608005284405746 9.218875790929383 5.63597444160376
Pd 5.304369712202435 9.002939385337895 3.049947586590183
Pd 4.181776378833472 2.150715881551787 6.768708440064525
Pd 4.033783270704862 9.271148165375374 8.156478111729204
Pd 5.56122127525766 6.554475451742117 2.0128757495418537
Pd 5.668759597713545 2.035188994071159 4.586253661038782
Pd 4.381631853992336 6.860300592049299 7.022865848280763
Pd 3.872581313280131 5.4354540128129525 10.01659548192439
Pd 4.946914978236147 4.592614348985958 5.736433720786297
Pd 3.168237267296669 4.282399044487231 7.785344469477672
Pd 3.816747773522877 7.017588166142378 4.3185665524943
Pd 2.1125871001140273 6.716193228261394 8.32539407719317
Pd 3.1509422644189384 5.297283111795353 2.522741956617332
Pd 2.7523803360791503 9.582360629659878 3.827875579752444
Pd 2.2422100384533143 8.410556729214125 6.228091568227107
Pd 3.1382411318596937 7.874550927275347 1.8053666857101234
Pd 3.1748784047428824 3.2706629062067236 4.375772244206569
Pd 2.128849487229643 5.605437587184882 5.812448478114498
Pd 0.92760630153265 4.665081757312892 3.7038871064394683
Pd 1.2830655942159703 7.3253409537284995 3.7916843901480703
