53
Energy = -230.61423409 eV
Pd 11.420811490058867 5.8562545087315625 3.4768912172325415
Pd 11.791542663657363 8.078867162997174 4.755986010287748
Pd 11.410362233726595 5.865862125472956 6.303179108354824
Pd 10.56439266934483 3.7015282105658764 4.716388458673958
Pd 9.885943959809474 6.257953918842502 8.757048610825203
Pd 10.37789240654884 8.291677170803325 6.990474101503145
Pd 9.608811014511296 7.696038504802835 2.7248779320525003
Pd 9.265648490427525 4.431730040573847 6.800378079652706
Pd 9.16744206114647 6.764775325891733 5.168509251003516
Pd 8.96665061743384 5.066882041008895 3.0593258409157964
Pd 9.740262192941863 9.665070499098583 4.609666510641053
Pd 7.939252634160645 2.224307140632058 7.445723562478075
Pd 6.110218320852213 1.643919521684509 3.374534910362243
Pd 7.7804292528449395 4.452327686714147 8.995601087301411
Pd 7.926510992619163 3.1396282138536837 4.711901563043439
Pd 7.685883421511294 6.679947155500454 7.390671847254763
Pd 8.631469356403315 8.744285290521315 8.933969562998985
Pd 7.629633478966391 6.703794931649081 10.404947885965774
Pd 6.721584170960698 4.040894124067872 2.2632056790757034
Pd 5.771587532598856 1.827134717182342 6.009509905465519
Pd 7.918704309823118 9.16655690972017 6.3851172268281555
Pd 7.391371787826085 8.66087408037325 3.8593220423959558
Pd 5.523136723829497 2.935574564511542 8.506294839958606
Pd 7.033904906654142 6.737907355872899 1.9291820932456796
Pd 6.5338343077369085 4.4746793905358935 6.524711124217097
Pd 6.719087697581318 6.0150880467139265 4.413914197930467
Pd 6.6844558977962265 9.363325226412725 10.667072000317605
Pd 5.445157108626419 5.079726223505853 10.141504805029578
Pd 3.5112774351429046 1.81799140429605 4.3909367478036
Pd 4.264584006726197 2.954439450747955 1.9502122024427304
Pd 5.739768027919627 7.6746935691957745 8.805083314039441
Pd 5.066419565909181 3.9820566706509424 4.424728428978693
Pd 6.294461333300314 10.135843672979926 8.135205747542665
Pd 5.1420899909426225 7.368642842617774 11.494403049404053
Pd 4.602943705977583 5.641837800374275 7.663461568179296
Pd 3.6384008021686776 3.341805511250569 6.670202044419328
Pd 4.965638700949472 7.968003408112793 3.2925504067450984
Pd 5.5668610348082845 7.734182601769668 6.097804000045626
Pd 5.724072612378591 10.289185288209723 5.366047919273515
Pd 3.1078186347658474 3.949088583141576 9.209251583120555
Pd 4.525924966618466 5.6152137716489765 2.3092688105300643
Pd 1.3635218207294602 3.1371588250008915 5.579004286836869
Pd 2.530744479738859 4.272190633055736 3.46736290218869
Pd 3.160299045536144 6.561236531397059 9.812418563199424
Pd 3.5988420913558237 6.105961287324816 5.270146675389061
Pd 3.958314839418293 9.215448765418643 9.807340667198
Pd 3.131071821067791 7.90569463190284 7.532228288009041
Pd 3.8264102970863605 10.411881831279915 7.2981776807542875
Pd 1.8350523644953038 5.433005522866886 7.259564865855101
Pd 3.3711114263013813 9.0628869325584 5.037271461572386
Pd 2.38556740704884 7.1372322559142525 3.2474649433292324
Pd 0.6534796984577264 5.501951886532657 4.708579141894346
Pd 1.2344237264170248 7.751759646138816 5.741026516215536
