53
Energy = -230.89729958 eV
Pd 3.2011848441016393 9.912828628086144 5.2962518586655865
Pd 5.315387862714383 6.195404942985502 8.610241744388956
Pd 9.355053717234478 2.518269354741977 3.0592006438405726
Pd 6.875795862056388 9.278516219462658 7.402535055398747
Pd 5.151748571207395 7.454006399426366 11.286645222583623
Pd 1.3694408437521068 6.366376649101185 7.714102794001996
Pd 5.309408040036227 4.040872832522707 6.94136417840214
Pd 6.94511078255284 2.094362159831946 7.593970445338678
Pd 9.5027010036119 2.7795539085132113 7.401679047196125
Pd 1.8338732329884224 9.112303985284099 3.1549137870296846
Pd 5.728442095226048 2.143355395338575 5.169581086176313
Pd 9.203168136254648 6.039861831847332 9.800993584106736
Pd 6.789006334657333 5.354076249368614 10.772881969188584
Pd 3.2239617615918528 3.195764501704515 5.37120698660086
Pd 10.334061729300016 3.882589020286449 5.118595358372249
Pd 4.862775871064082 9.172524676268722 9.212472022770903
Pd 4.391395742615193 8.081216784429477 6.9002281730064565
Pd 3.4447648409393135 5.752567186371751 6.213982125761393
Pd 9.218928403100874 7.7657510224675566 2.831103424690446
Pd 7.163574867723261 9.493624052574472 2.7360543902700014
Pd 5.345728502605284 4.949428097325174 4.502843736525485
Pd 3.0722188312390073 7.179125738369577 9.565440556120588
Pd 6.582794197587872 6.735039734631064 6.198631853386238
Pd 6.926432021180046 1.3378801939692595 2.979206219009291
Pd 10.684200054124114 3.8692931861757387 9.53097437208403
Pd 1.6648677161475358 7.693662293498408 5.421690936860127
Pd 7.17353059825826 7.782947213379685 9.564748038458092
Pd 5.494145087366039 3.364584236408358 9.468758315795844
Pd 5.07709967419119 5.414530073238641 1.8606172661600928
Pd 0.8631194819727516 6.646459547778669 3.1561245632524595
Pd 5.632616780939095 7.896170330362888 1.182472881198681
Pd 3.0912322190135018 7.210363729340374 1.755431489518312
Pd 4.082452692815089 5.074612125118977 10.94610903261453
Pd 8.143797783279837 3.2238570937070885 9.79753956868541
Pd 7.71553881167865 4.157261221688407 5.392417856243941
Pd 4.593396714445887 2.9239795008364347 2.8899044802146885
Pd 7.665658408398911 6.168434463546853 1.2188930439429118
Pd 8.333623327619575 1.5841459684885066 5.333299002550218
Pd 4.092892871792211 7.375302437081585 4.188257373365743
Pd 8.874843228051548 7.56537606267925 7.527848971767323
Pd 9.502735283105693 5.133195714168891 2.8723348831646303
Pd 2.8584655923485176 4.962439157968734 3.358603150862649
Pd 7.6465611418962895 4.9752090132445215 7.951450781321478
Pd 7.149294089986149 3.954258030370182 2.7054947089681143
Pd 5.814067222313724 9.348833507159586 5.016761626189615
Pd 10.286294992480158 5.3301770944333375 7.368200858341283
Pd 6.746652020703824 7.017468072589074 3.564679166939336
Pd 2.153949591599997 8.961668925223263 7.761731649439344
Pd 8.372921157613382 8.85384058394761 5.195371327737221
Pd 3.1448326331589733 4.4516648917452715 8.526058819196043
Pd 9.23885715695179 6.3656072355230275 5.168080477790261
Pd 1.0406304639510635 4.948673853629576 5.349689627700596
Pd 4.423704963107984 9.6196247264102 2.801269321456864
