54
Energy = -221.9086633 eV
Pd 7.693595491542123 5.473689230827404 6.745898375118708
Pd 7.481501703422408 5.995026852591903 4.098896421716825
Pd 6.797806285389604 9.284120856143588 4.753709585320541
Pd 9.918178718369168 5.874768016942671 3.0254006340933235
Pd 5.3653432125448655 10.94120722727885 6.224115634399872
Pd 2.613168507646471 3.450337383828195 10.866069323996976
Pd 10.694273677173651 10.914355730031254 10.08508236676857
Pd 6.249146791255142 5.571624949715586 11.253855820305393
Pd 11.458263687605251 6.694670734859346 11.83489983059482
Pd 4.1011184197688655 2.7106961085030448 5.896251348944658
Pd 7.090070105276078 12.919164812337623 6.787259589368322
Pd 8.985593223619556 6.16016319099809 11.202548095990819
Pd 5.67513861095477 10.22798221789072 10.3443873756067
Pd 6.67652308213102 8.654242337680166 7.506864454729053
Pd 11.334234241929662 6.305030190046082 9.292015136030326
Pd 6.318739978676758 3.8226852327463097 4.93175045552623
Pd 10.100894115759019 9.539474802811267 7.832884774578807
Pd 4.300931568593992 9.63264031614247 8.255129686852856
Pd 8.884912183396995 7.159926979353198 8.455442956367744
Pd 5.584807733589771 4.140603062795374 7.636149652685806
Pd 0.07717530697940217 8.740891475179167 5.434720463775456
Pd 12.597725552974808 5.315841609098043 7.192303586658458
Pd 8.131516617374263 10.205802583829303 9.616954022158389
Pd 9.011679803261318 2.464667734691368 6.789513834458216
Pd 11.477526137292402 7.7086198969309425 7.0088084181894095
Pd 5.900344875386162 13.371948684198582 5.502267278232493
Pd 10.041283617341975 8.462791254294547 10.513588386391463
Pd 4.095126625829181 5.212364262070224 9.721694238632635
Pd 7.785623196434458 6.50357298511137 1.5392315401632262
Pd 3.169566013976154 9.736215940304225 10.721539897374209
Pd 8.106383973113186 10.62203053230577 6.47678976640619
Pd 2.011601505191595 7.294451610035923 6.023333206734893
Pd 6.169211954569381 6.4933968009064165 8.671538904842382
Pd 8.886398918880273 3.838298858081437 4.668078826320964
Pd 3.73095217990272 7.101446276282726 7.951629203030626
Pd 10.647873892446084 8.09683111897523 1.8476539993885213
Pd 8.481578553764495 8.336664247241588 3.1645229744934618
Pd 7.9291120465274085 4.635908834403626 9.304663697559544
Pd 5.614405868955027 7.507989320488926 3.3713278651007825
Pd 8.825329444922788 8.043670478696376 5.88647233562056
Pd 4.382333446324774 8.345508908049474 5.647244341848441
Pd 2.284539317680515 9.206837311791553 4.239411841713366
Pd 4.65149157587193 7.706515974923681 10.493392921975303
Pd 9.155840230331775 12.160126230812391 8.270823866999097
Pd 2.8256412571992646 4.917913876521721 6.754584164693093
Pd 11.02902920336348 8.136224601250934 4.4260636873394095
Pd 4.755714908194872 13.371948684198582 5.86940655157013
Pd 10.105270939433742 4.424256027049598 7.953672309519956
Pd 10.269831326676952 5.833334979670659 5.665533627112908
Pd 11.297114034509843 3.3804236128947682 5.73232038035807
Pd 4.680523853577414 10.130951476294518 3.5934319283822442
Pd 3.3198919055448695 3.057911530046354 8.419816801215573
Pd 7.271891488029805 8.096794288602357 10.78817073345653
Pd 6.6042089232778505 1.9183570255702576 6.679384594241896
