52
Energy = -225.6351716 eV
Pd 12.482826339030439 6.234423759741025 8.37454007915855
Pd 10.336235472318464 7.781867056261506 8.484602856971925
Pd 10.268805463940106 5.247092644338872 9.428078189545765
Pd 11.533623662157002 6.930619661566391 5.99573053762359
Pd 11.182398402633124 4.44901576989841 6.906124049596738
Pd 8.059215624849408 9.148757923365405 8.446018619644741
Pd 8.065349748596315 4.225121917855918 10.435831581109879
Pd 7.957713044526898 6.658259681477148 9.30406735930834
Pd 9.58485699440946 8.717190037901846 6.100526093810413
Pd 9.103078276882728 6.028322249560142 6.873926181271955
Pd 8.853836140295515 3.4980930501945267 7.947817527521503
Pd 5.7341423362112245 10.378025743762596 8.331032579436684
Pd 5.507257195681576 7.733793799603796 8.724529238255375
Pd 9.504031143320278 6.660194701679736 4.260771636868576
Pd 5.752029824846152 3.194079742613519 11.409260821210882
Pd 5.705447150876896 5.437192256408234 10.062050954005985
Pd 7.499723420149589 10.418304938276851 6.146554701598509
Pd 9.137526986658017 3.7918514112158412 5.289660244096546
Pd 6.459757602884812 2.7211087285641087 8.916210207068776
Pd 7.060906771489419 7.594744739455821 6.532938968016869
Pd 6.536513358934587 5.001096641297672 7.535267698163444
Pd 8.924566897608067 4.531046034439333 2.733390586221508
Pd 7.847141148446546 8.730230840503701 4.107306133992833
Pd 7.130053879155565 2.317233726778897 6.35701272619976
Pd 5.278384290017738 11.957055179816905 6.150311667583716
Pd 7.136530425106161 5.537745796139953 4.882851726210527
Pd 7.492475989955325 6.6879712423023285 2.3401727139805097
Pd 4.631110591491233 1.7837029879089357 7.290870080323962
Pd 5.4488631410981485 7.4992645957944575 4.020326769312423
Pd 6.994337922388398 2.9913714765449155 3.6168803222831123
Pd 5.001574752178891 9.126994920381136 6.154784363564657
Pd 3.9181726790372293 3.4115386360803526 9.503177701045304
Pd 5.85657864035743 10.501410950083766 3.9963607757063957
Pd 5.372776543743797 1.0875549007017096 4.756050337251194
Pd 3.235348649572861 10.879115284036548 7.508648857354508
Pd 5.198961356501769 3.8063876015597637 5.408412200871594
Pd 4.572242697377724 6.351212886347829 6.301143420427545
Pd 3.482858433077385 6.022605823380487 8.819142673898455
Pd 6.571164339056181 9.185120704396883 1.82365061726721
Pd 3.1856929593575964 3.9724112853084197 7.0516491091578395
Pd 3.259666229828551 10.640468526160326 4.835119785067315
Pd 2.9545209003648902 8.300559794320982 7.650058813877221
Pd 5.0900839314723045 7.15079912011809 1.1416323735936378
Pd 3.9290415968828056 9.16237160613944 2.6686066391463146
Pd 5.367513033609714 5.05887714630471 2.8282355875792806
Pd 2.910184956575067 2.100376531210884 5.204367178379725
Pd 2.7718003604316137 7.985983031523632 4.987960159038624
Pd 3.080695096414901 6.6168765540975745 2.768762862552055
Pd 4.228293605254596 2.741057736334811 2.9975331408437977
Pd 1.445925214496787 4.462823973738232 8.88430045728586
Pd 1.7602073520883637 6.12724977291743 6.593885374282955
Pd 2.929342257326458 4.741748271328616 4.480698795236235
