5
Energy = -15.35804774 eV
Pd 6.6918809902197625 6.309931663654658 9.98322498470174
Pd 8.560973012636566 8.994216289974068 6.227609710534838
Pd 6.165089282381357 8.053616286030467 6.624478983675881
Pd 8.106900874260054 6.395758087424028 6.240081780195686
Pd 7.9893364400767535 7.761537713070251 8.433237552636067
