55
Energy = -241.78833428 eV
Pd 2.4705922455239033 4.68663492216015 8.456076006384672
Pd 9.17307384420119 7.360352640733078 5.43459008074052
Pd 6.895049770613558 3.8015771546903796 9.804050786139786
Pd 4.598532726935415 4.9787293733730955 4.067052622654177
Pd 9.20914488495014 7.525899972060865 8.17040849079335
Pd 6.90430962978453 7.983626359163622 1.424351779399824
Pd 4.660815421297346 5.180964817389713 6.997559678761454
Pd 2.447663283722301 4.520015925658149 5.648321037273499
Pd 6.931716086363638 8.079795165681585 4.099246426723806
Pd 6.972611665186 6.203539887812407 11.042316149009915
Pd 4.6512044417759215 5.342430536651412 9.9297577673904
Pd 6.954561768122198 8.204803411742253 6.784885192831298
Pd 4.719108266357041 9.710042470373333 3.9379227251889204
Pd 2.5718478282716704 9.119891730665909 5.3863844354160015
Pd 7.009071060706233 8.420405822355225 9.457411946536375
Pd 4.750578371618614 9.975709873458895 6.691054760704488
Pd 6.88892478963607 5.685844426287 2.805428897122976
Pd 11.312624011718116 6.56415725655966 4.055464575592141
Pd 9.165741276959427 4.915959108570744 4.088219252586492
Pd 6.8848817850894255 5.782564307830817 5.587503082006184
Pd 11.486591142904256 6.73171560366982 6.8150677507973505
Pd 9.102123510129198 5.138447646374516 6.950861338013917
Pd 6.908738513537485 5.94586112670284 8.283604968179635
Pd 2.5067214238727358 6.711053013353086 4.153338295387867
Pd 9.221475218974774 5.275009103067509 9.824134267946068
Pd 6.944106932818413 10.342933229007837 2.6147905840270047
Pd 2.574138592086604 7.063035383512731 9.66210459910179
Pd 9.199517589708611 9.634447373551033 3.879914147964749
Pd 7.007738719417179 10.536877061929733 5.292275012118962
Pd 4.761022127367035 7.871553676155756 10.979497215539217
Pd 9.280411729025708 9.896537913395223 6.645928172271913
Pd 7.050767722800749 10.711333016029242 7.951693798834958
Pd 7.046472017444544 8.669124329559592 12.111484086151195
Pd 4.660183423678714 2.8111998434772363 5.691960555406765
Pd 11.30085199745665 4.333100037943323 5.630818050673239
Pd 11.378743197793591 6.905456883025358 9.587362691197736
Pd 4.677561438241545 2.991321629779934 8.57125219942784
Pd 11.317831998515135 4.511083537418646 8.304855003365052
Pd 9.275419228876421 7.786638474185447 10.950188406893037
Pd 4.651527638541651 7.342209522062874 2.695852446964814
Pd 11.37748869700658 8.950340642642175 5.284605326346441
Pd 2.616038748804982 9.307199428724886 8.153097339505036
Pd 4.685758480449963 7.415533158199963 5.4892565143267555
Pd 2.522444348458281 2.3677821923215787 7.173941523173477
Pd 4.810252528747238 10.073965054244338 9.449811009054956
Pd 4.724739219368663 7.593763961137578 8.215055171794154
Pd 2.3315005503948796 6.908359229999155 6.918972986436469
Pd 7.075923491891905 10.857306084719912 10.628678393674164
Pd 9.110636363699902 2.7455950723180402 5.729225281688128
Pd 6.848363083867144 3.46901339038419 4.344994089102472
Pd 9.28510746608236 9.974639908819636 9.409847304774718
Pd 9.133061562514392 2.911391132950568 8.473771542731274
Pd 6.892309725183081 3.3090666776124937 7.092187546236981
Pd 11.421136290027622 9.125736201424386 8.058385822928475
Pd 9.168688523267507 7.265870698870613 2.640627266496147
