50
Energy = -216.56563628 eV
Pd 10.229053996038743 5.903246763671094 3.5525557017972664
Pd 10.582262468777799 5.89020935951187 7.850855963453904
Pd 9.76913732992102 7.167388623251805 5.791522387475493
Pd 11.75352073462033 5.023572033258555 10.043716835793415
Pd 8.99959993799401 8.396222074288987 3.510591625501404
Pd 9.803301009949207 4.20054503751446 5.673455235013054
Pd 8.950600036653679 8.027283856566198 8.127282964829401
Pd 11.117361414631645 3.3399258128106912 7.940777549207557
Pd 8.129588595347581 6.30698769978204 1.9197952434082262
Pd 8.271434444020064 9.37542703644155 5.931045039916398
Pd 8.220912323501285 4.249198128415208 3.4964720245591074
Pd 9.834488208911043 6.8327139214458645 10.319149705669199
Pd 7.748532803206363 2.194329561210483 5.176561316874531
Pd 7.39028408436564 10.554198591124983 3.6163895183271455
Pd 7.455132161607622 6.581992533546797 4.73046763197022
Pd 8.015070710224354 5.211397109294682 7.273050568604849
Pd 7.859562072838411 8.636121935492843 10.504453171491146
Pd 9.270899826502934 4.264726516863959 9.726157322985847
Pd 7.286826613189505 6.204959330291578 9.666041231591647
Pd 6.481750621135168 8.22203090958338 2.4197807570300065
Pd 6.953424100458344 9.87295157112324 8.296599945311018
Pd 6.481774015580274 7.420980486953939 7.192239886100122
Pd 6.238852054153679 4.296150843813491 5.402615741792634
Pd 5.470480006590485 12.377241755961109 3.906538165234335
Pd 8.594161852166332 2.6738421224994373 7.678970161930444
Pd 6.757601883908251 3.5999835890805834 9.604151977646257
Pd 4.998710833658 10.37919536404818 2.2452364554324924
Pd 5.852791194666641 8.800356364483731 4.933319531509355
Pd 6.046774408757929 2.942531993493452 3.002421054471756
Pd 6.31511079222826 11.222745872734302 6.117905381892159
Pd 5.623146363911683 5.650726028742609 2.8922023889988537
Pd 5.325288053351507 8.098002561261863 9.654301198772272
Pd 4.679198300763934 6.450706799608917 5.319963847875386
Pd 4.824317907144377 5.405353788898932 10.291142487845459
Pd 6.030535238564545 2.3657021814811627 7.365456430561368
Pd 5.297754752508616 4.992533989879879 7.721498992592231
Pd 4.50215511331609 9.52738064789465 7.1372323333447625
Pd 4.9396862950718585 1.6801609585413317 5.065455985858247
Pd 3.769751031664603 7.14693252519518 7.746641403249397
Pd 3.922065070538251 8.165916904653113 3.1325894259674048
Pd 3.842535623235879 10.442594495992243 4.706996974802519
Pd 3.834657726486074 3.942829886111323 4.241565365834038
Pd 4.190374236018 2.8936854422558285 9.37316053275649
Pd 2.559694282996651 6.054517728051246 3.4450217595290615
Pd 2.7902078824997174 7.1239593006424045 10.147653031964552
Pd 3.501179077405489 3.1388408131816843 6.8213627878197425
Pd 2.588877407118324 8.14595228111541 5.516827417029825
Pd 2.5929395501568915 4.884682285588403 8.645786803925658
Pd 2.315724420816186 5.376866193320358 5.984330728990402
Pd 1.1956363712102875 7.013801276538823 7.770312051742032
