53
Energy = -230.27706899 eV
Pd 9.773042447959687 3.702094846568059 4.1429184881032075
Pd 8.755316432142765 5.817087353921854 2.8057066968115487
Pd 6.652492817178095 6.156887666959718 1.1628327692364189
Pd 10.118140902163802 4.308051525588042 6.696341177484074
Pd 10.43202702573771 6.235500158771638 4.90013927283128
Pd 6.025113964627756 4.785856107748342 3.3608505735915557
Pd 8.412512633835757 8.133367442241148 1.3862597390439302
Pd 7.786148006628068 3.0343545036575814 7.112976749885928
Pd 7.3292146291310525 2.718125108067124 4.490995283456903
Pd 10.860875643247695 8.888373223486337 5.826252464903076
Pd 6.482361899283223 1.5407159574226044 8.847388782030773
Pd 9.963188988299642 2.3564043615870864 8.482377053612886
Pd 9.415304966613153 8.410129051099883 3.746155222681817
Pd 4.722443173510791 2.5312209460169086 3.93082826918782
Pd 7.829850132143875 5.2274115229692235 5.328402534171146
Pd 5.51812176080783 1.6412914290925535 6.3296084448057846
Pd 10.469065496441512 6.911746106289572 7.549215251756767
Pd 10.25660844157544 4.888163689540452 9.28783811490513
Pd 4.376341608260009 6.776644920932956 2.4261274555892323
Pd 5.813682065073524 8.712908467953687 1.2973301691404884
Pd 6.819835171971805 7.418974811389965 3.7505483547270955
Pd 7.924344978693192 5.665280395656823 7.964555253037253
Pd 8.273693434544695 7.6077123584682065 6.13520117041981
Pd 5.487876737311136 4.241098601365516 6.149089231217658
Pd 8.4328989381562 10.206375051506239 5.575466222724476
Pd 7.33012753165143 9.978304116936505 3.1356903936355307
Pd 9.314196026728784 7.283381058281623 9.887409231365769
Pd 3.268723388905343 4.803686364470661 3.785589833238173
Pd 5.671081616691 4.032971340904742 8.825936817580695
Pd 9.342185472651208 9.387929078067303 8.008943152749595
Pd 3.0931300550027867 3.212462300246143 5.95444177243192
Pd 4.727972517216882 9.161220025791199 3.6736857267271765
Pd 5.901185043941967 8.646814684554931 6.135223924243311
Pd 5.9289662826781315 11.129298306583328 5.1158007222916595
Pd 4.726243276763789 6.5083937623223544 5.220335164175741
Pd 8.05418614546102 3.5679160821793015 9.836245433232055
Pd 3.851627957285313 2.2441560608226983 8.31387992607446
Pd 7.111922178906506 8.260564282301265 8.666869913773137
Pd 2.5346635201653513 7.640996337066461 4.228609084847971
Pd 5.261846195675767 6.554585391992531 7.932771568891376
Pd 6.939687938406399 5.97571614620399 10.412443194858598
Pd 7.572825365759077 8.490021908363696 11.399209682468138
Pd 1.763339090103134 5.492463523903036 5.796548721526865
Pd 3.5305718903685146 9.984025957378202 5.835350313384932
Pd 6.819315972762997 10.726701762322541 7.650786157142415
Pd 4.4811507612836285 9.363217309909318 8.307846728582666
Pd 3.1408117656768257 4.900346823523051 8.094683493705327
Pd 6.171195201806399 10.37438495263783 10.179268354339733
Pd 4.261240881273605 5.475092895528919 10.49422066287686
Pd 2.9013470335852096 7.646319204254672 6.837659406923811
Pd 5.1156640141304015 7.970961939242028 10.574580395824954
Pd 2.866845562117655 7.426625115824584 9.414282646160409
Pd 0.8899355404256453 6.349447015442729 8.093026974627653
