52
Energy = -226.05982584 eV
Pd 4.774456964752261 9.78702365759397 3.0413330086940893
Pd 6.77030195873484 8.410690996178287 2.1827120152226365
Pd 8.749462237791134 7.245997369279555 0.9379108791244744
Pd 4.415571998382857 7.177746321646454 2.3355019636985372
Pd 3.0287375036982938 6.5205938431511985 4.5223114829348905
Pd 6.674693838162703 5.683221844309587 1.7317398325079425
Pd 9.213877602006422 8.877880264869754 3.091865145603194
Pd 1.6253180051732146 8.081074666828506 6.322829471557071
Pd 3.782486308558462 8.959220395084238 5.220930806710086
Pd 10.84904016909777 6.673384534111705 2.473135991119696
Pd 5.110060179945636 4.955218586095054 3.7547781715760906
Pd 5.86926150255947 7.381250598977701 4.590838940739458
Pd 6.9994847851963575 9.853099251890399 4.541448790535249
Pd 8.254399433168953 6.508691912444196 3.7076817268548337
Pd 9.187318619083362 4.72028917748422 1.7159490929166727
Pd 4.493573489466988 6.4592780159824565 6.883428634381816
Pd 3.487828521078017 9.432642869863242 7.854508315523734
Pd 3.698885106282406 4.1540634355550585 5.765222030878012
Pd 1.4955378617237463 5.465254229654568 6.46993528425213
Pd 10.661004988788727 7.447794711439871 4.962723373567383
Pd 7.590711354429807 3.8473692028557434 3.618799937592632
Pd 5.038333704994628 11.057453364097404 6.237740054269611
Pd 9.619526939012237 9.962573546135014 5.449311202162015
Pd 1.687210465004721 2.8074451435958094 6.741563144440516
Pd 5.934132234091999 2.8429586031058984 5.428548960213484
Pd 8.181678307098537 7.797264908332595 6.074587200377163
Pd 2.892537542187375 4.396792607332905 8.449763139698403
Pd 10.135338146558448 4.777242723097368 4.303228865713173
Pd 6.950957248240581 5.313279120018928 5.908540627362504
Pd 5.931403324349192 8.659456442372782 6.983708094492487
Pd 4.215546377545783 2.0868090137056945 7.459546217369523
Pd 2.51999334395885 7.026383064274615 8.531867331647934
Pd 9.974983062310963 10.728208203302417 7.978061567669807
Pd 8.666126576575746 3.30551460443073 6.0592456874080725
Pd 5.638598968285231 4.230898640037493 8.031921368650035
Pd 5.794757419313515 10.368051943042545 8.959937710860874
Pd 10.428989942473551 8.198996429367881 7.471710622095969
Pd 3.4752579616277144 5.773851849690682 10.619162878826366
Pd 7.063808316275398 1.9989571075366122 7.7322858765967775
Pd 9.741428240400381 5.679990532532007 6.80164394287467
Pd 7.572292474088272 10.886010985630037 6.956856029981224
Pd 6.9999656093443114 6.563125003597187 8.249963631206658
Pd 4.389451266490639 3.2433708723597885 10.222222376622177
Pd 8.40453437361815 4.2397301390691435 8.543133675464148
Pd 5.436373353674346 0.943128759298366 9.514041969760212
Pd 4.942574056612412 7.845774855081941 9.564157249779534
Pd 6.000290979655592 5.38518904830898 10.489553456008823
Pd 8.130238569036607 9.016369066344867 8.806601322341232
Pd 7.083316018850497 2.8325786273910616 10.35296425800107
Pd 9.455619910992054 6.6561840204020895 9.309256739758853
Pd 7.334486570400958 7.59770133844268 10.835011740848472
Pd 8.46365764997689 5.004582275524656 11.105127336826214
