54
Energy = -234.56208717 eV
Pd 10.285455983205088 10.408102453937591 7.630822218369141
Pd 8.514696135130373 9.237460665959398 9.356616524491505
Pd 10.08027131890067 7.786660521357891 7.66413046119445
Pd 7.980352376681872 11.613436567211124 7.983209048527748
Pd 8.898120370000116 6.239488925721342 9.429491038844763
Pd 10.40594548592652 5.13669462279563 7.510189231056556
Pd 7.391485040997619 7.54292574766073 11.197121664353663
Pd 6.803488956100022 4.933119522193042 10.552059293487988
Pd 10.1974560982953 9.19610883442892 5.299791904914917
Pd 8.45952346456655 3.7105820511321435 8.814685141567505
Pd 9.948954044942349 2.579039306522546 6.949276384392551
Pd 9.08953037897596 11.5762206361498 5.510403683947833
Pd 5.828695286737021 10.078599334664695 8.113404306496172
Pd 10.526742397745302 6.600641523841818 5.257979317570325
Pd 7.858420570969952 9.045554972885913 6.58133594027709
Pd 5.2099588305610816 8.999633608704475 10.460187962799024
Pd 6.631303018960605 7.5802802277338985 8.686813557265783
Pd 8.061766276862187 6.2601995214896995 6.727391504107972
Pd 8.05256547307752 1.1017027474282763 8.301767791030246
Pd 6.061293870264517 2.577742202802879 9.260761651443342
Pd 6.495933871744846 11.16413657165599 5.779408071261712
Pd 9.107912866509281 4.340169796720021 5.09528508994705
Pd 7.925692937278668 9.669205662339461 3.870036846061589
Pd 4.6162478398958235 6.452390878495604 10.012240474103805
Pd 9.961349848177342 8.071686158414561 2.9732992798656612
Pd 6.12969468956692 5.0803216430260365 8.034202965941752
Pd 8.094103594562846 6.640076297657045 4.10869039255017
Pd 5.529500080196122 7.339583853388068 6.330762707918932
Pd 3.8847833340527744 4.0295583943029705 9.449560331554377
Pd 3.7963085702698076 8.315870052333008 8.265625617003316
Pd 3.548855018495602 5.713772083198824 7.305493890151542
Pd 7.355877498173505 2.827862374614897 6.399766682024845
Pd 4.318765991289478 9.665752757444608 5.919966904625158
Pd 7.272471556446791 3.4757057704948404 3.374514733442405
Pd 5.763154857502975 7.969662582473168 3.858837354713325
Pd 4.7169087976299595 3.246370352157175 6.934840118014286
Pd 5.3491826758000975 10.5277343280288 3.5219178473037984
Pd 6.152756436418281 4.963882043816964 5.234830830169625
Pd 3.638916180276174 1.4451262632495374 8.73882546479958
Pd 5.711832454128843 0.728940483837752 7.075730937584069
Pd 2.0789738909175592 3.3645981498402815 7.402817157318309
Pd 7.5174186581151226 8.017360759596242 1.772700700972463
Pd 6.26548958699906 5.799895298783489 2.436171777204225
Pd 2.409926032538271 7.798507475227869 6.056791035347635
Pd 1.3979920105969112 5.351497303717418 5.63330507807513
Pd 3.791959832873689 6.093874078118343 4.506175119785317
Pd 5.39003633073415 2.0211390025766445 4.660658686278416
Pd 3.252151572490998 8.678295039063519 3.64568883363194
Pd 4.6664491897317 3.8549894470227732 2.8402661019996835
Pd 3.100422627239224 3.494270476534131 4.925043785693678
Pd 3.2430823067262327 1.089250306699385 6.086573980851504
Pd 5.012618905969074 8.886920433286228 1.43615404990438
Pd 3.7737719235922116 6.627652193782767 1.9111069832212615
Pd 2.1316086577761237 4.73371264565834 2.8381018136497183
