53
Energy = -230.04322618 eV
Pd 5.115330212839012 4.563821850427009 1.0884131456283548
Pd 7.478447524478941 3.4251465685463103 1.7243954862023356
Pd 5.118157533831025 2.2896204179584583 2.570620781037979
Pd 4.266721717616555 6.721215328722422 2.4437375854314505
Pd 2.9733789084581277 4.272197463890461 2.6951443015064642
Pd 7.369393288280354 0.7754311925478504 2.7243625736902173
Pd 6.85182764954552 5.979040805786703 2.53137630563193
Pd 9.603645942540986 2.2359469466614605 2.975713574363284
Pd 6.145371036141515 8.522179582067162 3.174730650955968
Pd 9.23871878470395 4.930649314066983 3.2583271156202858
Pd 3.472135471744859 8.846412125199565 3.9216498770582726
Pd 5.266585395838952 10.885988306149972 4.0025462758952175
Pd 8.505864972012958 7.5453084407049875 4.025204635983205
Pd 5.2211566771058076 4.487600594193499 4.043428460774917
Pd 2.2582000506225466 6.457535261429102 4.192341788431919
Pd 5.776013671285342 1.06052459820578 4.97273347148293
Pd 7.325354031795042 3.0321156649923666 4.307059190986888
Pd 3.4785432354698926 2.4810623455137324 4.694523081419107
Pd 7.59264477839683 9.861803003805374 5.014988183224819
Pd 1.3137880486120972 4.092783875530864 4.8722612547407556
Pd 5.164900456289447 6.948882855474384 5.041916748237422
Pd 8.521600574530058 0.8863383933335726 5.213341029542035
Pd 7.523144356991947 5.458223562749483 5.274699020150493
Pd 9.880303505841187 3.375213103709688 5.371478169628325
Pd 10.035679693077753 6.047215127366695 5.689065601236707
Pd 4.17243637899101 12.726338258539865 5.47945392560749
Pd 2.720263089336184 10.541274222092369 5.933972287429397
Pd 3.5301755654065796 4.975353023930448 5.993790673806588
Pd 7.262767697173887 7.715931663582876 6.563866240936685
Pd 5.077687244502883 9.45468278051373 6.137296452873529
Pd 6.411122507562208 11.636845513651869 6.657204570478227
Pd 2.6678544893263267 7.8159977370078355 6.372381962159022
Pd 7.667072749076989 3.3803485262826563 6.916187940628565
Pd 4.949203133220465 2.73350906839193 6.847089817703218
Pd 3.9687642170778705 11.849019798679555 7.912395947589349
Pd 8.221350382586259 9.7842578655488 7.781188896857875
Pd 5.832703687080414 5.264293290515315 7.283644781779296
Pd 1.3929896206448094 5.630850038363801 7.247011724731452
Pd 9.309083807737943 7.096148319352779 8.05038838987954
Pd 4.842446115400021 7.523658283781018 7.863289742173709
Pd 9.810626861346348 1.6328995050967 7.390483536588174
Pd 9.926202636344458 4.427167695910896 7.855982203113384
Pd 6.977647035694105 1.006047104948538 7.558935803466962
Pd 3.024765980277152 9.447466552856817 8.476262684565677
Pd 5.735001432800214 10.052091213315677 8.704649944902831
Pd 3.495126644045141 4.326695153520367 8.558737839892894
Pd 7.064686144330839 7.813558927875551 9.351006166874223
Pd 7.747752855018101 5.2348289387772615 9.157044336223828
Pd 2.7147361956212013 6.868398818842457 9.190834709797368
Pd 5.900082248900827 3.264970590015079 9.245040729296624
Pd 8.463826910914438 2.6265118581083633 9.414010445610067
Pd 5.247963448681482 5.821814743230245 9.992726511810508
Pd 4.596075827352507 8.39410620273387 10.468385848863056
