5
Energy = -14.51964489 eV
Pd 7.487213980977396 7.84914733942605 8.141186933640936
Pd 6.2731514739577054 7.998275963708434 5.9281914915891445
Pd 8.651656919461901 7.089060944402911 6.007021677205862
Pd 9.873164546825759 6.99714646201002 8.233940631192821
Pd 6.282919551644341 8.568096453505563 10.163399813338431
