50
Energy = -216.58825079 eV
Pd 11.05197255279099 5.557613044854467 7.3773000962734905
Pd 10.417200933953872 5.638861409843808 4.7728663265450875
Pd 10.29964415383151 7.804936401436796 6.35097992054515
Pd 8.459104209604433 1.64611823739032 5.91883734193273
Pd 9.335996652016565 9.563318236998933 8.021758803210622
Pd 8.835640097804001 4.275510734630913 6.769562452848605
Pd 9.847388305204753 4.55900099588541 9.450632266981646
Pd 8.8501881314242 3.6471615176294563 4.149242527565187
Pd 9.014501497360728 2.238527225666189 8.491429840064077
Pd 8.39043161751761 8.426766798659669 10.258554284477551
Pd 8.593100744150927 6.742031590331542 8.173425029670106
Pd 9.864785480438554 8.054796371075392 3.6740484938831566
Pd 8.145125286693398 5.879547983319877 10.944837889620162
Pd 8.016232135491636 6.512125888203242 5.51703381131924
Pd 8.389639239291308 5.973049514045561 2.880502353920369
Pd 8.456755793501193 9.414209422050147 5.449404268686875
Pd 7.396045417984282 1.5766287290402476 3.441245012734641
Pd 5.595438456211219 4.81976812245185 10.960650825954776
Pd 5.94222701733911 0.6865940060783665 5.494407501018255
Pd 7.234530434129269 4.326149812244997 8.919504427500652
Pd 6.786152326342448 9.09336873252259 8.243332073705258
Pd 6.512096945269966 3.6024218604134757 5.459821119383346
Pd 6.510789987731599 2.1034376704335136 7.6941251528684615
Pd 6.635120152626968 4.047333841301812 2.699451214348036
Pd 6.175778825250009 6.955295773321091 9.54921483571341
Pd 4.146885611155174 4.253291079328661 1.9528041018096636
Pd 4.820905889228832 2.2927008438891776 3.6975880439781403
Pd 7.408491671184532 11.281700036095168 6.894936169113956
Pd 4.684518121763261 3.665797569785032 8.749957534477696
Pd 4.240927229732265 2.5978989444301304 6.37148716046525
Pd 5.672331940318071 5.741011462275621 7.129345946904142
Pd 5.751308576086945 6.5081738235722515 1.9037279523655088
Pd 5.625204490028318 5.92788454959965 4.4270718635579245
Pd 6.221033860350374 10.520407998515356 4.500694350713902
Pd 6.040999220121776 8.210563645483088 5.926519923973882
Pd 7.225763275278841 8.278150102620744 3.3641918538700133
Pd 3.638532938835479 5.975877459821129 9.453681965812569
Pd 4.290831037820888 8.226470759411523 8.214582132288065
Pd 3.0859392331627564 6.445234069797845 2.948122130763709
Pd 4.870104272740986 10.467188820144147 6.849427173914365
Pd 3.449411720906447 4.376477702450281 4.535731778396047
Pd 2.979008273871019 4.817854210673559 7.0720861167800875
Pd 4.627285513805063 8.53310415324813 3.4594660660781997
Pd 3.5360102376180844 10.691710166693777 4.56722014942575
Pd 3.650767675487862 7.157223357268785 5.74336539183326
Pd 1.8479952997186897 7.109485888711927 7.812339318143999
Pd 2.4493605588445537 9.44159238606064 6.631956402726026
Pd 1.3977562807284558 5.9763796218727965 5.1469154939416235
Pd 1.9894843325352933 8.530562727132455 4.113748473714523
Pd 0.1928375661897337 8.151161891487234 6.040854365038274
