51
Energy = -221.9943159 eV
Pd 8.554659360338743 4.924054318186338 11.310008811382419
Pd 6.969310885990331 3.6065687394003367 9.412330217216791
Pd 9.692566002918904 3.4899676314105346 9.348352065681757
Pd 6.361793652352595 6.0894436750428 10.300600900427199
Pd 10.770247157983539 5.941905802722243 10.085835932178643
Pd 4.562546618217938 4.759633562842628 8.880565191936675
Pd 5.360041122726864 2.5001950288906696 7.498517041888065
Pd 8.654927297437698 7.5492654074211725 10.713978065168709
Pd 8.285894602099308 2.0775444556601497 7.425597904155236
Pd 2.7418563196263537 3.5340397539757844 7.347206921247924
Pd 8.569551588221735 5.841771686028124 8.641298166239942
Pd 10.099737781500272 4.1471486932145964 6.8973654707098095
Pd 6.053043310001423 6.535246320904247 7.5681574712887745
Pd 6.384480721765606 8.789458698382465 10.09840168421169
Pd 10.52051572112996 8.598749060920863 8.99164463546428
Pd 3.782466085642404 2.448411341850514 5.200455189133656
Pd 2.6090015606222785 6.124703553752578 7.693377704220097
Pd 6.564337776182073 2.4754578026867384 5.0480535530526085
Pd 4.248892940237888 7.445677719047293 9.350335358207195
Pd 4.769260419856883 4.763301594700018 5.987215324691088
Pd 10.961124778255298 6.497619648519829 7.485015090356791
Pd 6.7867951454407365 5.290638544183483 4.356278820542389
Pd 8.952675076799187 3.72501795482523 4.674479475431574
Pd 7.265299836628406 4.324699622093682 6.857023831240032
Pd 8.66185291876842 10.165172146725602 10.227474574416727
Pd 8.481700907062875 6.557408636436909 6.056070810823773
Pd 10.626740244046495 5.938741891850772 4.7892253479159415
Pd 5.343057861557969 9.093080862279942 7.268174394004162
Pd 7.985847317595589 8.427729733031017 8.025183826588124
Pd 9.506129214346844 10.8496073375174 7.796670994230485
Pd 7.5576569656927 3.1617126650457124 2.558599639057504
Pd 2.352621677672635 5.148912605162106 5.042682570437009
Pd 2.665365028598641 8.844836418712198 7.701531911304943
Pd 8.789851247046425 5.678925848584915 2.7291233977434306
Pd 4.483118147365465 6.139834148173407 3.3814353703259097
Pd 1.169025542846583 7.498459082758599 5.936558741993345
Pd 10.11742417783123 8.710685616923314 6.249025873149412
Pd 6.828888193037498 10.949036743148651 8.373407212675136
Pd 6.432685487656827 7.920813601979293 5.1306383812689695
Pd 3.951272891235779 7.3438178617825285 5.745144871615945
Pd 6.286664850380698 5.216413632312386 1.5038043081416705
Pd 4.946973756588395 3.601741891999973 3.1798965984085754
Pd 4.24757866876298 10.183698747091452 9.37819132015075
Pd 8.95645105965079 8.12721061135985 3.957354003560022
Pd 6.787631448636914 7.553767594860334 2.4822958093851626
Pd 7.793645344340489 10.084881857374507 5.896426861528996
Pd 2.2232653482986713 7.484749544995157 3.4769797858851756
Pd 5.210710973782215 10.698422032122426 5.277959347905585
Pd 2.728112981497233 9.623180613403292 5.135198135587759
Pd 4.588963961966562 8.821980572524673 3.378633636273859
Pd 7.022940405169889 10.022353145738045 3.343010591841381
