55
Energy = -240.36696016 eV
Pd 4.16124636415408 3.892992760245432 2.1976351091313955
Pd 8.216398849369913 2.878688236741889 5.537424123100757
Pd 5.6745396873688625 2.2727813513916666 6.203788247252862
Pd 5.578280715271914 6.344841701718715 3.8941584613749654
Pd 3.7741251969738037 8.255699941286464 3.4739061818264076
Pd 6.001173774888179 8.013536720680296 1.8149116800704594
Pd 3.98026225976086 6.418467183058246 1.479110643340996
Pd 1.9427761579412564 6.751610487276802 8.26403326063799
Pd 7.019001880014035 5.3510549309834685 7.949073792532129
Pd 7.276584756361436 8.029214877960687 5.297400236323574
Pd 9.085813566533703 6.853250356769229 7.050258526775275
Pd 7.550166837950592 2.7699008010323 8.115745639138675
Pd 3.021895088901116 5.659578489694255 3.8786481951623624
Pd 4.124235078840941 3.9116652571265544 11.00858002222869
Pd 2.459263618048778 4.199579023066795 8.9500355546899
Pd 11.460431014579557 7.081804765989549 5.703412967319629
Pd 8.935829792807441 9.659167508565735 7.059519235659583
Pd 10.657878542454505 6.143838669207605 3.281800607033255
Pd 4.798654025365026 7.5476658687967175 6.244417499770112
Pd 2.3423650057212346 9.292723705120242 7.649708758746438
Pd 3.638634186945662 3.142598706659492 4.647628525845284
Pd 7.22568897084362 10.732880384010507 8.834367437419356
Pd 6.466807256366868 5.1490894940257546 1.6759624944068376
Pd 11.172007649269132 5.463568435025457 7.855932311569199
Pd 9.702719964539472 8.404070989676834 4.283685306961152
Pd 11.271849883283096 9.77312033717906 5.874903968611278
Pd 5.98169615075346 9.788614122338526 3.835620207682238
Pd 6.801427763020141 8.001326701497169 7.956851489216649
Pd 4.527859527592963 6.151586193374665 8.518489177251801
Pd 10.402959289633197 6.738998071048743 10.13947699690432
Pd 10.149382041510616 2.9709742761448465 7.431062302968993
Pd 2.548727588055706 4.9392357251515975 6.395453025689776
Pd 5.2204654028847335 6.337959039918065 10.999270223219748
Pd 3.602499566948683 8.246777664295882 9.857964244085275
Pd 5.1579946402715064 4.904231853890977 6.110313201165052
Pd 8.704485222859793 4.244910348270071 3.179625600648077
Pd 2.3083385250131734 7.497852283433327 5.670742577210797
Pd 8.163085217417024 6.822359561386511 2.856827605374989
Pd 11.071933627426521 8.277582146618549 8.096496296393038
Pd 3.0847739409581294 2.3965919443602948 7.090448444563301
Pd 9.155014585195287 4.548698608239874 9.30566231028054
Pd 5.008383159998673 3.4132118681025942 8.548353815868358
Pd 6.752396548219047 4.104449461064569 10.420766315008477
Pd 8.560482511140313 10.714451395160665 4.688927717517519
Pd 6.469131484209201 10.495895964533645 6.306729072940655
Pd 3.9541892978268964 9.913077257166393 5.580963121746231
Pd 7.733196172917631 6.579975525668675 10.286452713471569
Pd 4.817647979291148 9.803577496421209 8.214385574034926
Pd 8.172532995402623 9.411669364252113 2.3783449377629036
Pd 6.214064725961275 8.797221055361975 10.432548956258882
Pd 6.220029918220778 3.5287949064298334 3.8479928366343774
Pd 10.24276018397296 4.69307972695061 5.428928120398943
Pd 7.647963093761373 5.405787743097005 5.372312426686391
Pd 8.884698109500027 8.846036704059143 9.613313938123719
Pd 2.5165676860703248 6.044999089061258 10.82294504455279
