50
Energy = -216.83897502 eV
Pd 5.655078066366663 7.445328524864029 11.460394523503053
Pd 5.564011975549521 5.084559118726872 10.148223817826082
Pd 7.758304329784035 4.232466925894456 8.748511119788235
Pd 5.460039107613814 2.8484989267942233 8.741216076437537
Pd 3.6676462208979297 9.154079713768212 11.261096520110442
Pd 7.676091079959646 9.084138575462198 10.932652628004698
Pd 5.4738716743612414 0.6733794617955035 7.271191071724232
Pd 7.737135050319525 6.621720913930699 9.933454630686294
Pd 5.694444500642277 8.129887148880265 8.85231874495053
Pd 3.5643140687511865 2.576294511271584 6.797022145321755
Pd 7.763198434740267 1.9489448259591686 7.305964680096357
Pd 5.598468523322883 10.459981013316042 10.028878567791448
Pd 3.4993295437334204 6.912037840772181 9.87315034153633
Pd 9.76952416741401 8.324348938526127 9.347447052239339
Pd 3.513248669345953 4.72564303824812 8.360421666747675
Pd 9.967815742244394 3.452971094218933 7.311327719324198
Pd 5.821667414275208 5.841125935783894 7.552875131480793
Pd 6.008970841140732 3.59961540823994 6.18558545384251
Pd 9.910456702155557 5.829172141435589 8.52317370326072
Pd 3.368558205124311 9.479416845352548 8.641962773172368
Pd 3.908626981854467 0.5008232444962291 5.166921842725442
Pd 8.574206658041462 2.9448768222353316 4.893502703017497
Pd 7.795970349362367 10.030735583727221 8.46264164005727
Pd 6.377471665895549 1.4112769618605474 4.812996021511659
Pd 7.920427201238647 7.567795861185671 7.368520959761326
Pd 10.729356667160271 4.6083446251791775 5.04370429236607
Pd 9.92624240960296 9.333915521607706 6.863383846689658
Pd 3.4101042265954398 7.1951169571638705 7.21329369758926
Pd 8.231650945375264 5.213547959610906 6.23691137625401
Pd 4.092480875764006 2.9078052756942183 4.125968991819183
Pd 8.642020856655149 5.287233293770045 3.4917444263530966
Pd 10.43852856026532 6.879991516278152 6.252423577434963
Pd 5.434617217797199 10.596601329710923 7.304487923296654
Pd 6.493612239895131 3.745751812270292 3.3542582775871232
Pd 3.6662096327827887 5.022237323990939 5.68114778689889
Pd 3.243352316711045 9.637499124046725 5.990885902026622
Pd 5.657047093900825 8.249064038295284 6.035983619549654
Pd 6.096521469927843 5.974679583245597 4.798545934527085
Pd 7.65219402007944 10.152552388888678 5.787644046014195
Pd 10.738164531948565 6.934540850454298 3.6673834004949493
Pd 8.278346291739437 7.763654409721941 4.739978633820294
Pd 3.279292471783082 7.345340200712357 4.542123315458141
Pd 5.3799900593697885 10.605087687475345 4.579867584728324
Pd 4.175696910367434 5.337376567399273 3.00272277239897
Pd 6.5478220466493156 6.096282988629741 2.035751067253945
Pd 5.405443989844939 8.156201198027212 3.2779864281562365
Pd 8.747784281523582 7.646562402914619 2.1105713789878506
Pd 7.4657171278024235 9.790303881960092 3.15137640824266
Pd 3.2529199007873655 9.672834385794905 3.3142154924362512
Pd 6.566003870798903 8.546774231015585 0.9567866045399505
