50
Energy = -217.74327271 eV
Pd 9.80269514692695 5.2081786714836555 7.550723049077516
Pd 10.939144282409616 7.267820062066457 6.1528565787847596
Pd 8.570513432886198 5.885760395568716 9.898651429036356
Pd 10.627381148772395 4.913420820349439 4.984024613124815
Pd 8.604304561111462 3.3854689448695225 5.904855095418195
Pd 7.851261363209865 3.661670495872219 8.451525192846082
Pd 6.732288276199816 4.1108879088674675 10.792583755525365
Pd 8.317423500721182 6.441867378776321 5.688856774401664
Pd 5.841733159722406 2.013757432180937 9.454887106736745
Pd 7.570580868366328 8.426992670200606 10.008926677899145
Pd 6.387164032950839 2.1280269797807554 6.771678563185606
Pd 9.056006462401408 7.783085646580864 7.984759603901049
Pd 8.379113569219047 4.763206990084091 3.568273006358522
Pd 9.750671259600724 7.164893400819258 3.6402502946057282
Pd 6.724724800029758 2.620847875489237 4.096923083981187
Pd 6.832281810427823 6.213738982203323 7.905561022531567
Pd 5.16842621796379 4.210505458688549 8.15112635871498
Pd 4.057983274631068 4.411969088290037 10.487037998624292
Pd 5.76641845716393 6.50221922379332 10.3229839535312
Pd 6.269894577592208 4.675380069447485 5.740486334955762
Pd 9.109344165164648 9.161696618641278 5.643989974492622
Pd 3.8143597074028275 1.8883487442551898 7.685764893132202
Pd 7.7312314575482874 6.693111821004999 1.7583806346999233
Pd 7.49365257340424 10.002623284836698 7.738523558410279
Pd 5.305803586525732 8.54091263303108 8.645701919896672
Pd 3.7482388441307775 6.401814977168949 8.58183842251272
Pd 3.5586843692726458 4.031834611448215 6.045022038072276
Pd 2.3315298914606175 4.111350890131764 8.420443781509357
Pd 7.643683728499524 8.806195696159435 3.506199287846458
Pd 4.360054104101017 1.7706748263858045 5.024518731914929
Pd 4.899672597552873 10.461215132854402 6.812893708492275
Pd 4.568911744981615 2.2934157846462355 2.414782639211901
Pd 6.522801044248425 4.1854233081513135 1.8982008406153308
Pd 6.4019028185444675 8.19434252515454 6.178246842769543
Pd 6.931679029223096 10.696154291222566 5.137367872548863
Pd 4.2914552999719895 6.612614761759818 5.73663156191542
Pd 6.197127281227575 6.66674431956483 3.85547651926608
Pd 0.9798949246853761 3.764627590229728 6.0489978726066385
Pd 3.1462565268243092 8.563627635991285 7.120831517529961
Pd 4.589244991978266 4.60615087030604 3.6648197223235193
Pd 1.7659220591227156 6.245709308839684 6.782798559209655
Pd 2.293891552096145 2.935774602447154 3.7700209090710124
Pd 5.6028770803633785 8.588670640191552 1.915399799395491
Pd 4.6608027092461395 9.179699942592839 4.412187377007387
Pd 4.60331991185024 3.673684665817367 0.15821403005486323
Pd 5.0755626417292925 6.175085384003616 0.9783660759325514
Pd 1.986237573777893 5.537348376983814 4.210710341822757
Pd 3.6114804981892963 7.151417353978556 2.9283913676037563
Pd 2.066664789629904 8.161341255930264 4.777474960679755
Pd 2.8298887864823588 4.7300149725216 1.7655572961098394
