53
Energy = -230.79363554 eV
Pd 5.279246060237417 5.427468142962503 1.1151200070670861
Pd 7.193767882311865 7.198294602594324 1.34857245265535
Pd 2.7219416356566453 5.882437251926263 0.9977814991392289
Pd 6.462281531704276 3.256696597155518 0.19739002947718642
Pd 3.656536545072206 3.297848550300998 0.8036221735320358
Pd 5.1684728810259335 1.0510923937852505 1.1056079504876388
Pd 6.506714169089175 9.279763715240328 2.76174406738468
Pd 4.367084167583237 8.176968764130125 1.1690249812747537
Pd 7.653388623871289 4.770412698819824 2.3533727376545066
Pd 1.4740352355824948 3.8351180807982304 2.228113807771575
Pd 5.917326925086834 5.056142247515489 4.734095335696792
Pd 7.671612269383191 1.7347196541853904 2.0613468547768448
Pd 3.5453638885243177 4.819986267131479 3.5340127754942783
Pd 3.189894885408487 1.6435842695762406 2.926067918281332
Pd 7.890578876091127 6.886441023196894 3.9957132007771143
Pd 2.5078086057288598 7.350460331110823 3.151113336083422
Pd 5.500652661390264 3.2251562936711595 2.7298065100581272
Pd 6.050053994331601 11.057814391741108 4.68254499865819
Pd 5.778721878354867 0.6324648987709811 3.712610498031373
Pd 5.194958167083677 6.972260722445005 3.244054910740185
Pd 8.43098467157136 0.6134378632090055 4.45273121025322
Pd 8.351521895419241 9.498744192650692 4.733434943139739
Pd 4.013905707157634 9.38928851874291 3.89127021648883
Pd 1.5974486944035913 0.4174788496958923 4.690239850730477
Pd 7.571581399741622 3.0247368066561457 4.430034410716565
Pd 1.7456398407609262 3.0441708641342435 4.70337787264653
Pd 6.036619387285174 8.332739144895958 5.385554068354785
Pd 4.477590295735785 2.5660675067784435 5.081872504409721
Pd 3.977115377747849 0.11597805147035578 5.693120262460319
Pd 1.442867232314641 5.712942434828778 4.908857774565264
Pd 1.926648118497256 8.502070103305401 5.536443539090593
Pd 2.061115132588314 1.7654274195902648 6.976980157787079
Pd 8.430434384689306 5.107794925704607 6.004974488894591
Pd 0.6667704129902057 4.031986032416209 6.907978508853138
Pd 6.286808993885466 3.4471655935446885 6.797369939546442
Pd 6.497397557337126 0.8308634881455395 6.304339140080056
Pd 4.2851042508311386 10.073537678022088 6.4573899003530695
Pd 3.9339557637864933 6.905395321892628 5.800088363303044
Pd 8.148319042687831 7.712357360641254 6.813331008143101
Pd 7.069794471886637 10.28139190371965 7.034763025995378
Pd 6.15531140238296 5.989055485318474 7.175207601342688
Pd 1.7258472964125302 6.345313445354697 7.487508589766765
Pd 3.5906015193008867 4.459221803828409 6.566687634125286
Pd 8.781491085806437 2.4013300752952165 6.7222899434045305
Pd 4.47292807427598 1.8084192139602133 7.884305941137798
Pd 2.61983621984437 3.736758496591935 8.84376292270358
Pd 2.894796114504152 8.597933053492525 8.099001537402694
Pd 8.041758504427616 4.392690715388821 8.581586936064447
Pd 7.018866393560166 1.8173697853014272 8.80946997855995
Pd 5.57300159424341 8.380715762326206 8.132811293928897
Pd 4.020799537721119 6.2322074898034865 8.762984338993252
Pd 6.5653650010543645 6.394931739157482 9.70307231154787
Pd 5.317576393490073 3.975590628938237 9.235686392028523
