50
Energy = -216.34836691 eV
Pd 7.944564415701715 4.719519473987042 10.907301358212582
Pd 7.809679527354381 3.0514211857139615 8.806513712089997
Pd 5.7182528433142235 3.3688535949535843 10.506281119929621
Pd 9.683900495744519 5.234770621300961 8.944084305612424
Pd 11.25950714567667 7.040499675111171 6.851539604994601
Pd 5.653990163512743 6.0084056988013055 10.762801732557804
Pd 7.94537009718319 7.151254697923166 9.962597596270221
Pd 8.670964913381097 4.261094826317271 6.690585590363116
Pd 10.29577505969898 7.9088117555059885 9.166417457673353
Pd 10.48798742250808 5.255146834509124 5.0228472484201605
Pd 7.192855630792483 2.0558715062589017 6.266792522080628
Pd 6.5324669469465295 5.415902007783229 8.19244015728076
Pd 8.667474996933748 3.4520598129498827 4.188396778651974
Pd 5.284153499746616 2.9858471866469976 7.975864358332433
Pd 9.62238216528848 9.354455819967873 6.982581667148529
Pd 8.334727660653726 9.800052563524428 9.463082939930171
Pd 3.749049011225716 4.763776015532243 9.37704246463242
Pd 9.999833400746883 7.909861207410029 4.581533273762813
Pd 8.69420173184801 6.865487956684622 7.106194167855947
Pd 5.692507407397743 6.978302862709322 6.033179869295688
Pd 9.325376126022341 5.876174670235959 2.5960403016775517
Pd 5.778941060645717 8.648697584032735 10.502045978315063
Pd 6.830810653264243 8.424558525117543 7.908876871566423
Pd 4.50209599089791 2.2636385709224025 5.596129463198879
Pd 4.454308195366859 7.4738081500971045 8.410783288581287
Pd 7.303173995169348 10.900929978575414 7.109644030636568
Pd 3.9181550526873083 5.177487504855556 6.774145014179215
Pd 2.0054289107932797 6.469855659079423 8.322809847276057
Pd 7.6055505492058995 8.85820494358898 5.265864831247321
Pd 2.6740454639303977 2.998137946349155 7.453851496709946
Pd 6.385437886904961 2.135292385746562 3.685025790304601
Pd 5.116405025735722 9.69665139199548 5.890964945019602
Pd 7.967522825277803 6.123239751700071 4.75596340299279
Pd 6.095762683862441 4.377727887134543 5.373814141481084
Pd 3.2857111775880683 7.129340968916269 10.6915506149862
Pd 4.96375078745402 10.172432516900434 8.438352396069615
Pd 6.059723908409662 7.214133758849484 3.4472787838351153
Pd 3.081948768994958 7.954273810657904 6.175103051579276
Pd 6.152366468861399 10.139005549697584 3.452027496056512
Pd 3.7550105797926436 6.115059661877651 4.285028338675127
Pd 6.814895075284627 4.61748589555143 2.664124240822435
Pd 8.208521364921417 8.4469347793306 2.6016730719240804
Pd 1.4353672133905282 5.894367553665068 5.811452922493133
Pd 2.390604383609618 3.6956038703575667 4.862088090478344
Pd 3.9219947233872676 8.719931118473761 3.700625513255145
Pd 7.205773592412859 6.575575154047779 0.9637665383767041
Pd 4.362410644177326 3.6959381424689974 3.1194069080523223
Pd 5.5276385014438665 8.644435718300578 1.3272902799726407
Pd 2.1940577605304603 5.010980944777857 2.516738353973682
Pd 4.599104049357622 5.9791763464893934 1.635859170547596
