53
Energy = -231.20754506 eV
Pd 6.689642161585444 4.072145852708419 2.0383852447914723
Pd 4.635046973142909 3.740041016971273 0.3052055685830164
Pd 6.0607624770298365 6.06180397027058 0.2653852801812895
Pd 3.1496055698908707 5.960820596228802 0.9768844524197198
Pd 1.9994179213937127 3.4488111662797443 1.0473856993466564
Pd 4.568202919333195 8.33271205391687 0.911968531802503
Pd 5.882802174400543 2.058104550691001 3.6466263148413876
Pd 8.586968764735479 5.871625597461601 1.3164480287572466
Pd 7.174558217023228 8.157873037171521 1.8551008304361167
Pd 1.4102503100064683 5.193666875990744 3.0539081676757287
Pd 2.6811040640334545 7.866029195145019 2.842210060393243
Pd 5.723653513382765 4.6649235226543855 4.533185371813422
Pd 3.9265810058286528 4.064206663389301 2.786670515045918
Pd 5.221382833468509 6.4869123751029525 2.6757183126253996
Pd 8.147959294377191 3.397807793656065 4.249307846777991
Pd 1.7895674189548292 2.4524423212623594 3.5891128425829026
Pd 5.114924050126693 9.073733581496883 3.4898607947579743
Pd 3.81059799609609 1.5625844073970883 2.0152878877649063
Pd 9.668731497427 7.823593655181406 2.9741639069122403
Pd 3.830845845567939 3.0224968936352083 5.2869284354459
Pd 7.693032122516266 6.162262897045415 3.7334877982556374
Pd 1.0330083249809932 7.114223909204763 4.876811851071323
Pd 6.283163155042747 0.39671796709505525 5.699336414487016
Pd 10.1009354152926 5.174633628121468 3.6722258867117104
Pd 3.4253525520186674 6.053586290877615 4.630283202021927
Pd 7.6817580396720695 8.791955910433483 4.520872499513893
Pd 10.286022457078635 3.8233965078696044 4.821336677297893
Pd 9.530224306186845 7.021080861115314 5.620125078124639
Pd 3.7233015074304148 0.5306084114856597 4.593629093620647
Pd 2.2966970803145856 6.925170521135487 7.330213247551262
Pd 9.860958811450415 4.23477138920867 6.252199214984248
Pd 5.712721142752685 7.167703507152456 5.423138146492659
Pd 8.614896939915019 1.7919207626457214 6.3626177254859755
Pd 1.913624428043148 4.560965036979153 6.141584627337009
Pd 10.100935415292602 5.836130878453081 6.7778558368897786
Pd 7.522583496728787 5.326939714314448 6.303935118659128
Pd 3.2748020905501116 8.614746363325397 5.486297424630869
Pd 5.690139439031367 9.730532731283894 6.112915971309374
Pd 6.275386214266363 2.943775270827893 6.405398547243269
Pd 0.038894593423951934 3.210386649600092 7.513444278570268
Pd 7.502678781694207 8.013009122827373 7.246786458414201
Pd 1.7431423274913254 1.6611592639150405 6.168204192572483
Pd 4.581737803977119 5.110912495124352 6.913055510229028
Pd 9.193118997981893 6.121652345064399 8.206856391728577
Pd 4.251768230724412 1.2528607873480821 7.318340726149099
Pd 8.057076544450128 3.617220148448191 8.381123994286176
Pd 1.1562343643257136 5.206579997604287 8.961078362201853
Pd 6.8112260696778275 1.1645468285060643 8.32851512858376
Pd 4.777719797535543 7.787412843277889 7.836190181454736
Pd 2.7568677088090694 3.2276716865310884 8.26882031586887
Pd 6.493622278853658 5.867843608731138 8.758101399100674
Pd 5.335087563145246 3.373640684965155 8.925553414930263
Pd 3.8063848402049842 5.645603591729805 9.323878930125899
