50
Energy = -216.02132298 eV
Pd 7.920069640714129 4.112364463729053 0.008680579916494914
Pd 2.775606122416597 4.158837592284131 0.3028117519834681
Pd 5.333700044752939 3.218200574164122 0.6644656509372178
Pd 7.511990994211865 1.782649755047843 1.192690308067816
Pd 9.474279043857994 3.3656702306915074 2.1669487718035016
Pd 6.557378698465164 6.211817224949511 0.7234683308434363
Pd 8.981433487604448 5.962306979865816 1.757490864469048
Pd 3.2118594333887596 2.216018030752045 2.067966370354985
Pd 4.00406260467081 6.388369072333675 0.645507534028839
Pd 5.402132511169742 8.648739339097364 0.8069938849150351
Pd 6.9877803368479325 4.278651819671198 2.626664571193682
Pd 1.4259401408901438 4.259657663722903 2.6367326708162704
Pd 7.592077554539453 8.19017247309632 2.5048674301621996
Pd 8.035592266555112 1.4745674592543883 3.796270771135473
Pd 1.0386794692127836 1.9103689327608562 3.593677571980866
Pd 4.318630957877322 4.5691064582862735 2.6874848477145776
Pd 1.526167749592234 6.561982660812775 1.3074704281633889
Pd 3.143664406945878 8.558967096182768 2.358085439642522
Pd 5.527806530134135 1.340992148319123 2.8822844309413087
Pd 8.853546270160077 3.8768540434137235 4.66273125126495
Pd 5.259356756207907 7.046915692983931 2.952941217999083
Pd 8.124861063798434 6.2754206840791324 4.252627657856944
Pd 3.364000812842984 0.8168971557998992 4.448137646883742
Pd 5.415203198639402 9.732063047702658 3.352443741001303
Pd 2.59066269005504 6.288277958416954 3.7008479911700713
Pd 1.3027708787474097 7.573205462644919 5.633227456016507
Pd 2.4237291289749523 3.753944441224984 7.383532664756171
Pd 6.046076800848072 3.0599885714422577 4.741409736204955
Pd 6.550707905886599 8.136268016377652 5.2698243982498205
Pd 1.1665825536028886 1.810775464320805 6.1463705527805885
Pd 3.3079686414918945 3.383911824647269 4.817327297327912
Pd 5.680614886523378 5.6073329371893115 4.968790713201849
Pd 3.895355064690658 8.290640054826257 5.081969951481417
Pd 0.8999612633530071 4.651564599336171 5.287837199410276
Pd 5.79997054934909 0.6775090838432857 5.609549955353923
Pd 3.343050454843012 5.847745539386666 6.134460528101103
Pd 3.6542922764102417 1.3322988148840995 7.109530074615287
Pd 9.681184204042953 3.6819061190728313 7.723919863515419
Pd 7.52063025632047 4.7927589350036195 6.759449475094891
Pd 1.50999095882385 1.7153667216063366 8.817842463729072
Pd 4.977971712494733 3.8606452368124695 6.955183289025639
Pd 3.1326138560124948 7.980967159876691 7.694761938036233
Pd 8.023216875712176 2.1374214207158033 6.459714861879401
Pd 5.6475545281786275 6.721991474455827 7.456000281080833
Pd 1.150710047427547 6.073282249755953 7.831605701329899
Pd 6.058604075563695 1.853043089192704 8.153625133838387
Pd 1.4661670649748524 4.26412074731433 9.866258952792649
Pd 3.9223725339294666 2.9228062240810764 9.46623276144982
Pd 6.184161699364414 4.5637271982980945 9.130084592631254
Pd 3.6777697343066977 5.6038424208203805 8.944130807399855
