53
Energy = -230.05174573 eV
Pd 7.920617736561435 4.380506890802895 1.558764509569365
Pd 6.6861378386903585 8.176009233518634 1.4239912075862986
Pd 9.175804187341717 6.834148178658942 1.7952518836498992
Pd 5.8376277850785865 5.824868043395026 0.6395654721940427
Pd 5.465306926337437 4.14580239908644 2.6337532345469157
Pd 4.500616152475908 7.002082278693223 2.6967126615268646
Pd 9.446583093018774 5.017774634643873 3.717359384110573
Pd 7.6430543890285 2.915320002099872 3.8030146466029713
Pd 10.56202754421268 7.366658222130362 4.126044375858496
Pd 7.008219870113341 6.235466450755281 3.2649125835649397
Pd 8.246410205242183 8.610923356981957 3.537852378808347
Pd 5.600672514484968 9.39354088600394 3.559143808640867
Pd 3.0848292953788534 3.6299114531881926 3.653233492944826
Pd 2.361040723820263 6.085798130567372 4.20060173912281
Pd 7.321280124993416 2.0549501217431643 6.343425972216574
Pd 4.891748514169736 5.496113846165508 4.953616324292348
Pd 9.630175695943777 3.13976917633931 5.614857043833023
Pd 9.947139162456978 5.691043501748003 6.330988357552186
Pd 3.7376906156910628 8.157911952341356 5.054446259551511
Pd 11.540751699277378 7.7180212485882995 6.5689044298964
Pd 5.199972262751929 2.7787032872384656 4.9419300912992465
Pd 7.389017489588922 10.279346199071052 5.400209720163917
Pd 7.435288733463441 4.908644624992215 5.525026862577835
Pd 6.411054641777672 7.661586760468363 5.450354834868717
Pd 8.96964975170338 8.24007260659228 6.070656721747437
Pd 4.7468897424533925 10.52197694460278 5.862073330560315
Pd 4.929523153726977 1.7036616673530613 7.3512119687434385
Pd 8.381913789068976 3.892539390966027 7.930593409851901
Pd 2.788745978610066 1.8581259881593761 5.6563698277696135
Pd 12.196408443313466 7.0806692797726765 8.994704955604274
Pd 2.933048597971773 4.3875183980743175 6.393279163047621
Pd 5.654233875684173 4.207838772938103 7.370252550424888
Pd 9.688698305132272 7.722442820687021 8.576533303696007
Pd 6.066336314447235 9.091988191560201 7.651967534423135
Pd 7.349955904527474 6.518387911482606 7.672965343961222
Pd 10.510721447950312 5.145258917869917 8.797784039059161
Pd 3.268731733623588 9.037722710157288 7.596861085536486
Pd 2.0307178865584747 6.890651647729254 6.734988822305698
Pd 8.504795626786496 10.073040668193663 7.970603124241691
Pd 4.339447290613133 11.266899208193118 8.473853674163822
Pd 6.528824256900774 3.931817414603661 9.857614202433576
Pd 4.643676061788964 6.67882928133163 7.363609181362975
Pd 6.633311053121052 11.922193646177037 7.3195336724729705
Pd 7.460632541126914 8.376469600631083 9.877496242030741
Pd 4.690419657969969 2.0777382209069635 9.898318971639592
Pd 2.57614394725001 2.530128115841566 8.270260567891148
Pd 1.4417291527462264 5.030279548857216 8.544215207419914
Pd 6.636713723340821 10.90233305109297 9.789405061771317
Pd 8.293997301052777 5.842871403369623 10.05533418324045
Pd 4.7559866128272095 8.987025719271541 9.951004451971682
Pd 3.908366535171804 4.5618777251519855 9.33800966373033
Pd 5.637614452060027 6.4553135876640875 9.963309883890727
Pd 2.984245024605245 7.068800306136023 9.427456917462067
