50
Energy = -217.55563171 eV
Pd 1.9244945771228483 3.125850102737381 6.189138621773206
Pd 2.9689392937303025 3.829566716509784 3.793217507140602
Pd 3.865625615487626 1.7075171113721008 5.187852569275754
Pd 2.8550716986985045 6.4903807746600375 3.0451321282361077
Pd 2.008624162747545 8.24978666774783 4.892831755050898
Pd 4.562002885386859 4.709516060604793 1.8288745822758503
Pd 2.3599000673975405 5.717173133076424 5.618929865366991
Pd 5.576571166565585 3.131141898269221 3.694729168773191
Pd 3.4164298624600096 2.521953073275595 8.359739518842368
Pd 6.118699389542114 0.6253799664889208 4.335074271959847
Pd 2.1282118383763824 4.942868897328511 8.190340272570936
Pd 3.738786975887882 9.102284315113224 3.0857190555639864
Pd 4.623468565567395 3.881617416316078 6.505163780712125
Pd 5.374687688701209 7.128082084680229 2.3773765481336455
Pd 5.062347320326716 0.7355152033825509 7.2600206833199135
Pd 1.954019428612069 7.632146996299117 7.510207554212716
Pd 3.1036327852566035 9.982471171064473 6.605469433402609
Pd 4.882161437165864 5.664180527800369 4.558404569757735
Pd 4.644898541127144 8.186512917250589 5.419021931458735
Pd 7.172238284560053 5.086138355816775 2.778346185651884
Pd 8.174162137314932 2.6305067664291686 3.9000682925017833
Pd 6.915132794089832 2.202843374359217 6.175695279605692
Pd 4.3211292135430845 6.371407366887784 7.41164058254384
Pd 7.145360415562743 4.7409409193779934 5.427185498695318
Pd 4.415473755069957 4.655551857972074 9.535357792142342
Pd 6.646067885883611 5.296327076621563 7.97581838048671
Pd 7.889804550247707 7.5087892112466035 1.793733155070798
Pd 8.669886486904671 3.5603004447313626 7.496300603887704
Pd 4.090847767282843 8.698084510474436 8.658534024510393
Pd 6.239347816252597 2.7751367733970342 8.691299233099468
Pd 6.3987963621261885 9.483831862784427 2.984218873351841
Pd 6.478141904923741 7.91205051707317 7.306359681756622
Pd 4.931412293386534 10.788758433768333 4.803328313933376
Pd 5.687261785099962 10.510008385681394 7.388532335190983
Pd 6.9289272306750185 4.82795884258676 10.54173582041123
Pd 9.806111600634733 4.324553466966771 5.119475220756338
Pd 7.064000647699265 7.331308349855523 4.648660505228669
Pd 5.439587158869661 6.987268370958556 10.03119821315894
Pd 9.400454016196457 6.56748678787643 3.7661395416654653
Pd 8.738032706655241 6.344800167262426 6.757945525008943
Pd 9.314334746594094 5.205524298038869 9.421157995045792
Pd 6.366333718550617 9.478414101719379 9.795147170217948
Pd 11.058562930162214 4.82977615931675 7.535424850524633
Pd 8.363342868761269 9.650011889322291 7.995130029519683
Pd 9.032031575703193 9.213979619936017 3.435373205358461
Pd 7.383635017824994 9.901195335447396 5.451915971333962
Pd 7.9863444857598855 7.39360636671287 9.476171378646985
Pd 11.24456366298854 6.635734943818784 5.640756737028596
Pd 9.64474627694677 8.663566175983139 5.890602717484528
Pd 10.40761813196183 7.625565212011974 8.266300671023053
