54
Energy = -234.69378056 eV
Pd 8.049119224702837 2.2398163400547277 7.880314293742546
Pd 10.34420613706586 3.7272272742274217 8.122805555596821
Pd 5.311104672699899 4.143841564569306 10.364831282088623
Pd 10.069230022493697 1.6945722362471984 6.280051658723851
Pd 3.9512257415365144 2.499937024799051 8.680659106348259
Pd 8.301284859308831 5.348448335359869 8.603148401845884
Pd 5.516460033766467 1.5927090324240452 6.788302624679006
Pd 2.492452211920119 3.965756642141334 10.398192792003165
Pd 6.169327770410844 3.994831661379432 7.803996573544187
Pd 7.562201034602768 1.8530433944640414 5.2447827517465315
Pd 11.437232055575581 3.8922873767706614 5.670640101419865
Pd 5.973089532953749 6.530735225795755 9.313101323073676
Pd 8.655878121432144 4.215474416735933 6.088486335394973
Pd 3.7194201668687206 6.2660366142935375 10.931956974423512
Pd 10.352967043961394 6.228275029061142 6.758741982061662
Pd 9.774151688756557 7.602627654604538 9.068762730093368
Pd 3.847026368047697 5.265138613684355 8.365709522430633
Pd 1.6366796869873435 3.7374787009150596 7.859656410924089
Pd 7.32949365217471 8.558665476205293 10.123007754010908
Pd 3.7962392847109068 3.620720660055786 6.212395350543535
Pd 9.575494748716423 2.876487192272133 3.8610572756766177
Pd 4.881482104313222 2.224455657076627 4.17179307210789
Pd 5.588878555337217 6.253429725009597 6.532748418705355
Pd 6.268940941170609 4.227514113303883 5.039202201733884
Pd 1.4671778824882036 6.213207131620544 9.065012423191222
Pd 7.105994966790078 2.2690479558403633 2.6808233818036946
Pd 3.5455097629653105 7.901061599665017 8.929239894086402
Pd 7.651024575024713 7.719163482765765 7.56844292224339
Pd 5.618541992077486 9.32900203283623 8.135966950415169
Pd 2.2458997217238066 5.8142393724951065 6.318945397777734
Pd 5.27609274942994 4.2745991528234475 2.3384621898657914
Pd 3.605071201515895 5.198798409356158 4.147743003299295
Pd 10.204232382601507 5.433842367941836 3.9929382277386454
Pd 7.858719550742391 4.766457534473923 2.917275487555372
Pd 8.794864590398996 10.15928151872714 8.687783223599094
Pd 9.759246130309355 8.914996051027124 6.616369453783794
Pd 10.705608268539798 7.909922928148069 4.424772308926113
Pd 5.856069543035709 6.601166319453192 3.8248479679351073
Pd 8.127271115171146 6.695241692052621 5.162633151564374
Pd 2.96847755609172 10.258390592024785 7.927125452813594
Pd 3.848375438798214 8.142199741306005 6.283274650168728
Pd 1.35667832626367 8.167768482855498 7.175750633807324
Pd 6.2931208024947916 8.624826460101474 5.42561589646874
Pd 8.764720783877552 7.278287428464537 2.597889078201691
Pd 2.223089881542521 7.514708400529056 4.26600659027564
Pd 6.537888129677945 6.445399023629383 1.2157103183313756
Pd 3.9498013493718966 7.035793020348414 2.1646560792383296
Pd 4.702375350060323 10.822202036278698 6.007946768852234
Pd 7.435321246908041 10.709631352940445 6.512013546383159
Pd 8.530443575691441 9.408907967688727 4.264868299221495
Pd 2.1539703447487697 10.051264353260944 5.34728125703557
Pd 4.186706894442114 9.278064957567837 3.750919053217751
Pd 6.464229575188586 8.776568152741103 2.4625476928728185
Pd 6.395422804144157 10.974681014377168 3.9876342089250616
