52
Energy = -225.89533499 eV
Pd 1.5488450930524498 5.550227459690234 2.53129530230018
Pd 3.7476863711460684 6.122885050312008 4.662042499953494
Pd 7.227911057880524 9.090819856095296 3.444761649650721
Pd 7.005941674066794 2.046227937140124 4.138114293726268
Pd 0.6738533688179487 4.326871986032718 7.599664689185526
Pd 2.5572543394685434 3.0727591054938355 1.4299865971121943
Pd 5.255256717321952 4.0241182391203685 5.546014051286303
Pd 9.857493469056653 6.1048141388004895 6.199775225243739
Pd 5.188194939915008 3.857519224690203 0.25974713738233135
Pd 3.2761026064545455 7.847812268518027 8.912724557855068
Pd 8.980712812371785 3.8228711058800666 7.835404706595998
Pd 5.79660879090245 8.484252679224578 8.094312709732035
Pd 0.9529998099821254 5.1047752226365555 5.0615025875679756
Pd 3.6952722637640574 8.48883764748744 6.279833234053836
Pd 1.938302224092645 6.593636975093424 6.94341943345635
Pd 2.7769821968319093 5.354389065701289 0.04649673920673744
Pd 1.236528520785707 2.330988413854781 5.68727635687792
Pd 4.767173600769766 2.0655111972004176 8.020986259299036
Pd 7.231736326468615 2.278660494151075 9.372062871989773
Pd 6.249519544730225 4.307316322032852 7.962399679904478
Pd 3.080803499078748 3.7550780280107716 6.903481902613644
Pd 2.46082282965566 1.199899204249294 3.442399924123384
Pd 4.194120436035816 5.101366018173422 2.258951285352156
Pd 5.331591391311092 6.340304016301011 9.75787772367471
Pd 8.465287405476833 6.535317183172072 3.6764421717084392
Pd 3.0098217643731258 3.6671584786491476 4.150885527508243
Pd 4.366793488367482 1.5311460240796755 5.38746934128005
Pd 6.427966305323806 4.552249382581315 3.347826700061186
Pd 4.843876099318653 2.369442413104251 2.698954237545555
Pd 7.4967686707192325 5.3165336349489305 1.1077005181540802
Pd 7.787308942717093 4.673696437634586 5.634342125900563
Pd 7.619137774657119 4.8894547480922705 10.118097681498979
Pd 7.540808161809374 6.609446933634911 7.577462654691427
Pd 4.590684519808805 6.120657444546694 7.20618448545525
Pd 0.5168821923062512 3.151494484372762 3.2069796132120345
Pd 5.990629699327713 7.000556952858524 2.5627528778847477
Pd 7.66501454211228 7.57263838176249 10.01018070972964
Pd 5.044687460084325 3.6876627644928086 10.210610667177491
Pd 6.188061706842584 6.97524111157112 5.257999445158313
Pd 9.000473307530132 3.9541603569717836 3.180458750811001
Pd 5.29565624072271 9.159470168680247 1.3025193771039116
Pd 9.326428311782017 2.523769909278622 5.448153723301134
Pd 7.263247681357273 2.6512013772531646 1.512873212295667
Pd 3.176442903732973 7.541167672945098 1.827886198652382
Pd 4.403191491734439 8.805799440834404 3.8025370788754733
Pd 5.179304588537542 6.64175242538874 0.10061733715758571
Pd 1.7980279570034072 7.713890896262269 4.260308086357046
Pd 7.045515319388688 2.0347737723464667 6.698842640605329
Pd 8.412739824918619 8.329943160719399 5.716775680707447
Pd 2.9660010255209013 5.105585082350171 9.121650462632541
Pd 6.0389169403842855 9.704168091931178 5.754371492815152
Pd 9.724014631955754 6.125082455420313 8.94398862534958
