53
Energy = -231.36785493 eV
Pd 4.408131087995978 2.5359407507416973 0.2814581725277555
Pd 6.197430777023085 4.7099768172361385 0.5644668053343448
Pd 7.95813121575272 6.801676144509807 1.0356997614574255
Pd 5.240496842754481 7.353887727704818 1.0666012754762462
Pd 2.476640427676431 7.891340434284501 1.2939029715554315
Pd 6.664012920833419 2.1908178762056747 1.7277428413877587
Pd 2.158808040054151 2.98530249105604 1.9093375152976886
Pd 8.478996057532871 4.3308503980501385 2.1319710267164487
Pd 1.2077002959912586 5.622462751651172 2.405728005156705
Pd 4.553721077034761 3.8998117901872855 2.519844261960948
Pd 4.2120165841699695 1.135128413264246 2.5653256641577
Pd 6.962170001214219 8.528518482585945 2.9299249649902785
Pd 4.160698563539945 9.037463217792135 3.050862073582796
Pd 6.345575498635504 5.8315610319801685 2.9869691355984185
Pd 3.714409990953402 6.266333008858882 2.952329015177337
Pd 8.865486187350676 1.8962005055740632 3.306181238259719
Pd 8.94693592533039 6.686550256331011 3.574856464825562
Pd 0.06845687561425352 3.4321213639703947 3.6676481390380236
Pd 1.6960702467828856 7.991348957252398 3.867016755962068
Pd 6.746230162956574 3.4698691148440437 4.030272339193215
Pd 6.478240718241843 0.7953047737660541 4.141276450411033
Pd 2.5696497464774284 4.245067488188561 4.292933150966886
Pd 1.981969299612541 1.5425747235361105 4.2821787266332185
Pd 9.379922491043741 4.194871101505721 4.742083288932943
Pd 5.876259689332708 10.12173483724432 4.855057180849303
Pd 5.343365992190065 7.429889524537015 4.791648591160549
Pd 4.432018505468569 2.5261430110593075 4.83260801327782
Pd 4.008869713134785 10.12173483724432 4.940634361597134
Pd 0.4442927895191931 5.759754708153732 5.090408533891069
Pd 7.283366163595349 5.697820346669734 5.428208918139695
Pd 7.861222051411504 8.329925229316856 5.53565128725695
Pd 3.0468868271648644 6.458765172324505 5.554575717153596
Pd 3.435651697014845 9.146342092145838 5.729908835261199
Pd 8.176991187733186 2.0217948624367112 5.948425529565551
Pd 9.80932394493315 6.4927611008473045 6.171208787098731
Pd 0.9355787989108192 3.2510257404944185 6.234526738002617
Pd 1.0192148169185693 8.033385464664182 6.501261462396492
Pd 6.123293352682769 3.636669725364423 6.585978550349113
Pd 5.687933280259132 0.993661985373416 6.764760396277879
Pd 3.519664263536298 4.113500438138492 6.762339713765931
Pd 2.9499622272613317 1.4648908301866694 6.881459929054936
Pd 5.2403408661647175 6.092371486150033 7.059224666020778
Pd 5.720965460642703 8.738454135737605 7.223808456256128
Pd 8.623854450652283 4.338404208140275 7.411272964047921
Pd 1.4540805403694965 5.573917600159429 7.663368585172096
Pd 7.692766272770132 6.896020021850405 7.891863325176388
Pd 3.268156527345534 7.648635311864421 8.029127659006452
Pd 7.399321717543643 2.176522360829519 8.561691045356547
Pd 4.656381406588332 2.6375903533170306 8.7188603312494
Pd 1.906387853113068 3.1288080901187336 8.78446571081645
Pd 6.441868228939764 4.71291346009622 9.07313454536566
Pd 3.7308361438882 5.198566269896433 9.211046143550226
Pd 5.54156271503012 7.280701896935817 9.539182496971463
