5
Energy = -15.19200281 eV
Pd 5.899203889000222 8.1394324293687 6.3209823314689695
Pd 8.11823361003541 6.828079804447405 6.3209823314689695
Pd 3.679822272973349 6.837133127299957 6.3209823314689695
Pd 5.860983204679174 5.5434378328437495 6.3209823314689695
Pd 8.046668680656571 4.256828463385035 6.3209823314689695
