54
Energy = -214.90137629 eV
Pd 5.648005929121745 1.4733105167546443 7.93666249038213
Pd 7.579297612760941 10.959118605266807 10.27211125354805
Pd 2.457564851196727 7.549710187460612 4.160704919445925
Pd 2.9973918655303153 8.477642352520869 6.558198232469957
Pd 6.961922732006189 1.4224406833868484 4.454345980596236
Pd 0.8061075669823639 8.98146755460724 5.387226945707698
Pd 10.52275991249035 4.271636208315033 3.7878548811539976
Pd 7.006377634214568 11.810290200752945 5.84255891212365
Pd 9.569125205281905 10.957986007234416 5.248229317032087
Pd 3.643258633460837 10.28632513974346 8.317743701208023
Pd 11.02314185629512 6.6881997094720385 3.047126566678708
Pd 8.570287904906309 6.247667423436755 3.6597589831772264
Pd 5.754700193208871 8.59968777301643 7.391203793786239
Pd 7.855842115777385 7.240521247961275 10.898445993721014
Pd 3.936632255991983 5.688706747784406 13.29251580550672
Pd 3.216865069359507 6.445492546669137 10.996557317542935
Pd 9.548704927099152 8.60060837740461 6.88227018966995
Pd 5.382193432347141 6.06627463265795 6.893308971031112
Pd 8.773440411493816 11.172711131585148 7.865782972601823
Pd 8.325255179354235 11.451473481490014 12.661184561236139
Pd 4.35057344431631 7.309835155141516 2.4424705798958826
Pd 9.881683707445474 6.70181559140693 9.417356132740027
Pd 7.567917410563917 1.2070511052924353 9.603261766771496
Pd 3.963096363857043 4.6216369436144165 2.2392020325993705
Pd 5.779295214018762 9.025849031895147 9.941166710855601
Pd 7.8520456184530545 6.883009262672845 8.036414962281775
Pd 11.194755021368232 4.867251593417802 8.435704566564276
Pd 5.249666194222764 3.3274417045818194 4.177819676166409
Pd 5.024667107773 8.049962094387885 4.906181873140747
Pd 5.757068899494283 6.213492438560432 9.768252806541284
Pd 9.547534998356337 8.568244823038356 4.22189661898751
Pd 9.064372316958734 9.091552859276579 9.454706141356784
Pd 6.144976450932864 5.581796056104559 3.2841548337361917
Pd 12.732500488616452 5.557683379068299 4.652067950250009
Pd 3.6468567373621465 7.747311900139423 8.858730176555923
Pd 4.408821712976268 3.5049138940948303 6.6836390127437655
Pd 1.4875484782650776 6.256090123612986 9.082680211163721
Pd 7.355302713224805 9.232120046301326 5.518887503670288
Pd 11.398050108725561 5.176770231444345 10.901047015913381
Pd 3.682615367332545 4.9800575388656885 8.668056081046046
Pd 9.063956552557832 13.267409694270691 6.354698774098852
Pd 10.06495058124027 6.121624166315774 5.873081288845575
Pd 11.176692139881116 14.518384892664518 6.625742494456368
Pd 6.988828505796323 3.049358598137206 6.410499943025619
Pd 13.056084042184262 3.2630739550443075 8.171568858225802
Pd 11.551316837260234 3.9056633982006383 6.156613077073323
Pd 6.87587424970835 8.136425578856295 3.0745669443254586
Pd 7.109913260657309 9.297834704708979 12.246117854338326
Pd 6.092516012075703 11.114596054164467 8.140988309136775
Pd 3.8678293231284067 5.469225058830726 4.740030001748496
Pd 9.12821385070729 7.8368567273515914 1.6657561467184578
Pd 6.2101416463990935 4.000164161033362 8.581173757302134
Pd 8.038536724947205 3.870386266845975 4.2384111540104215
Pd 5.333940663035328 7.461420640250891 12.133219245253795
