54
Energy = -235.29709751 eV
Pd 8.757876854300692 4.025264331272254 7.831962579671872
Pd 9.45730069838603 6.221277961359692 6.552757792421272
Pd 6.9177119302915475 3.7629635712146925 11.068044597486766
Pd 10.516423469977347 6.119247252058994 4.052492891258392
Pd 8.702648652057078 5.432788260693308 10.009840824432807
Pd 9.179483684162978 3.965330424083303 5.23535827507513
Pd 10.00315639627417 8.5074128414425 5.468073524038741
Pd 8.58244682517347 9.55588874169623 7.523324315046243
Pd 7.057181886281097 2.214320850348471 8.888066549889047
Pd 8.640842785193696 1.634595235636243 3.9019352752158407
Pd 7.786101355858064 1.9772139467368408 6.378365619085881
Pd 9.161400612582318 3.8793428072993037 2.5890428486289343
Pd 6.37787941520207 6.4715995731520595 10.815071500525862
Pd 7.963950465741985 6.136063379406009 3.80905128528823
Pd 6.5616186538120465 9.039246886901728 9.827322517827119
Pd 4.419836849609693 4.612358549359694 10.48990751934418
Pd 8.954189550158537 8.436697838813002 3.0098753908078133
Pd 6.761032470630913 5.45548588132971 6.192207620882045
Pd 5.960527261618734 9.534995545201463 7.27455760083007
Pd 6.333385329345395 4.743481161345214 8.649717062133233
Pd 9.37619033533415 6.27835566356883 1.48213994691608
Pd 8.088607589764202 10.355831894371974 4.880590585990806
Pd 7.756029033582778 7.165190127217055 8.282542045741467
Pd 7.3857224343606855 7.974315444965308 5.613547247246426
Pd 6.691534862424837 3.7862541712405067 4.158172321978981
Pd 6.00931099694532 1.2433626733165264 4.4273641434899815
Pd 6.790387333610451 2.2904488847675273 2.0223233536470873
Pd 4.570781063346757 3.985633062214797 2.46410699518148
Pd 6.97577141413457 4.881594831302696 1.509798705292601
Pd 4.195333827688794 7.9900259772832944 10.957880259954297
Pd 4.433780084522759 2.499899614289329 8.900376980953947
Pd 5.037053402272242 7.199422447453995 8.559866862248082
Pd 5.403226887489221 2.957968075166111 6.505021124971482
Pd 4.8367365835357194 7.427467902527702 5.920360326852175
Pd 3.91286891403907 9.68285249746983 8.933717681764346
Pd 3.926853927736925 5.093183443962361 7.62183439728999
Pd 2.1217653701151216 3.6784410025899716 9.316714136507752
Pd 6.987895351245841 7.486438305073458 1.1914946111876592
Pd 5.475897994350925 6.522690206304596 3.3316015794735896
Pd 4.268241748826808 4.956723693345447 5.0417607087548895
Pd 5.394968580887439 10.610174988254014 5.016770368122893
Pd 2.4993954575499577 6.26082120955601 9.881338408865322
Pd 6.365230423641982 9.030560383096901 3.227923874848505
Pd 2.6815269829759467 2.942805653427731 6.7667931708358635
Pd 3.668426887723667 2.43847601687153 4.349918810438967
Pd 2.5041185126078958 7.742144921345274 7.830407149271627
Pd 4.709082899047228 5.903305243202194 0.6328199581458088
Pd 3.270192113892719 9.63674062874308 6.285256037777579
Pd 2.256608267927691 7.007534535467093 5.2775428715961
Pd 3.7349734776867787 8.748102799041568 3.866455439056217
Pd 1.3753457475209538 5.3916405288718465 7.278120587712016
Pd 4.439817724558662 8.368464840834768 1.4142855776794154
Pd 2.9043509239053105 6.1958453551087045 2.7682100084247274
Pd 1.7533381587277066 4.434938602082351 4.6615055233364036
