52
Energy = -226.56533792 eV
Pd 4.81404440527097 6.837244168939109 0.8932274861778904
Pd 2.2227317431715554 2.8216722848675637 0.7577342546257146
Pd 4.615071072300034 4.103274341937402 0.39422877472810475
Pd 7.020087677613606 5.3769639896487496 0.14815573912888852
Pd 6.954678508949775 2.890078219977659 1.3933027285472364
Pd 2.3687535139895752 5.566238993017197 1.1805160176632052
Pd 5.036070495641983 8.860623545822774 2.820177087097235
Pd 4.495466654060239 1.6257211319566764 1.7083800459525855
Pd 3.526501363941405 3.8364386235465435 2.8969251135436753
Pd 7.277790720561958 7.3717454995296166 2.075374260421656
Pd 0.8816672758519071 3.9518390197934985 2.916113799117758
Pd 6.766114723471622 0.4236766558247794 2.6927074624840044
Pd 8.602113861223948 4.947708089457921 2.382502578078796
Pd 2.6285868683200366 8.305756890217882 1.6650031642381353
Pd 5.943440631990292 5.035404275814265 2.600124081979609
Pd 3.7222983692026532 6.528786668888905 3.3718087495171805
Pd 8.491746100382455 2.3965956786247795 3.6410412329165625
Pd 1.072127029720969 6.7551395502093 3.3469884421098475
Pd 2.714919560618713 8.781502219663182 4.3972259505428415
Pd 4.492259785538253 0.2586138022917094 4.1640604190285035
Pd 2.1535442730856342 1.4826371778394396 3.2176820696617208
Pd 5.840554353143782 2.6053298660983137 3.9205014331786483
Pd 8.793364693375334 6.952605435602414 4.390588256523761
Pd 6.142155678119329 7.010051271401554 4.501835810862978
Pd 2.0864860666885843 4.990998066395205 5.048342510173771
Pd 7.42943549287263 9.343651899916852 4.0354357218826555
Pd 4.84357724016764 4.765214954847222 4.98581032244282
Pd 7.591935735156047 4.608707892011905 4.810143326586629
Pd 0.8522951272742697 2.66828318522309 5.4459407283311965
Pd 3.496194621618982 2.567408790923246 5.306697687819806
Pd 7.030674684423938 0.7983718387434343 5.426217802803407
Pd 2.2350424322445726 0.27630815511031653 5.727328562020166
Pd 5.182709472233555 9.276218505472494 5.587190608385079
Pd 3.8289821866331177 6.901404068721165 6.098808063027838
Pd 1.189201772731904 7.25098571114069 6.140898952805125
Pd 8.595411400071546 2.8463513993604637 6.478769461057591
Pd 5.934259090699948 3.0788807893276173 6.689520547242003
Pd 4.662074416900893 0.7322928486294115 6.911601409870084
Pd 7.530958902870925 8.142941569555596 6.566697339408441
Pd 8.84661935300492 5.6835044731089495 6.912183383563817
Pd 6.19553601719772 5.810421284791982 6.944153886977794
Pd 2.9197928120218486 9.176456302999648 7.137666476107184
Pd 1.1016438383499405 4.699731940777437 7.472917272828584
Pd 3.7559553289094474 4.408433533843629 7.355719770432216
Pd 2.3694856942591196 2.1971341590321996 7.753419472547243
Pd 7.099041148151976 1.2424407599015506 8.101368431542832
Pd 5.200894848852055 8.08206889403444 8.126572186854661
Pd 2.6880079377300934 6.750874883491599 8.487508471492616
Pd 7.375029804960294 4.077714450144288 8.66313676496231
Pd 7.472191087713666 6.837979235936473 9.036612011761356
Pd 5.063182155668739 5.5650316028837326 9.376372724229777
Pd 2.631097000820838 4.278346432478065 9.68056617449191
