51
Energy = -221.32482332 eV
Pd 3.9330669401250233 5.839427485806414 0.4054257621039698
Pd 6.600401547989266 5.834297759693239 0.8818419842629176
Pd 5.599066966374301 3.3504373891778605 1.323093247140567
Pd 2.598511661960172 7.318571192858626 2.330316274271461
Pd 9.625931976300567 6.006010286052834 3.1891222329939044
Pd 8.09057147644602 3.9947473016583976 2.0611172025155455
Pd 5.208205269218922 7.9046125172588235 1.7772057512401873
Pd 7.265059999650577 1.4299989327122673 2.892691145931146
Pd 2.16872758038027 4.541411625295242 2.084583242562258
Pd 7.932505350139949 7.853814535876888 2.088810916542102
Pd 2.5967326339616243 5.736669921519096 4.5168760933541
Pd 4.63913167583402 5.258307833103545 2.8272732300615404
Pd 4.5050383009756825 1.3031266739236216 2.5191695665031837
Pd 3.7771684865394946 9.727870425653707 3.297927082638056
Pd 7.053878386238494 5.986858095620939 3.688243525399097
Pd 6.224891441641448 3.416319564405894 4.062604351661155
Pd 2.109446535230119 8.406628491664282 5.02370038256822
Pd 1.6082113614546811 1.993334461233559 2.826215312959659
Pd 8.880925189757253 8.31360565003667 4.594933424658801
Pd 4.577064850493173 7.4779225796536535 4.3416514899547085
Pd 0.6196390837552245 4.096859609721013 4.286295758241023
Pd 3.55166058740202 3.039838483848158 4.23672957598953
Pd 0.3071419539502586 6.716122226527212 3.763283844512071
Pd 5.470027232062584 0.8084273049732835 4.976706413921385
Pd 6.42997573338204 9.235691078494384 3.8488194616144558
Pd 9.040372201454936 3.651721461613979 4.4737332652773265
Pd 5.2143326605659945 2.982636162566116 6.543905077335263
Pd 1.1429271305262876 1.8199829597395312 5.582340397750007
Pd 7.7276430470642925 1.879027469876491 5.988654004442755
Pd 2.9188336176908622 0.24153970849371287 4.378758987821573
Pd 7.1761822727145015 9.847213779957112 6.3530169282032105
Pd 6.77002032274762 7.280386823760252 5.947183808498788
Pd 9.394226922525634 6.005775597536891 5.869296562454481
Pd 2.634181324672851 3.9357639898575947 6.509186370814229
Pd 0.0013408266383005435 3.9279847577887175 6.905843022716413
Pd 3.401667581883015 1.146450779178528 6.836807045570635
Pd 4.5308244211469155 9.430537048959424 6.051276306480767
Pd 4.8840688021000505 5.280994036397058 5.545652574202863
Pd 0.9867670089838569 6.3493775560187045 6.485061042453926
Pd 7.2413966856908845 4.623201630130849 6.239943020979581
Pd 9.433146005549402 3.6551415089923425 7.253507776230914
Pd 8.865085208984539 8.124124497345717 7.418191608408707
Pd 5.923255698634805 0.7780146585783491 7.748610621627909
Pd 1.5948852998119825 2.3990763884858524 8.390538400524573
Pd 5.8447621654301996 7.989045743374848 8.184583451220938
Pd 7.874521881576107 5.874555331895672 8.409111001409407
Pd 2.5385691894897544 5.171417413320057 8.711720221734447
Pd 4.204608472733403 2.871991114381406 8.935923485703855
Pd 3.531095497649404 7.088315056202057 7.061170921848173
Pd 5.216354444178949 5.33551646784482 8.25208043215938
Pd 7.01677799176671 3.2001255344087283 8.560095294002318
