54
Energy = -235.1692846 eV
Pd 7.1978096701361585 4.918362777665803 10.881285151726678
Pd 4.722880189260623 5.711495717405638 11.097731917846334
Pd 10.219246339996127 1.8197520146785706 9.316670036094648
Pd 7.74558997230246 2.504986211002748 9.756266039775655
Pd 9.751682581859864 4.2196795457615615 10.495888614246024
Pd 5.195051218407846 3.2388640455816424 9.931734124915216
Pd 9.004158194264296 6.686003354614314 9.981104802931984
Pd 6.335465497560276 7.077123314695794 9.518629712364634
Pd 10.59755348581703 8.614644460380768 9.187625553512753
Pd 8.85065777956253 2.4301863171866764 7.0750068001557205
Pd 2.8318126028108095 4.562922529489669 9.709154487328412
Pd 8.090688388444525 4.744373337851922 8.298618369027109
Pd 10.795202154697437 4.077757693991241 8.118873368284786
Pd 6.238799754485444 2.4157596728334205 7.58516015056973
Pd 10.180579441613949 6.549880056839068 7.5908944845236626
Pd 3.6791205136125913 2.9751637014621224 7.700608265192699
Pd 7.9938931441533265 9.055207397792186 9.068635890020905
Pd 5.282253152461476 5.140679965642838 8.100841301268742
Pd 5.33752240356129 9.445422797730098 8.830316590865419
Pd 7.1353097533283245 1.6538960832608312 5.186337727874602
Pd 6.912257109115559 4.392076076092518 5.923444033963016
Pd 4.756022832837864 2.7725659496330635 5.182265920865793
Pd 7.456442963366914 6.960134203363373 6.913787068619727
Pd 9.635168266116672 4.680835035984392 5.80816291322851
Pd 9.502345066336014 8.960292980816709 6.83368907038887
Pd 2.605197301318226 5.454742323545054 7.300125985770922
Pd 3.4802805386036635 7.247546471160824 9.250381562859456
Pd 2.2172800668347183 3.4547882955444305 5.585063046324916
Pd 2.7406185724874343 9.728424463499293 8.37725050318071
Pd 8.394208835671972 3.431551376681869 3.775296859853988
Pd 10.293961889242722 7.22597947214516 4.996957632176447
Pd 4.7762143548641305 7.58081009024259 6.980133566066913
Pd 4.557720060523155 5.444222773431278 5.424249575776929
Pd 10.352579914929336 5.216767882365513 3.2250767526450805
Pd 7.9060168249011875 6.184788888511529 4.276876271552851
Pd 2.0512523806800824 7.884197502522629 6.692278027629058
Pd 6.904531063149185 9.582745883604995 6.664575204591835
Pd 5.973100622480577 4.577412275781403 3.266646813026341
Pd 8.319597426913463 8.982765634388121 4.507021910624439
Pd 2.113715947234119 6.049654383350328 4.698073358777744
Pd 4.3830204477845545 10.219892982674592 6.347678900787821
Pd 5.796536227862549 7.77672504859447 4.590059969386534
Pd 3.304831130224304 4.019707621836458 3.2481555566500977
Pd 8.16508930991901 5.07322098678526 1.6949956306202687
Pd 1.8107453732117702 10.374826377621414 5.756352369433566
Pd 9.179230310502822 7.547880586311863 2.3899501279606716
Pd 3.1975822844387114 8.490434247403648 4.460283818936986
Pd 4.04009150073399 6.506370906379815 2.829026836363028
Pd 6.480953564669577 7.042864291356971 2.0248300728088213
Pd 6.121336160709655 10.452829938148152 4.321206837372335
Pd 3.5638282482090484 11.03252939059304 3.832660154601651
Pd 4.6675083572528315 8.984653393834753 2.2864805254729195
Pd 7.36457262602183 9.532575658296528 2.09266948131372
Pd 5.453584595251172 11.459409823006546 1.9910762940397502
