50
Energy = -216.18796831 eV
Pd 9.106382639767876 4.428880189448527 10.264808849394093
Pd 9.554941676588067 2.644123230965063 8.214856321342937
Pd 6.779921042089743 4.003698262444121 11.612945168596934
Pd 7.958519003606055 6.391217336193731 11.740541950158148
Pd 7.1003688566616185 3.064871465247798 9.104861929245654
Pd 9.339767540905964 7.019126258507358 9.568518480653621
Pd 8.996144416922217 3.4919888108788095 5.675315261153795
Pd 5.424397791056437 2.293113203001186 5.111357509125486
Pd 6.8619512566254715 5.6780314378958865 9.19409210278173
Pd 8.925688856657839 9.476729219922419 8.626632366274654
Pd 4.057685064147286 4.988913464021974 7.642609620271902
Pd 10.075214618670403 5.1599445086421305 0.9190820217740668
Pd 5.2737099323794 6.2975922467196295 11.320779912525838
Pd 9.170110595398342 5.194880304048627 7.657225527969944
Pd 4.7635005295104325 4.003938404658562 9.92165650561353
Pd 9.361976624286207 6.143295740601432 5.160119652238028
Pd 6.987934163491937 8.251919742230132 10.058383185258592
Pd 10.232738533411487 7.6493870926929075 7.212378826553633
Pd 10.5573635593721 6.836977870488675 2.83055110842209
Pd 10.78669793631658 8.506643225054246 4.827861537904984
Pd 3.872713063909802 9.540800461022823 7.5688965939254516
Pd 2.8719408197314373 5.854197465429511 9.968582738109234
Pd 4.941222058853698 2.4698967290790366 7.6981305410722936
Pd 7.397637787042638 1.8148203972453296 6.78286936420489
Pd 6.441932382600265 9.647536350769194 7.82505887856112
Pd 5.032322442080957 11.912775913793288 7.736316298595141
Pd 1.4557310456143406 4.842979835668817 7.7454878888836
Pd 4.2080905416470005 11.020365450966365 5.391361586858896
Pd 7.476153417801097 7.2848274015567895 7.13834736082204
Pd 8.567953167910678 9.525350870200976 5.989626705029888
Pd 2.9254136742650125 3.2460838992920586 6.04481811091278
Pd 6.574523367606463 4.577320198769191 6.623946636749508
Pd 4.774581735734514 7.436566650963507 8.973880497442432
Pd 6.894087280389572 10.53588151586224 3.250763825575183
Pd 5.952787461708178 8.991528942003534 5.112210375323727
Pd 4.83766748124198 7.083209538349623 6.375564489626729
Pd 2.3850186671509834 7.3678294462543885 7.738729671012362
Pd 6.7979525384418835 11.495819925944348 5.778258274584296
Pd 9.823758564062077 4.22504174314617 3.3250054417690995
Pd 8.505412604464405 8.461507724846287 3.582133474252118
Pd 2.3931881314445134 5.937223473100715 5.461879617668882
Pd 6.766468741344922 6.490716541176013 4.598197260450138
Pd 2.7650620599357407 8.681180918924044 5.31511453208554
Pd 4.652810170450215 4.726752903135382 4.679375781578693
Pd 7.160382612172052 3.9016257623867325 3.8491192163724706
Pd 4.25932332345967 9.717616973625585 3.1217313447917734
Pd 4.111827502125786 7.1206877775624715 3.7174436497856194
Pd 8.061619168917101 6.011535352205161 2.3101852267656424
Pd 6.242067635964274 8.044357732734715 2.3090512413371616
Pd 5.528190697803017 5.409593974573249 2.2560497893913416
