51
Energy = -222.05851389 eV
Pd 10.592233668760128 8.683652378619689 5.378034390109627
Pd 9.081943570729845 10.737477940371075 6.808931850051635
Pd 9.472098433503186 7.55211484301469 3.247030322660719
Pd 8.445557759517346 9.86585968153119 4.217095485328741
Pd 6.611382966279812 9.940205533886072 6.041977344458785
Pd 9.4410717503213 9.211777428071422 9.212848792785369
Pd 4.43323478435575 10.91648625406035 4.9532404829057395
Pd 7.872001263793309 9.014246617968105 1.7369706529928262
Pd 6.964911873074624 10.196177715247373 8.670856797829712
Pd 11.45392714662603 9.772517442299456 7.608367812999788
Pd 5.812199753922977 9.18454908864962 3.3740575953201732
Pd 9.7963668642194 6.090643848286367 5.495050497272454
Pd 4.4554224784580265 10.170141615779439 7.58399763384835
Pd 8.533640144820497 8.221273158499589 6.939408590509521
Pd 8.473590492879051 5.125845238216906 3.3971408253976945
Pd 7.326010838741481 8.473331301421421 10.683921413220634
Pd 3.0797849937473787 9.150960089489711 3.4810950814500896
Pd 4.690730189880493 8.674678945784276 9.886378236395013
Pd 7.290368278559885 7.400583558315549 4.781814326269379
Pd 4.715852149127035 8.068176617607545 5.601957633385028
Pd 2.3302220753544067 9.691932687573303 6.0148894106865995
Pd 8.626620490972778 6.625951695146206 9.249778899385127
Pd 6.638280939745295 6.7424618337860185 2.2479497590032187
Pd 6.107282943019989 7.815276024593401 7.905624055423458
Pd 10.850142901223258 7.187498898898397 7.786077377722344
Pd 7.453268567464642 5.7496707925473425 6.934597069525861
Pd 6.073758026816732 6.223953171697324 9.984104210863977
Pd 3.0658596115434618 7.900044391935318 7.7724845792876565
Pd 2.2669101327217445 7.1536300361604575 5.140672307577831
Pd 9.891171118584538 4.687345877498561 7.832725365017666
Pd 4.259459920325867 6.768643866064226 3.303939252828407
Pd 4.741230890618606 5.683784783487333 7.1523039338783665
Pd 7.0763841877427165 4.322132163529814 1.2819670776219276
Pd 3.439450301996088 6.184051944873804 9.647819734282947
Pd 8.645742053869297 3.665267305860168 5.605481483147178
Pd 6.0925399721343565 5.046199518811144 4.763327109859183
Pd 7.537975498930848 4.180508624312039 9.168247981357863
Pd 4.821462773015056 4.244793961490213 2.6352520548837046
Pd 2.0860257091859995 5.4818364886123305 7.164545258347376
Pd 3.366148773866631 4.7579146337970695 4.862294321821997
Pd 4.8858206533607005 3.957976685436068 9.365693160050022
Pd 7.162253459821522 2.8151236898630065 3.437433394985896
Pd 6.208819378284312 3.3483796707094156 6.904549862098978
Pd 8.68801104358392 2.198490640806428 7.8084897010794965
Pd 3.4586805326932244 3.133351815503762 6.990990862014603
Pd 2.2325651966766507 3.823791396079701 9.248826693567013
Pd 4.822684977272147 2.5141505878677304 4.744827843749873
Pd 7.333091868256784 1.296224931060221 5.601714371715342
Pd 6.378145158305642 1.7253694857497084 9.00851690467835
Pd 3.7197533201182846 1.5476664369061188 9.117548425704886
Pd 5.024528521499013 0.8813004678686215 6.859699422013909
