53
Energy = -230.72503747 eV
Pd 9.55287711474219 6.085103635506071 3.668296035928404
Pd 9.606598245046392 4.136418186571162 5.4593341859034155
Pd 10.524112353432821 4.562477394464702 8.00948789009821
Pd 11.155803327361248 6.266082127112477 5.775619885069823
Pd 9.442070514915876 6.9123494685620654 7.558950580904263
Pd 9.0482906012737 3.082778355989497 9.719515172453882
Pd 7.633163714378922 4.198094733752634 3.6805534350927642
Pd 9.562879996874214 2.1364115581950527 7.268937359071228
Pd 9.985687186227896 9.54455987631139 7.59021423866241
Pd 8.4188633118557 8.262755124824551 2.7027320438672007
Pd 7.920936363064745 5.868373531191414 1.5712112681367805
Pd 7.664702386652227 6.407632446341864 5.551432435058299
Pd 8.442980362142723 10.826723239163604 5.706200629371572
Pd 7.494287755754365 2.3720091522878346 5.611421204710888
Pd 8.798734831442921 5.718676439418946 9.86458358424343
Pd 7.79575578827171 4.341344309650278 7.379120884414829
Pd 9.511974565672533 8.450168024509338 5.126812422194289
Pd 7.487721203906319 8.718641257663233 6.984834051829292
Pd 8.41146066210518 8.35554195529516 9.63097717524284
Pd 5.696304275830067 4.316176389063264 1.8860180031837832
Pd 7.027132590779976 1.953458630099275 8.319915280060238
Pd 5.861646934322545 5.8792193057809214 10.749157433505722
Pd 5.503503057117848 4.829054635983548 5.352020291394676
Pd 6.327500477958124 8.096372826826059 1.1336788069037556
Pd 6.079408446067755 6.634678629465678 3.4500864758420877
Pd 7.856653737619647 10.832978734030487 8.604389392425258
Pd 5.4687273667687 2.5906002992761197 3.901829267222002
Pd 6.617916212721205 4.202795080465327 9.848464630290138
Pd 6.993969374777754 12.656386568693156 6.9473551077327516
Pd 4.5955515622933065 8.974612490471959 2.915326870885214
Pd 6.718943035300289 9.116006268975363 4.436588411740077
Pd 5.281583981627516 11.619220841098288 8.775978979447437
Pd 6.318742061302357 6.826354030573791 10.749157433505722
Pd 5.046664608133515 2.427224685954654 6.648760857843183
Pd 4.079591532794405 6.544006379732644 1.7028070792192747
Pd 5.897121429579324 9.076449464154974 9.164767889884727
Pd 6.702670591932657 6.539591035134132 8.196546200756814
Pd 5.599850871754085 10.500904866278175 6.377024850372552
Pd 5.146386421769573 7.525220288534493 6.298087545254669
Pd 4.689911950778046 4.853774245595581 7.84227959098413
Pd 4.629343655966913 2.5111319342304776 9.361646706557194
Pd 3.522696460827962 4.514764539671583 3.3772312283605856
Pd 3.420147484146854 6.999580691881683 4.265461897478755
Pd 2.980244715433286 2.513547692564599 5.025544384868258
Pd 3.589869378823046 9.647457067702337 7.925625199176773
Pd 4.222593652309229 5.0974680518408 10.488402607516232
Pd 3.497247469752503 9.480162524640368 5.24179799203452
Pd 2.582452727958955 2.9606438342135553 7.6060414808004095
Pd 4.062267414875545 7.26658559214669 9.025890763530873
Pd 2.7443003482803117 5.022659692051498 5.894844361139388
Pd 2.487256892678227 7.475759451377914 6.807508292029537
Pd 2.1176973823032044 5.508712226167902 8.541293572754519
Pd 2.235831911488877 3.3899166303682375 10.158383745514827
