51
Energy = -221.47774696 eV
Pd 3.23240743866118 4.964731303060461 1.8549102332813745
Pd 4.674393199312407 6.9280635154899795 0.7652980911335387
Pd 5.924982151310109 4.676861993244895 1.6875598128021414
Pd 2.618325216277735 7.5833116326314896 2.481717507223465
Pd 2.570195731062017 5.459655018842853 4.389086562370819
Pd 4.58787011765966 3.802991985709571 3.8416867210901815
Pd 5.138756453085356 8.978474371874928 2.381406052112808
Pd 4.819889159854975 6.558583294162699 3.5415976835950094
Pd 1.324199691453196 7.696777165004712 4.902271573065161
Pd 7.061852648738785 7.141241552953802 2.064866227132079
Pd 3.4640408719171036 9.233404243449316 4.4487114945279265
Pd 7.162046815244195 2.8485252273308848 3.4367831119342576
Pd 5.799376733855066 2.72236902969802 5.821273038454718
Pd 8.425874880082585 1.833665804277899 5.738143848496811
Pd 5.318265223442331 5.380043817262038 6.000051398183124
Pd 8.573807035329454 4.903394091772335 1.9502257609884917
Pd 2.0733347145848153 9.606069101531238 6.664134636322648
Pd 2.901068295927753 4.766421298274321 6.856867031111719
Pd 6.0160848624310495 8.194425112539788 5.243081135113101
Pd 5.45899569471417 10.851872603003052 4.213051089750189
Pd 7.130795219856784 5.359338675695256 4.184204466769122
Pd 7.667230713322944 9.270063841041173 3.590543256693843
Pd 1.410120307844232 7.00933719619785 7.60816814721928
Pd 9.145124756464725 6.971889089788511 3.7584264375175955
Pd 3.634546359927675 7.361273543079117 6.284396683904777
Pd 9.52786930431234 4.119771789369501 4.248837813727266
Pd 4.875540838732594 9.958223603597453 6.863039435751232
Pd 7.7272853813988025 6.740934788965487 6.465609925194378
Pd 3.2973378117699546 8.654905323039783 8.758877855911445
Pd 7.428490644870566 10.704418254591285 5.8796220105587205
Pd 9.300873314601866 8.725329010031032 5.789228049136378
Pd 3.4557433774507245 5.940663662291624 9.094693477138945
Pd 7.937434881063646 4.210910428413754 6.485205351071651
Pd 5.356561537822076 3.943667741687848 8.202853586466606
Pd 5.604800214455023 7.158457458450216 8.128405489425843
Pd 10.244035903084507 6.056033660563226 6.039096425201191
Pd 6.668992354370176 1.5964188835651558 8.000330541936373
Pd 5.605381352355018 9.71756785926092 9.500617007571343
Pd 10.685796042295767 3.347404478172745 6.426358160756505
Pd 7.4485244292519495 9.076558671965795 7.84174791028027
Pd 9.589302016971898 7.606756505621338 8.260109396825998
Pd 4.597411676619624 7.697330761048344 10.848966596705477
Pd 5.601208582637039 5.37191063140336 10.422231975238038
Pd 7.849452345013072 5.363917848488093 8.897246455453544
Pd 9.012932173875173 2.6744580028446197 8.361985311369335
Pd 7.3622707220711705 7.675843329738144 10.22317272229782
Pd 7.069442330172542 3.15236506483156 10.20865554287689
Pd 10.43005830658891 5.032095253661781 8.461563364913397
Pd 9.840530909166306 6.4958310732750215 10.622536260271788
Pd 7.78346680924167 5.344580156561027 11.790015080034923
Pd 9.641457506932339 3.8004249805493364 10.687959846248306
