54
Energy = -217.95416039 eV
Pd 6.538802283307941 2.403146563973209 10.030430149417532
Pd 7.426288716364054 12.768501969330579 6.674892924547113
Pd 9.783727578910428 13.940061374597734 7.967154027442791
Pd 10.26752717092535 9.709356564188166 7.463142031172197
Pd 7.4157234083616865 3.9361267530583897 7.905453033107459
Pd 9.284442777748433 7.276033482040607 3.757423135896803
Pd 13.204623256569604 8.450317325050237 4.3444303935872925
Pd 7.479819976463374 6.171992017199814 2.2922575032252395
Pd 8.287548802550477 1.5980692191422756 8.372350261247636
Pd 3.480790111777287 10.53883242903494 8.778254406468267
Pd 2.1487717563365463 3.30430858625529 4.663569239815493
Pd 11.397090656541078 7.9605664844279165 2.6792171922084353
Pd 6.989364659424092 2.6843326738928153 5.6270168217287475
Pd 10.572648098624876 9.309110381286834 4.804861489245405
Pd 5.254531903520048 6.799589520439813 10.842705073505915
Pd 3.999843423788755 2.6803608355456046 9.39529879071509
Pd 5.09520647204741 4.225372264904225 11.325594164706223
Pd 4.62623085901355 8.665819057900043 1.5257773168574253
Pd 11.929393954421089 6.711584680956596 9.96411111524457
Pd 6.038269109071693 8.703569798569488 6.496763802580005
Pd 2.559292938575768 7.5111222232686545 2.540920797232167
Pd 9.666646358145181 7.15151397548883 8.620408115010521
Pd 4.672033865172122 1.7022443862611438 11.759914822808842
Pd 1.7433146415165557 9.136238231438588 7.359486764588785
Pd 5.016448332605897 5.220824614941213 8.691747789683383
Pd 3.8303368217811613 10.2143920930997 6.174254859472529
Pd 6.853496173271614 7.337622009710573 4.492541195371031
Pd 5.474720111304206 13.940061374597734 5.404009088219848
Pd 8.741266856370299 7.829068190041284 6.25395727159256
Pd 9.597282191434852 5.979523623481567 10.963480992897567
Pd 4.474167334920292 4.287584465229125 4.549996445114776
Pd 4.19559742849679 6.967382936380526 5.86520060346194
Pd 5.394565439656265 8.641134488638862 9.046366200857426
Pd 8.980351312419625 3.345472604567176 10.255731152203104
Pd 7.281442664691035 5.219834964101796 10.280899239394858
Pd 7.685527788416874 7.924658758216166 10.543904027481515
Pd 4.894352906439419 9.153064515523448 4.016964816902587
Pd 2.2417102008333027 5.836975730755003 4.511374963325978
Pd 5.869919180030996 11.359974502816813 5.003548913606747
Pd 2.238909430344378 8.443286112590357 4.901778219617132
Pd 7.143222384817347 6.692675574874767 8.032370473313355
Pd 6.266612427317365 5.318036070822664 6.005495145501178
Pd 2.8106020238928724 10.086848657706323 0.5464978545166508
Pd 12.0073273212489 7.78575934609276 7.658143918101896
Pd 8.174305061362956 10.396335447716488 5.931167621331049
Pd 10.788276836814692 4.591268375302097 8.872171686336804
Pd 5.970116190816511 10.999215481888413 7.908785480855502
Pd 10.788039063634894 1.8734197684552159 9.057844540829855
Pd 4.825652192094217 3.2082740111414156 6.968101278364886
Pd 7.94230484861109 9.439306072432577 8.447472990112413
Pd 4.870317121647233 6.387756749927034 3.1109484932479856
Pd 7.705410012396343 0.32151528533115636 6.331561290495225
Pd 12.667347810869051 9.890148002659876 6.36702056054144
Pd 4.12548299417611 12.647901234986753 7.184494284327541
