54
Energy = -235.45033348 eV
Pd 11.462129124098466 9.495873052384091 5.3198334155973726
Pd 11.269660761281493 7.290093008816193 6.932393939632212
Pd 10.29651832582429 9.690403459966122 7.766868400289193
Pd 10.737544107653575 7.722138913255791 9.569269195426653
Pd 10.074781074500937 5.293673372855002 8.635221923359989
Pd 9.792379695373898 11.553918288214511 5.871758231141214
Pd 10.372313596915987 7.328429479309737 4.297228845943686
Pd 9.580097945925605 5.41722553825355 6.011349400831594
Pd 9.096193956112064 3.135419029417143 7.380355166654797
Pd 8.873360915140102 10.362402887327717 3.3903374610968164
Pd 8.840762597828247 9.015748454036714 5.537934400741376
Pd 8.088150896725931 2.8271870912409507 3.006478954431417
Pd 8.659840508426914 7.451318668099399 7.666997589275686
Pd 7.855176414664023 3.910080628000429 9.83826678350013
Pd 8.046134084623544 11.191953617240973 7.925093854979102
Pd 8.506966246698958 9.219231322537551 9.672452145108842
Pd 8.418846802926764 6.536721452672356 10.325964453394896
Pd 7.341237201768152 1.4344921900763234 5.350687635323319
Pd 8.043889122066435 7.625661559140354 2.916515412245445
Pd 9.184421535040745 5.205391298498 3.413121814676518
Pd 7.236175709027289 5.182225585506835 7.674565849490586
Pd 7.188355100672095 11.45598264248348 5.420409011856668
Pd 7.2969883565759766 6.792648999513208 5.3459538149229
Pd 6.673417886303262 2.3234136632399505 7.815359717033427
Pd 7.44383115452826 4.022137593412326 5.284028349226401
Pd 6.875668620264699 8.379430155416157 11.550680221321134
Pd 6.646191642710057 9.200626703179624 6.970039047470509
Pd 6.448523306619107 9.408408064659765 4.042235983321592
Pd 4.798447191862894 7.949582866448588 5.571536298121036
Pd 5.13348930514067 5.4465095117028115 4.7450836094802735
Pd 6.674749580222144 5.148711529050312 2.610426275579207
Pd 4.092311222195859 1.762802693434102 8.305755571587635
Pd 5.1795823362085684 4.046123364604012 9.236467600369872
Pd 5.8888628162742505 5.883698403966286 10.93989601813068
Pd 6.276496063654727 7.469004321734427 8.933335964045636
Pd 5.575210699648872 2.854738429956325 3.6711648508819006
Pd 4.839205193870757 3.5006813773039696 6.380556212849387
Pd 5.998920732907158 10.14803235013856 9.441892090116179
Pd 3.7828443725396452 9.531640399650934 3.579448223521565
Pd 4.707433589627752 1.0602840002406826 5.629041265037648
Pd 2.7347036117541283 4.199886807619736 8.054504372739284
Pd 5.264207925198391 7.371777510956829 2.8311565889247703
Pd 4.647029172980862 10.635076741729721 5.944576740840385
Pd 4.373804498337825 8.37428914553846 10.742768257669871
Pd 4.801443948172663 6.019191205330694 7.277055101137302
Pd 3.853045240853019 4.882328238503145 2.5966585012054386
Pd 3.5005824232053993 6.246695972415425 9.537798828833942
Pd 2.305696467586264 2.1560047236304567 6.36284889631693
Pd 3.0640140516016863 2.5603222868404023 3.8674843850217018
Pd 4.018420106776981 8.729087904528217 8.055837567196091
Pd 2.597279630503664 4.675899770591238 5.336388105739251
Pd 2.381928387930061 9.097663775343692 5.863267544208876
Pd 2.8170991137025503 7.004365879749007 4.110694827365597
Pd 2.3031501200695654 6.708168836746349 7.060108469666047
