50
Energy = -216.53478333 eV
Pd 7.045194278660242 5.3345715210869304 0.911314446607599
Pd 6.963293647937263 3.392004437361519 2.854672535286381
Pd 8.315596387619372 5.679728677781902 3.1589520433759257
Pd 8.531722998654159 3.8519290797282717 5.073259119715331
Pd 9.983041603501746 6.093830370124373 5.0979158876770665
Pd 9.303531570146706 8.194835428311741 3.4104958553073135
Pd 4.965220335493118 3.6864999735061192 0.9822052105757619
Pd 11.35645615978664 8.331955767697002 5.174910749790224
Pd 11.8523688881135 6.356729999751435 6.985209472746526
Pd 6.962088002859288 7.766752460842992 2.1436314751145935
Pd 10.019125768096139 4.399639337812255 7.270602674751703
Pd 6.069120315316227 2.728253602799692 5.350061377785244
Pd 4.243661458905625 3.3292645996912973 3.4790294201791623
Pd 7.8723757798060365 2.8425437350190728 7.537799955801578
Pd 5.76213424058776 5.387744011395261 4.173135331976287
Pd 4.771599676654027 6.238214584679219 1.9155002733868132
Pd 7.281093483287537 7.269132543924864 5.132451695007804
Pd 7.082673667588117 9.716715475394832 3.9831042823441973
Pd 6.813725485862614 5.126888867821972 6.654129114620916
Pd 8.95407935980848 9.270393399103398 5.846608019591242
Pd 10.696181828887424 8.624838674351153 7.78329357201852
Pd 2.6486490076030917 4.644865785909081 1.8842522764340373
Pd 8.803808792905919 6.786319163209697 7.339281952120966
Pd 10.567576950178834 6.331082497264279 9.316313315171142
Pd 4.941724309302769 8.065485860064161 3.8645705020496113
Pd 4.642845967582989 10.49180274196295 4.791003514071139
Pd 3.049543283357462 6.079855097899571 4.068671638616356
Pd 6.72296046399359 8.346908692668357 7.452074052254103
Pd 8.291030320177832 4.859544400829835 9.298098393572126
Pd 6.745515740822676 10.785256338897442 6.477234931949705
Pd 3.963220905725299 4.311379607400134 5.9008062152327225
Pd 8.83865788382482 10.5849107664973 8.117585915826183
Pd 2.784355980023508 8.498531373228207 5.334753447395984
Pd 5.25575361723911 3.188472319258466 7.851620134768676
Pd 8.633183447725147 8.37985102638715 9.511990069983618
Pd 4.66357189686617 6.91696162204832 6.47587380543887
Pd 2.622795387414985 3.7936630856752394 8.10353729028147
Pd 6.416057034498134 10.138320609797397 9.280843285233514
Pd 2.020991418851637 6.064857985572364 6.520874134342204
Pd 4.425652217974789 9.667095369781213 7.246680480891653
Pd 6.012356076305847 6.259193697921113 8.886218144895238
Pd 8.803888827876573 6.514746522696458 11.317697512126118
Pd 6.7520428850618 2.8004832148778855 9.993873630620646
Pd 2.209176033234315 8.38861779340402 7.934237152819214
Pd 6.494643819270184 7.911834947559406 10.939083542984827
Pd 4.459927382364539 4.208308200908489 10.076725525403655
Pd 3.2797602633869327 6.185032167006112 8.852520832367022
Pd 4.344200245409908 8.460469694468156 9.53495053493054
Pd 6.548214836039387 5.167924592188571 11.338582056842569
Pd 4.2065558964482035 6.538704105470869 11.364709026754396
