52
Energy = -226.61345855 eV
Pd 6.324480065907043 4.740733524430642 0.7058025400377688
Pd 8.926327772953309 4.844293213681507 1.7566329832566632
Pd 7.520926554815082 7.146344785626771 1.1695005142745347
Pd 7.2411025616808775 2.707696196501089 2.2205263044010537
Pd 10.665925845938242 5.446174027650803 3.7863313996971657
Pd 10.62546009794831 7.737214366169883 5.220240322823289
Pd 5.04519379963395 6.894162313894808 2.027898324788995
Pd 8.726887450631759 7.133539698313205 3.4904040119134754
Pd 3.736718139692183 4.682119609696846 1.4318288764588443
Pd 10.87452236240569 3.7681485271530377 5.825935175620606
Pd 6.784448812409473 5.288329044229452 3.2438000042017476
Pd 8.787438596388215 3.5776738669324035 4.167161081900709
Pd 11.198839243817488 6.065353298758429 7.234782731079502
Pd 6.578466614700335 1.981062903900765 4.836570360811066
Pd 4.913014652884784 3.328365231140949 3.2202223728339705
Pd 6.593579049944587 8.7791429300663 3.171530772918668
Pd 8.27000972637239 9.045837851256927 5.380146653632361
Pd 8.915149752439246 5.717941093773543 6.02282318832078
Pd 8.564889369429896 2.6142331000531125 6.638258473751787
Pd 3.9899735111732357 8.404785537247669 3.917710178633486
Pd 9.638611665570044 8.343506017219179 7.611675019272916
Pd 4.164785438616518 3.1961760905729517 5.716570111984253
Pd 2.439020229933813 6.788576601188182 2.3550623601504297
Pd 4.438032133322815 5.775626921080924 4.552327847428277
Pd 10.302337929534707 3.8132121108533052 8.390531124361589
Pd 2.3942046502433048 4.375328391182523 3.811185925600233
Pd 6.4853502847858016 7.133544296481306 5.278309785794092
Pd 6.649233863557045 4.441599620561909 5.69492369001371
Pd 7.3488024009915165 7.0473541843907554 7.708719899928801
Pd 1.8939502525836889 7.038737041131132 4.861362811402771
Pd 7.207629860364036 9.680346669241946 7.754543647334363
Pd 6.00529098990832 2.531496268112455 7.587387472717271
Pd 7.715252841855777 4.432842963460525 8.376448336210805
Pd 5.618064178519118 9.680330425418422 5.535806939216191
Pd 9.488184071955263 6.191209201137877 9.298772470086229
Pd 3.4112219842651212 3.3427090052611725 8.281159573279364
Pd 8.196945734096879 8.453337244907464 9.932073303039056
Pd 4.108225684778911 7.510939173553349 6.722984124567207
Pd 2.5677949861470792 5.110032820622472 6.5206971292396965
Pd 2.654896759357201 9.486666636870142 6.0546362590229705
Pd 5.211737513912565 5.340072582030509 7.606044007459558
Pd 5.291875366523932 7.732012012073484 9.187304966842968
Pd 7.050719964185717 6.025563698579472 10.361282265008215
Pd 5.397075109367718 3.9891759167505754 9.891489047734572
Pd 4.585537549193672 10.064766652860616 7.901440476578975
Pd 1.263918130472472 7.265636126600338 7.3557581049309695
Pd 6.027367233425657 10.125522647398347 10.163122014811949
Pd 2.7192745446982243 8.629166457458705 8.999756864788292
Pd 3.05299580899436 5.971770351475067 9.049230528723829
Pd 6.371255636880981 8.080381408755443 11.887179747989451
Pd 4.516586928960065 6.164100318983662 11.217455214284836
Pd 3.916343907653096 8.821016054758443 11.282468947716456
