5
Energy = -16.47275082 eV
Pd 5.261071488455437 7.899762048089069 6.623590733125187
Pd 7.289842469061805 6.665339870831848 5.508526505974194
Pd 4.807826822976912 5.847419948379583 5.059106331833931
Pd 5.911171227895378 5.494572622512364 7.4418019022166755
Pd 6.7419072214466516 4.10472474002354 5.378793756686083
