50
Energy = -216.44123845 eV
Pd 11.159767372647469 3.803912839158969 3.1059790721097857
Pd 9.770042460747572 6.076553113022768 3.108498229937726
Pd 8.533168313878814 3.528299604868694 3.0338734906835017
Pd 11.256702917943821 5.32821297805836 5.2567652551253135
Pd 9.995277723501637 2.781603637767762 5.264805563309379
Pd 8.270909955969639 8.267684913522123 3.1487817657248547
Pd 5.918222575686 3.3200771482470244 3.009198088655096
Pd 7.09977307312702 5.803261525139949 2.8781881456504443
Pd 9.902587542268819 7.651689215372594 5.32356015745556
Pd 8.599396393697013 5.02181763561491 5.281129835765634
Pd 11.175158245879546 3.7873615435180823 7.441620068006027
Pd 7.296688448066391 2.5294775516391756 5.2955097680547025
Pd 6.629485727405338 10.346481911868377 3.371015347406762
Pd 4.373963667307583 5.614653348225779 3.0806350229502035
Pd 8.624041219953478 9.942867723254654 5.26747394309523
Pd 8.577524903386449 3.3107870997844904 7.538957305886746
Pd 3.2263722404327018 3.266734368461022 3.1769530040950906
Pd 5.552994659548356 7.944707599082756 3.0523687180492214
Pd 9.884820805120667 6.124637905051239 7.479538133180783
Pd 7.142160851925567 7.259269218861466 5.322267255478687
Pd 4.628166053359407 2.5387273754379818 5.263066153507204
Pd 4.861074971629146 12.252437198853922 3.809043275831079
Pd 7.046982065721566 12.165261314262578 5.36980079276991
Pd 5.847866495267609 4.885973058893943 5.252462996373365
Pd 8.3301981588416 8.364983294435346 7.50838481426651
Pd 9.729666497504944 4.525223395809621 9.630803651651297
Pd 3.976811189882297 9.786662498849195 4.19774959768579
Pd 6.037361899038371 9.574511570368992 5.8251286930493364
Pd 8.370073502551978 6.758758729098984 9.590075226947624
Pd 4.292741211498503 7.25033437016533 5.261853675983209
Pd 7.682915241609872 10.908606479056331 7.6198086514913745
Pd 7.144927055193896 5.5934421555299405 7.553777878506629
Pd 4.602392907422642 11.698064984090978 6.3647342856403775
Pd 5.934556766187029 2.9826915673882843 7.585122010555095
Pd 2.928503357075159 4.817669253446813 5.305576474849942
Pd 3.220648502038193 2.8643869239087616 7.38060906710456
Pd 5.604556548654852 7.693244876593384 7.62952435129705
Pd 7.081822816191384 4.122981715705494 9.788853205455503
Pd 3.3733648023736853 9.364964370606089 6.779873327902544
Pd 4.391696794932902 5.267086745684083 7.482776171903891
Pd 6.412130841653486 8.431213640639335 10.115582006358684
Pd 5.318112880471542 10.244380952077826 8.480457389385945
Pd 7.082604634056064 6.133383700548196 11.708823827696309
Pd 2.3854554138994404 6.972748340512495 7.091674600764808
Pd 5.244133464611313 6.095843790951827 9.88868339159743
Pd 4.447159845395157 3.57323198521624 9.757781505349167
Pd 1.2093847726321751 4.632343812823066 7.38889366841509
Pd 1.7833068041597353 3.2030525365809686 9.544404074505042
Pd 3.5872773514503744 8.203128714596792 9.246839238809955
Pd 2.6266708109104338 5.681254756316923 9.459334872230416
