50
Energy = -216.8577286 eV
Pd 6.29026381020885 3.6674830575244894 4.160585282881896
Pd 4.690116898745448 4.75317010957645 2.356183920820063
Pd 7.458976622941735 5.314968386968873 2.374002190798711
Pd 5.220254996690818 2.2308103656299396 6.241684544603361
Pd 1.9831817888679941 4.99735964604232 3.2235644914272483
Pd 7.763217427566393 2.2406130619211595 5.835778343923249
Pd 3.592910398482096 3.6754758239900664 4.777426094211938
Pd 3.141556805473061 6.91916182403005 1.7153996019989908
Pd 8.884394053226233 4.250664956484363 4.451279938620301
Pd 10.184950704343688 3.0365600087888844 6.53809687552001
Pd 5.67629630640508 7.3462087651845405 2.308622563180661
Pd 7.1438453305701 6.412156314026906 4.738529996071644
Pd 5.426974414877948 5.1012536122159995 6.262458084668797
Pd 9.77839741180802 6.544927509153871 3.4857573618552515
Pd 4.183647653718416 6.3963343608220775 4.307292522543585
Pd 6.109147721611789 3.202823668495637 8.54901847325332
Pd 1.8166001246090733 7.533547966751284 3.994250609403042
Pd 8.137357842186693 8.009785995628272 2.032277252477357
Pd 8.490664160592154 2.0739169739632195 8.335761130236945
Pd 3.486194268544948 3.891234133903958 7.4905903577852975
Pd 11.279359498187244 5.113578301607297 5.275784676964455
Pd 2.2110820857781865 5.741766660031635 6.012113145557191
Pd 7.9357686277550386 4.661055535457037 6.980885351847437
Pd 3.7863385297576295 9.213079838177482 2.9440191441580237
Pd 10.590167385333666 5.152271372162593 8.007617102477342
Pd 9.55640868580475 6.869000402358474 6.129285822140887
Pd 8.490717009276924 8.751616410879448 4.557121238792503
Pd 5.523591047915081 8.590738972430081 4.838204373564806
Pd 8.572079127824928 4.313047173783244 9.62466194611806
Pd 6.593989470628305 10.015971202205137 3.0033630892519474
Pd 4.085024695146401 7.427631887335498 6.791958526289399
Pd 5.850617546675332 5.853929540411482 8.732302068356008
Pd 2.8557332166303486 9.388787183240607 5.488930310902602
Pd 4.005094492693019 4.052186972385256 10.059618259659619
Pd 3.0809273912879642 6.212385694671881 8.852493637452875
Pd 6.764267828429118 7.864032600802009 6.95772427272767
Pd 10.17236592580449 6.2978650593474566 10.507390979504871
Pd 4.720462038180935 11.163319671704757 4.651855320714399
Pd 6.3889775153816455 4.190548945722617 11.06760954329864
Pd 10.941026560019905 7.797897582341926 8.367794487105694
Pd 8.400393545400608 6.774074131836398 8.51979012555238
Pd 7.090691754922581 10.5649648698704 5.928776453409516
Pd 9.092417952906418 9.287122065017156 7.149037711911199
Pd 4.763083445498541 10.036945252385705 7.181526234286221
Pd 4.888902355466407 8.287337777314495 9.19195695109911
Pd 7.531045777890333 6.555029544021778 10.985292586672369
Pd 4.856652430939143 6.485140420093362 11.14549557006491
Pd 6.962551520192532 9.938066326819483 8.656283309333588
Pd 8.973856931549635 8.777089570133546 10.015662765957035
Pd 6.49921694888647 8.98610837862422 11.12080504701723
