51
Energy = -220.92396595 eV
Pd 8.572437677756712 6.707437225517966 10.604030986092358
Pd 5.811281534871513 2.310613592038089 10.432549904576787
Pd 7.255882359962594 4.484905870025088 10.39054448153031
Pd 4.4702791414274845 4.600063678955588 10.111128212735057
Pd 7.514296437054488 9.027746669284754 9.896259429432
Pd 3.7941671500282954 2.0484505139849536 8.559839110431769
Pd 9.744028447497337 4.9891567095506195 8.726799814310933
Pd 5.91048005244167 6.856662693432461 10.000384966748967
Pd 8.126612855544966 2.8060195407762496 8.501997640487742
Pd 9.315678640342746 7.662173457001047 8.287345168097909
Pd 6.4008808527588 11.216042038656697 8.84183000142213
Pd 3.3208280674164845 6.911960335249192 9.346845829707158
Pd 4.778481134775375 9.150576720614708 9.214252133428161
Pd 5.680929028944806 3.742613144098649 7.972338745563283
Pd 6.3093748693778045 0.8678699619842329 8.300353359557832
Pd 2.872754992805013 4.534182579829142 7.968019314528722
Pd 7.324376689312322 5.7205410702369655 8.017243603919042
Pd 10.705901176914306 6.1321526692800274 6.426491729859114
Pd 6.616695642359433 8.253674877377659 7.485053653838408
Pd 8.771467196921575 4.139649654073066 6.278957476169292
Pd 4.617905202027466 0.571295641312856 6.359835843128514
Pd 4.785829597916778 6.282349276969147 7.237644856640089
Pd 8.522910778411205 10.19234613002671 7.595488148964863
Pd 6.767433220101158 2.2249698633654194 6.0902663789553095
Pd 3.900202042138287 8.770829515399944 6.752427503500376
Pd 4.023904154099961 3.045003446792918 5.977636537443711
Pd 9.99306771863446 4.960766333255006 4.02411762487394
Pd 10.493850778635176 8.912828087854951 6.325813732117045
Pd 8.262788884478066 6.855109681168937 5.8599792552669445
Pd 3.938353506151639 11.257376032325265 7.7125256472394295
Pd 2.0234785007892424 6.887607693815216 6.952012160273186
Pd 2.0168686090282857 4.63820749667312 5.441828398552584
Pd 5.928745552983401 7.792358808804992 4.94893859948929
Pd 6.10834164323661 10.567451651557668 6.292418679365118
Pd 7.606792765201479 5.922112470998197 3.518410400154375
Pd 6.075114616611965 4.895541818737215 5.391649317677526
Pd 1.8967675277883849 8.785708040944048 5.02725644355999
Pd 7.802037975918474 3.236158035394828 3.967780168430512
Pd 8.199160900810487 9.441138652633585 5.023363526543268
Pd 9.646610918420892 6.66004135827197 1.7396836088248728
Pd 10.03927795276165 7.68008254568328 4.074642391982937
Pd 3.5016074524496688 6.666273131494619 4.728001180229861
Pd 3.729289750192854 10.82477087187962 5.026817959454683
Pd 5.168720457029368 6.594717850616834 2.5925154544644173
Pd 3.9404194086125486 8.82881063898664 3.299420025285187
Pd 7.63902089141559 8.347010570840498 2.6003646615127485
Pd 4.097434635804852 4.319025089674833 3.702855370948627
Pd 6.087179783304023 10.239866229306768 3.6606421104710813
Pd 7.153811595947487 6.2732708244290425 0.8277896262020528
Pd 6.126034983585376 4.093429657809542 2.1284985073178047
Pd 8.769324815901518 4.149800849967387 1.6678229577471737
