54
Energy = -236.25175886 eV
Pd 7.679491231981157 2.241092615902789 3.3840365921924542
Pd 6.046191942437345 1.067920844884652 5.512683818451553
Pd 4.812399769547486 1.6873549910554622 3.2848941338970734
Pd 8.520825219763324 1.9017481887958336 5.903160371262731
Pd 5.808770034646264 3.5439223533318662 1.7061834309633874
Pd 7.09157084199262 0.8555172064584445 7.962856728003947
Pd 7.8898032552616675 4.898107700927879 2.709697301652538
Pd 9.934788794984291 3.750179374779367 4.158487840268219
Pd 4.468445409234488 1.2269205795649336 7.767636958357571
Pd 10.56669836944298 3.2408931234934006 6.93343161384677
Pd 11.10176270349297 5.653577240162343 5.953195132998804
Pd 6.038178511852932 3.867309801049495 4.462680100632382
Pd 3.775612177120039 2.6548592569568132 5.57902359794303
Pd 8.368119247568542 3.1293999244530504 8.498164922184362
Pd 6.1432572001106065 3.332116473058596 7.0018419273971375
Pd 5.3057551446148645 5.916397309821394 2.7443735904374944
Pd 3.513733758851951 4.08462927445165 3.3455197603591476
Pd 5.880534117403264 2.9621518189701117 9.530216407154029
Pd 9.56334777808753 6.5456271449375825 3.8840050697367894
Pd 7.313356262427295 7.6644937213232405 2.571398241089544
Pd 11.066584788098371 7.647846211535315 7.984330240425053
Pd 8.385429139081065 4.533269090763354 6.01075921451565
Pd 6.961267565871336 6.425144900885938 4.869214893574119
Pd 8.908608979987916 7.063184214413146 6.499977353623992
Pd 9.738913390964749 5.336038970695663 8.444388387194238
Pd 4.5939253877529165 8.345346073794286 2.1296136923454316
Pd 11.034171492432648 8.332783023209982 5.3781576675225535
Pd 6.753851768556941 5.894646102502843 7.664644819274694
Pd 3.4504303731246364 3.6498655689442874 8.008707080247436
Pd 4.547749318315337 5.311072823054256 6.154135785689345
Pd 8.54166213583369 8.985813164129999 4.579379740149082
Pd 2.751816324134954 6.6738497741828 3.4802946983296703
Pd 8.566646351932755 7.658113546917439 9.092572485020904
Pd 4.718959657615061 7.618519240916504 4.915221809010138
Pd 7.489067994132129 5.219600175838014 10.052482447269778
Pd 2.11480432389736 4.934209875697409 5.553077346824589
Pd 6.059745662099218 9.640326067149097 3.901296847562647
Pd 6.637491456624369 8.459944006132767 6.705751078812282
Pd 4.756369442022889 5.318696866996969 9.590693783941003
Pd 9.285554463799548 9.615437235430917 7.186389569763121
Pd 4.471299298991281 7.369219168941643 7.745305139430784
Pd 6.102691948218957 7.605029303877706 9.924925085866676
Pd 3.1136379600221042 9.501824407037786 4.015093869637779
Pd 2.1757660190252333 7.5957854646141945 5.9315663329929995
Pd 2.2879772201930426 5.979806719543561 8.179156320976228
Pd 4.22893084984784 9.735564349805196 6.585558985711842
Pd 7.224327899063002 10.905150746468813 5.97689550155861
Pd 4.765239880599267 11.639925774603354 5.001311642548287
Pd 7.134674510243396 9.903883756258848 8.796136278940955
Pd 3.3721093540617533 7.46821771510568 10.320578575676182
Pd 2.14249516355159 8.732553067358955 8.335601835498165
Pd 4.5007455719927885 9.681228681105173 9.245071943797306
Pd 1.735192333107165 10.2259667330804 6.17367464514334
Pd 5.44643839323825 11.73691330315412 7.781158295479378
