5
Energy = -16.51344776 eV
Pd 9.106551928074259 7.5085869540145955 9.59046416789473
Pd 8.88403673627803 10.065600357032435 10.194249782491992
Pd 8.380149923008467 7.217265609686041 7.06055446064227
Pd 9.737658944935532 9.323226477862997 7.8342620354279
Pd 7.145410332310594 8.917511102902152 8.597033721079445
