54
Energy = -235.55768345 eV
Pd 3.126715080311276 3.9417671772752665 9.843370632091771
Pd 4.446826044612491 3.969446725555749 7.494751110665294
Pd 5.70716360063542 2.6807470227218633 9.572152181583782
Pd 1.8472081142081684 3.9681824020278693 7.226155343191524
Pd 3.752811677449272 5.4392414698271505 5.451891382531859
Pd 5.102037307432077 4.359193373016875 11.714105943009098
Pd 6.252703249316424 4.392604324841164 5.292078677081124
Pd 3.448882621691242 6.482091282044865 10.960564959589462
Pd 6.3346609758575285 3.624040190400345 1.9495743554579716
Pd 5.320147040103107 5.5123470423525145 9.358223521277392
Pd 1.4117063585798817 6.3930443135349035 5.97968494573547
Pd 7.048383750084926 4.286967421811693 7.832629617348153
Pd 7.1939535614671355 9.54185281784799 9.003201263582199
Pd 7.573785000246149 4.521206840565315 10.50944803142808
Pd 8.457335314198378 6.0208418640241375 6.664842866819189
Pd 4.763947177098419 8.124936916145877 9.146845758130345
Pd 2.643876021542142 5.9543304986440875 3.023801681006333
Pd 8.079905404526123 5.658424796236477 2.379416332700647
Pd 6.12960716272847 6.988363797467176 11.346730705081676
Pd 11.195845370539445 5.625075750051437 6.734417988534107
Pd 5.392059343914132 5.778239926174527 3.1654884439732522
Pd 1.6477609869903294 4.016349382407837 4.560151358279757
Pd 9.594958817250994 4.794620650635526 8.770388612654623
Pd 2.2966631633858987 8.25883442718692 4.224405674464158
Pd 3.6128201047475677 2.428684171150259 5.589597144697668
Pd 5.3256534667641215 9.722593370338036 7.113103185388739
Pd 2.9169084448858307 6.192458507898358 8.301944402715085
Pd 8.370746256426125 2.1829174812357706 8.372868244897452
Pd 3.70094352424902 10.394758403801735 5.199009101825975
Pd 5.685883601051147 6.649166056322317 6.916772956289353
Pd 5.97035484687445 1.904441114199861 6.928913311826549
Pd 4.8320595706272575 7.85367976460585 4.689498925793037
Pd 3.9761377393315835 4.755701695540183 0.9506341368123183
Pd 3.966736488971971 3.5003417144677105 3.2716381174215114
Pd 3.1786317958916133 8.258638279229025 6.811786567743779
Pd 4.244013033439652 9.589449720592718 2.748348720729856
Pd 7.444443270677015 11.220841731933854 6.690987842640556
Pd 7.3366358195304615 6.966149117426368 4.604023777287419
Pd 9.481932434499969 3.607500673890138 6.257841583140354
Pd 10.037798712651881 7.474877101868902 8.386420630373932
Pd 7.626749556670804 8.524807811253574 6.6464219329159455
Pd 4.1252922540867685 7.383301987762474 1.40066287983142
Pd 6.3850936562822875 9.982841184660417 4.475187414019427
Pd 7.580640114870886 6.9220409172082045 9.110379531755939
Pd 5.97208332430312 2.0073470836524008 4.197941040098852
Pd 9.70507727665352 9.9633990912967 7.460614566258761
Pd 8.181133772518297 1.448969972084961 5.662654437326471
Pd 6.291582352250797 6.043269769940289 0.5099419650433074
Pd 8.255558594906157 3.4475368179262342 3.871886636813743
Pd 6.588259986627312 8.165458646522291 2.345528393303343
Pd 9.207880202500283 7.994548214515162 3.1208637447608267
Pd 9.82946386441183 5.581324954337806 4.3603699426464875
Pd 8.973746676277177 10.094631561911767 4.7653917151951255
Pd 10.149581487610392 7.917664754859064 5.684562522258613
