50
Energy = -216.56327835 eV
Pd 5.422354758038672 7.793355981050871 12.21180705450675
Pd 6.025505943017112 9.63889731790922 10.362992026701885
Pd 6.5798394427314655 4.152669455773616 11.941212009876462
Pd 3.688624226402767 7.869283636611374 10.210323103592833
Pd 4.145700643781718 5.474415744059701 11.412570075511082
Pd 8.807368083968228 5.5755095784988935 11.508535553285625
Pd 8.019734619475893 8.105994649591207 11.268330010773216
Pd 3.8594740786384345 10.140679590765508 8.828939656690933
Pd 6.333542371623964 10.757666964638123 7.91111618466574
Pd 6.38787040023134 6.250352415436856 10.323191779952252
Pd 5.2619020262709535 3.6854198490831562 9.703314508170104
Pd 5.684972031832302 7.935764636788454 8.419668877058735
Pd 8.78837622560364 6.564482811689014 9.024435975716058
Pd 3.8919647127631904 5.701955388741294 8.687044890225382
Pd 8.043325976639354 3.8285175506339963 9.652651667372185
Pd 2.890201200868773 7.892553739923092 7.59249755643295
Pd 8.204845874802297 9.170739689651207 8.85683266351567
Pd 8.781223746558487 3.542922943678302 7.098704166698281
Pd 4.576058399578375 9.47892957792869 6.356264067011775
Pd 4.589609729795845 3.768532270385363 7.065753530651181
Pd 6.714372018286865 5.329885916806757 7.882559606108782
Pd 6.649807301388635 2.3320288370590627 7.886829768261833
Pd 10.113180624024526 8.256104787887189 7.397703692224987
Pd 5.179372889015274 6.618266971555911 6.1769644541113
Pd 8.680638571303808 10.419960324808963 6.425657041461305
Pd 7.193680168323555 8.333614445829317 6.294485690173941
Pd 6.3193778411912085 11.149380624043141 5.309453779593923
Pd 6.736681130528682 8.041636233077032 1.8231311182237284
Pd 2.7886648929936366 5.539218859698893 6.218273966022883
Pd 11.41432446520395 6.546354925716836 5.78396601496715
Pd 8.810100612951421 6.1482122997773665 6.325803657663909
Pd 6.838550509274901 4.473454033413023 5.4125842717534605
Pd 3.199700363996346 7.835992583306871 4.796662222024319
Pd 8.288843441164353 2.3874095388948247 4.671008322459945
Pd 5.726307374055707 2.024217186965644 5.379875064070791
Pd 7.741487339621598 7.003675527581345 4.029853731455342
Pd 5.399124291047213 5.874784562717371 3.73266165984354
Pd 9.860833360058392 8.48635835519384 4.813249578177348
Pd 5.525991106944336 8.774788346636845 4.035849749927352
Pd 7.9020245933915385 9.86256457865572 3.742661157697753
Pd 10.168318534636082 4.274112597481193 4.972770356495611
Pd 3.92977049727699 3.8069379284934453 4.49170669167473
Pd 2.374511896824711 5.70122089109049 3.5199060664077244
Pd 10.383276011124803 6.31050601541362 3.310394663699518
Pd 4.079480430041411 7.3675984482449905 2.1441810556098675
Pd 9.354181447031767 8.408997733943142 2.1348148697026548
Pd 8.368130559472773 4.662546174968511 3.083950309936121
Pd 6.162043996246984 3.199757852889863 2.9667177725466707
Pd 6.524658619754346 5.449005360995518 1.4018693985999842
Pd 4.028387774844619 4.491081418657793 1.836586065337882
