51
Energy = -220.46528783 eV
Pd 11.109256564581306 7.021924326532009 3.4838942977215943
Pd 11.384684239986791 7.013698813246321 6.144720178703695
Pd 10.690299154379158 9.522554415685052 4.965372965525171
Pd 10.900089990466052 4.35347031176833 6.569734139278293
Pd 9.592909664935608 5.0727101581960605 4.485647074056636
Pd 8.897599126058585 2.547195513474747 4.315853839325802
Pd 9.294578217367503 8.844537498500419 2.7391436452772604
Pd 9.644387597926402 8.84053849508879 7.476570341514456
Pd 8.762115898129066 6.065249989001473 2.26096644516637
Pd 8.965585162466876 7.629186782981043 5.06511414821053
Pd 9.20053206494347 6.236993244145281 7.427030328215882
Pd 9.420108656665551 2.0583298376096146 6.861465460532608
Pd 9.46506791297445 3.975425114991597 8.795237528742247
Pd 7.961566273487313 10.132109194445412 5.76616728418353
Pd 6.6766053046022495 3.8793968900220115 3.820511888907866
Pd 6.852593580715033 9.191769263655662 3.6432232288302564
Pd 7.04581037834915 5.217681610920124 8.650313079313609
Pd 7.933603544737484 4.197922327330829 6.340528547923088
Pd 6.944902547392197 6.5188652906179865 4.108160667842671
Pd 7.895515403077856 7.661933126800597 9.350934359486912
Pd 7.214429390846692 7.9554751864424516 1.3231056237611885
Pd 6.633064371466442 2.0100584906675616 5.8161729655080086
Pd 6.994639787521307 7.755833919846297 6.857995369253077
Pd 6.0392038612793435 5.542234784012384 1.69831964691542
Pd 7.318172034624497 2.460978181077236 8.516075679662485
Pd 5.62460912182746 5.424397740195915 6.2869192955276585
Pd 7.49543466991393 10.169369726725316 8.401074492716798
Pd 4.477537266864097 5.681022116321814 3.954835349654228
Pd 4.800826193849599 7.959689189673029 2.4003333499859436
Pd 5.568085030421319 8.948254337902869 9.672201179556199
Pd 4.951598423660603 2.996599593986889 7.641454202601847
Pd 5.595807593579312 3.660884663722125 10.255188721151686
Pd 5.39159011278511 10.117826176522994 6.795472807913347
Pd 4.304799910513729 3.512223788303515 2.477145329935856
Pd 4.315366107466293 3.199314066875833 5.120902613156849
Pd 4.956692038013355 8.094968252541968 5.06215390696828
Pd 5.740740658814163 6.419733264359227 10.594441409668532
Pd 4.5359939373669285 7.700597552374201 7.671431160467789
Pd 4.218311101537264 5.379341164670284 8.633957776596093
Pd 3.1768672089673733 5.882478707281274 1.7041411972380118
Pd 2.927219368684441 6.3222554857771325 6.078271571807042
Pd 3.2935022584229934 9.90415248707841 8.588125302118232
Pd 2.501380669192168 3.9519273225864464 7.030565423545778
Pd 2.5075225803285592 7.582007251813991 3.758098377134532
Pd 3.022970514534564 3.0743154735018474 9.5590384860822
Pd 2.155312439385786 4.539151104587811 4.204409465901826
Pd 2.7597669791977424 9.185958815852723 5.988370968366737
Pd 3.5099638267459246 5.102488047524903 11.3264946520388
Pd 3.2990756756023685 7.579759534617177 10.181771805829689
Pd 1.7842897523566301 7.688821926694854 7.950744171291357
Pd 1.70726142393927 5.426251680813766 9.281448719949989
