53
Energy = -230.75956745 eV
Pd 5.6588176232765734 2.9928968462805883 2.3061941949359075
Pd 7.735316441918854 4.688666514272338 2.7731637549000108
Pd 9.601676363784234 6.412746161111354 3.5559661847759685
Pd 7.162338188080862 7.291036562060163 2.808918783836745
Pd 9.147841620299184 4.295964030636059 5.118648130456587
Pd 7.439774329880916 2.4277278697923643 4.24941656915516
Pd 5.135905258054713 5.5397774164621465 2.8055830290675607
Pd 4.597958510035296 8.123638634255721 2.462594712352566
Pd 3.043010955093742 3.8212008263333535 3.1450973264343953
Pd 11.287489515327692 8.28098007327576 4.532740717854247
Pd 9.074754984863434 1.9610126890101471 6.392122323374862
Pd 2.5867407399852307 6.450327714563871 2.9182140079124275
Pd 9.000429294009235 9.15909952853711 3.511297361467711
Pd 5.020054445914096 3.269981021056024 4.818008004649942
Pd 10.56188407076929 6.307017263815657 6.1398071316547975
Pd 6.6300387311688675 5.457873169030226 5.08659641668361
Pd 1.2746968760609034 5.089632028380189 4.795165162450401
Pd 6.510340990681646 9.871314598177774 2.8152090638801126
Pd 5.583418654162381 7.9962511714134195 4.971275132544894
Pd 10.216802792939882 4.004314512988257 7.59462793887366
Pd 6.804212174752859 3.2241683323203074 6.7955008324827455
Pd 11.767757385751612 8.390876809697835 7.228833591666373
Pd 2.544595231416052 2.891963201022641 5.621792936190061
Pd 2.898909936420249 8.537116905535019 4.46031492455255
Pd 3.818384028422488 5.837611441063081 5.26941620084293
Pd 8.21096517703231 7.56271139606757 5.522500597067923
Pd 4.649442512073768 10.502838210924262 4.686633537424443
Pd 4.398219916404579 4.097641158843473 7.230865042042811
Pd 8.083996846475483 5.5615836896257935 7.3987614769704875
Pd 1.833346072173481 7.153421360584308 6.412967947027184
Pd 2.6682322964903102 2.219073360734928 8.202196407778645
Pd 7.276500173779388 10.343378229094471 5.282813848234405
Pd 11.09643819828094 6.218652656715394 8.77716534178751
Pd 8.130892822471884 2.6249816507548176 8.941728436477291
Pd 1.8357015525460836 4.725249961241152 7.500027927485107
Pd 5.560921019233386 6.424090366448785 7.359897507913018
Pd 3.881186132487535 8.798970012909027 6.941668191195067
Pd 8.946706234033023 4.952882649130662 9.863033679830856
Pd 9.729894797214346 9.756221330747076 6.1096618626159644
Pd 5.316075063736973 2.1204234503937216 8.78652530383184
Pd 3.282027405542508 6.77590014909869 8.590188625064922
Pd 6.250129499018713 4.510352002444999 9.367620723720112
Pd 9.296780417155123 8.047908607391115 8.119101085939747
Pd 6.777679074754096 8.69004836530773 7.450808129720626
Pd 3.490506289491551 4.255286004108611 9.701084728064625
Pd 9.556304314969278 7.410160294700661 10.687749036345483
Pd 5.40148160802373 10.949368885423597 7.152128816519401
Pd 4.809147463307257 6.34985581501752 10.653219581553785
Pd 5.018788789554234 8.765251932404421 9.425059363978642
Pd 8.104740279918548 10.930151538905012 7.826827936960531
Pd 7.146904029196344 6.9614284539540945 9.610434554651466
Pd 7.882068510499145 9.419087315942223 10.025640329630274
Pd 6.055876085393525 11.211866099157968 9.641001267377455
