55
Energy = -240.87519404 eV
Pd 4.124704949516737 6.0390929437571135 10.584309985108556
Pd 10.144779938002896 8.35919810767283 6.6341240474943275
Pd 9.146906801192282 4.391958773391672 10.38223119075999
Pd 6.024684531936071 6.545901695482153 4.677374471221891
Pd 10.143006070914526 8.560036001874666 9.29407912336455
Pd 9.022222817719493 9.339648356973965 2.64971641741036
Pd 5.697453647172027 6.202149607776545 8.434740456530037
Pd 3.641448919470495 6.612195298023482 6.127234017913362
Pd 7.8949233780482215 9.077832907013592 5.333343426713332
Pd 8.57394880541404 6.410732427944637 12.07879618582768
Pd 6.069180210792597 7.362050915261547 11.822298643780025
Pd 7.826370459273419 9.255924936474171 8.020363785572636
Pd 5.446996752068467 10.443766929903855 5.078782758556489
Pd 3.348735533443109 9.50300475192414 6.535115360966921
Pd 7.900353987690864 9.324178366895632 10.72611969719601
Pd 5.480356572682056 10.895335830128525 7.693104030533684
Pd 8.540310782463566 6.994967063226648 3.9034410712532432
Pd 12.852263163336831 7.3000320553479545 5.51631527640853
Pd 10.46618002361293 5.961367155104667 5.404594737782519
Pd 7.936542196510988 6.815307373793984 6.819835245713355
Pd 12.485497738966533 7.851300572723617 8.03449921576353
Pd 10.149655226677623 6.084608545521235 8.2530700946644
Pd 7.988169257228201 6.935908991765888 9.583597422752424
Pd 4.0330070852937485 8.345409765111897 4.203897935163222
Pd 10.930697732327095 6.308176701841251 10.818188334404455
Pd 7.517868067791091 11.287103861064432 3.6490729787553153
Pd 3.645337813645434 8.619791477763792 11.195284167065948
Pd 9.903741838587521 10.746582330827858 4.862843561065174
Pd 7.679313541173059 11.564530415232143 6.329263681404773
Pd 5.658019929431908 9.883762199425107 12.489129726425519
Pd 10.00256858644624 10.931121954873253 7.572448315928544
Pd 7.799199217042282 11.715944702272347 9.030018531882998
Pd 7.946160044078884 8.742121565527306 13.263203603412427
Pd 5.541644646959159 4.586235098725546 6.417766085443482
Pd 12.416168844889809 5.241853900082852 7.165931859460042
Pd 12.569031764873623 8.388744407132366 10.673264555706544
Pd 6.586370201617737 4.940611569047996 10.713059884608105
Pd 13.25019025864155 5.909113296179156 9.639138172699843
Pd 10.25833246127651 8.69915840250022 11.96756848211111
Pd 6.449039855547702 8.73945574444752 3.133116902684806
Pd 12.192589966628416 9.910134182708253 6.184314615484735
Pd 3.314760665760871 10.295660555755461 9.130692910410103
Pd 5.645428831290822 8.260175043246083 6.728222679916623
Pd 3.4009364424173416 4.979061212460316 8.168962664686008
Pd 5.481142412111019 11.241512815415872 10.312418057997531
Pd 5.642071699592689 8.689153538489466 9.489184381338816
Pd 3.285813167670541 7.672016330988997 8.594358775897124
Pd 7.706731872753392 11.666413515053945 11.749924178353298
Pd 10.026908672666972 3.799392330970894 6.950561157158406
Pd 8.014517139672204 4.691269956343169 5.311805278964004
Pd 10.042596934881631 11.01848453972872 10.40102374723354
Pd 11.453434988695262 3.8994392605565853 9.273151897425262
Pd 7.727054699958731 4.421033442393549 8.132563707246858
Pd 12.199449624964663 10.37082955987524 8.90881879795977
Pd 10.932402791417195 8.326430280213447 4.110937272656605
