50
Energy = -217.6827251 eV
Pd 7.716669493174508 8.260108646231958 2.897451286981503
Pd 8.45799940024711 6.098994924428186 1.6399144483268557
Pd 9.377657660149996 9.71598475921987 4.6348494052912015
Pd 10.043696722888638 7.05929811691262 3.661870848174507
Pd 11.093703950402304 7.996792392820275 5.9092453130668785
Pd 5.837349175046719 6.632145374140922 1.6698129762755025
Pd 6.8643807140715785 3.9923106223918623 2.1808737536465452
Pd 6.4945942713683475 5.93518609390174 4.104843602196762
Pd 9.055469009307364 4.5553097118998025 3.669977531898607
Pd 6.945697853981638 10.61900261283917 3.7374764280971915
Pd 9.614074323050277 2.8222302211149284 5.6447412122298575
Pd 9.43873534096382 9.359500875095542 7.479548177239992
Pd 10.676390013168943 5.319136269607729 5.728616087408539
Pd 9.605441644673647 6.694852406736548 7.782479876385322
Pd 4.411370776262008 4.663900883318791 2.969252601240427
Pd 3.3098480581321215 7.04399935403768 2.5176738527191658
Pd 5.144240179762792 8.71566845958846 3.272981157597645
Pd 8.034437057739918 5.097644724568671 6.0800211152721095
Pd 8.24542691630161 7.566694245307519 5.462516631623408
Pd 4.982470472268123 2.155624344002768 3.444811885643879
Pd 7.06517986038773 3.044968213279481 4.6633022703782325
Pd 4.726496461385347 10.482425189617732 5.277515202048413
Pd 5.366761065307926 7.8080876996123045 5.738343855854013
Pd 7.47175700933777 2.7261047015488677 7.311315327905767
Pd 7.1783144494261375 10.167586361535085 6.273103074869311
Pd 7.1086044504136545 7.886540660855697 7.751972758680752
Pd 3.2433622710385976 3.4309214124638894 5.040428786365966
Pd 9.697376537090912 4.018592506851317 8.053941242767648
Pd 2.810005102321032 8.660602620602809 4.66094290299744
Pd 5.164375958864143 1.9627135558440618 6.209428036627984
Pd 7.194642102255289 5.415319200439675 8.46254258698425
Pd 5.05275274766093 9.67063424716702 7.845887899573761
Pd 3.4366102631399693 6.07464956460522 4.969682899285416
Pd 7.440376652257993 10.360389655486875 8.97898451056745
Pd 5.404558047226373 4.752005369108054 6.361034967846027
Pd 2.654596085790122 10.049604928452847 6.992165590381948
Pd 8.625970169189658 8.086200945598515 9.908027232456934
Pd 2.5718449307471407 7.459074461061639 7.040678713133319
Pd 9.422293282732543 5.50778580725012 10.241229488622729
Pd 4.835148550087085 6.686631713457484 8.181669263791711
Pd 7.649469210508837 3.4154928935722153 10.004700425814963
Pd 1.7640425349604287 4.964751564816887 6.6880047488094725
Pd 3.6123896808498546 3.5130404277880323 7.799058673602972
Pd 5.536513604573707 2.048526949532761 8.897962840022911
Pd 5.899369542677853 8.46515317676075 10.121315639051053
Pd 3.2245281526199028 8.526298834191113 9.415759521004013
Pd 6.930630038726911 6.108696371231995 10.935546835750015
Pd 2.6486768341881173 5.673903851543144 9.138271068912182
Pd 5.0373494170815825 4.4518271410950545 9.84574563898937
Pd 4.251999138846411 6.6527321211198895 11.078126990244304
