5
Energy = -16.10697263 eV
Pd 7.999316255341944 5.479999531602447 6.934546763856161
Pd 8.485496465161795 8.267550325184859 6.863346118276055
Pd 6.454318562194094 7.13217107210688 5.754632549808254
Pd 10.315359260031753 6.510172083971132 6.578807020873437
Pd 6.646637151275739 7.167928843161678 8.340396072481386
