51
Energy = -222.25240731 eV
Pd 2.1271655752394514 3.870375290597377 0.6158032801498053
Pd 4.469575628750989 5.026169967133975 1.050860087184335
Pd 4.37769877420716 7.399026577759869 2.407967134108879
Pd 2.2199500169422484 6.455016026419775 1.151078628679372
Pd 6.636524888696968 6.034384590848557 2.2769002354864174
Pd 8.89938557004623 7.095166881742829 3.059898429865649
Pd 6.272703508549939 3.3927128323057043 2.1687874547255914
Pd 6.641035275817227 8.712244573880321 3.1384458861462816
Pd 3.617478358987847 2.745530512850503 2.47997971670808
Pd 8.775582609572025 4.4358643201051 2.8539342396542677
Pd 1.7732202238874855 4.7159016013617645 3.1219760322102053
Pd 4.02374433132903 8.961886576489432 4.487051888303985
Pd 4.3408296425124755 4.986628300328099 3.734191054663965
Pd 1.9570917912486783 7.447406903860857 3.603722742485414
Pd 10.659745587416566 5.744647123287839 4.488765344980394
Pd 8.78293291632006 9.058399254043398 4.755743703957648
Pd 9.27969117001853 3.6315711734878944 5.3966942493143994
Pd 3.9452241545534354 7.403493669628069 6.777415208523804
Pd 7.920936095551458 1.9932991676105256 3.745738410782802
Pd 6.840414009284163 4.488745310178813 4.680576467958892
Pd 2.3226144335388206 5.7037351519413155 5.512851731372154
Pd 5.29851302063621 2.272859762237219 4.455913454979406
Pd 6.352537265310009 9.504126351995675 5.733934400202377
Pd 5.785023386652299 6.937616592841014 4.847275704365275
Pd 2.85805566409552 3.0888801526906446 5.13190190507358
Pd 1.7369537223290568 8.546353171906691 5.994408375446375
Pd 8.327347080598452 6.518209333812015 5.5934731774409245
Pd 8.554649380365676 9.2323551075373 7.3772512116077245
Pd 7.230833277519437 2.1570232081180563 6.296715292697787
Pd 7.3512081756956 4.693522451875474 7.39938628888151
Pd 4.8750643012978285 4.892134009340313 6.414968962590056
Pd 4.615797245437032 2.3215730776040022 7.049517278261825
Pd 10.517073810370219 5.150453259696051 7.124090897096295
Pd 3.9933145575650104 10.036041148990508 6.976918341367729
Pd 2.6362686417361867 4.137022671563447 7.678318652537595
Pd 6.491671286949297 7.386949338186278 7.421162624487039
Pd 10.52646060268688 7.734948973677275 6.394028072457864
Pd 1.1970079600823629 6.466071528333754 7.752456119137841
Pd 9.202088969944668 2.9314005491070665 8.026522456571188
Pd 2.2655554345981925 8.717259023044564 8.637443338750968
Pd 6.3820393302973955 10.534096470840703 8.171903736166682
Pd 8.954415095523746 6.796032851286269 8.459618437561936
Pd 6.690501933150268 2.0223315754592512 8.820773969743488
Pd 5.032368658048753 4.093600158029635 9.0165359182689
Pd 3.537677754154831 6.2852440480526255 9.07006288245522
Pd 4.843443728935545 8.65478930545586 9.234035457750755
Pd 10.175990116874763 4.797291390004232 9.736388991430987
Pd 7.463902303797186 8.687792675094219 9.782350517090851
Pd 7.596812797149098 4.1995895791061875 9.984090485732192
Pd 6.091535047712976 6.365191463796771 9.827819180472552
Pd 8.483242306274391 6.4879323827146225 11.033249360370112
