50
Energy = -217.09334261 eV
Pd 10.312805710622674 6.186201469119733 8.347076507711105
Pd 10.925548459979156 5.301431625219033 5.919346373852721
Pd 9.172108446456644 3.5688180722170793 4.809676416451298
Pd 9.162730708211393 6.1076435883340725 4.093749335134195
Pd 9.306987226495576 3.835090024430759 7.509847869927613
Pd 9.49954899201614 7.552821007852304 6.310985504023807
Pd 7.637544586802834 1.8538863595737873 3.4986628606706205
Pd 9.24492929041654 7.362029439906748 10.49521361632494
Pd 8.99595777508683 8.694532464361181 3.9950708983941405
Pd 10.135209237913521 8.889185674141588 8.45711529815669
Pd 7.354474072341104 4.434246256121349 2.9935202095684375
Pd 8.099810708343067 1.7188969035489865 6.369143407673089
Pd 7.941551640071605 5.409014847381557 9.174288735557248
Pd 7.633468850204188 5.530456846421907 6.2578632429702195
Pd 8.594646346725115 11.222060398522988 4.323592225959157
Pd 8.301670386370445 9.970131889134581 6.702059383212387
Pd 7.2196280443205705 7.139277636944862 2.6757117497568927
Pd 7.585569337129476 8.89903563008574 9.070232634325826
Pd 6.298661201993754 3.4121490510795645 5.252828168670574
Pd 6.816345154658458 11.222060398522988 4.997646289505642
Pd 6.732080492671504 3.3533858118310076 8.03525905496805
Pd 6.882893454351683 8.09455212299079 5.487097672098665
Pd 6.659071177642461 6.968121419698387 10.904981732562257
Pd 7.0055183794022895 9.850835625131568 2.593118436573557
Pd 6.198992996930727 7.020487825989517 7.969606317657856
Pd 6.1591394590449475 10.662367804970849 5.010551897822322
Pd 5.666026049255464 5.48267002484651 1.2739685757179742
Pd 5.362767494980989 4.903483529774373 9.683535197308062
Pd 5.356149669937331 8.201512424853536 1.1464458746426278
Pd 5.426637861432257 1.3334623741949099 6.7069704870774896
Pd 5.6147514149776505 6.019938970168119 4.464410848892554
Pd 5.039365958386148 1.486969494926059 3.904601609503037
Pd 4.0443231233240216 6.595094036273877 11.24957779595308
Pd 4.8355082606772 8.72229955313838 3.683084401039144
Pd 5.624112184801664 9.746390108059442 7.430831025623131
Pd 4.079807975304437 2.866344447917634 8.360751983583803
Pd 4.941452220367836 8.619920181085284 9.73731112965913
Pd 4.265850670809964 7.594692620896381 6.186791659074353
Pd 4.843767175387248 4.992250300191405 6.8632767097465095
Pd 3.71728321398959 6.581538297189781 2.614960150672525
Pd 2.723709560105926 4.47813299094105 10.014919470016622
Pd 4.4581615815319475 3.9559617856882787 3.2050207175393286
Pd 3.3793681142203567 6.638965832057166 8.680752188406075
Pd 2.2067167777580785 4.522254676868845 7.369969406473884
Pd 2.877266764936863 5.474780438158839 4.913419769589529
Pd 3.511069410512998 2.942931030124329 5.577649392121035
Pd 3.609527447673985 10.177612049060789 5.568743237299212
Pd 3.011960890394475 9.166508037892493 7.977498838901528
Pd 2.3222240867584207 8.06479956168666 4.355590825706603
Pd 1.630851967521277 7.063777385018658 6.743649221163305
