54
Energy = -235.16227757 eV
Pd 9.34453497264431 3.692704482579467 3.6025634676193263
Pd 11.042882338432243 6.983790003786728 7.34904828604546
Pd 10.060535461903681 5.207338142711975 5.618336404517602
Pd 9.396188177352926 6.281469811192354 3.2533687945305747
Pd 11.221899670774096 7.475758520143689 4.732865119808773
Pd 7.3109444878233285 4.885760965583996 2.205101264553619
Pd 7.979484062873166 7.372039379132101 1.3045854690040302
Pd 6.914280437001919 2.7696327141256027 3.803890381684995
Pd 8.47602295805626 3.119286617982739 6.102358236727519
Pd 10.018818789447966 4.365942329898829 8.124597075973401
Pd 9.769069735972897 8.833901229299373 2.812666288678268
Pd 7.206330996257496 5.546243328882659 4.810627093849201
Pd 6.560834269820822 1.1835409609442389 5.939773908456144
Pd 4.957616779922988 4.577039470149965 3.4340060169739655
Pd 9.205310029025409 6.674523443590503 9.181714339983465
Pd 8.659864173078187 7.386800779208117 6.259883993897189
Pd 9.88522346645805 9.625327329700388 5.394091847145521
Pd 5.560779763481214 6.930289082027392 2.3985583300518223
Pd 7.49190552164468 8.15494252862579 4.012507534057605
Pd 6.469386571789468 9.472513747379748 1.9455654165249103
Pd 7.9816398722379835 4.300338880263631 9.857087054430336
Pd 6.9029205584061275 2.631618220168389 8.212383832900654
Pd 9.293193967329513 9.209835912941518 8.026853724645962
Pd 5.656971391238601 3.7654738334547337 6.048246252515231
Pd 7.5154583600842235 5.265675333992383 7.428766964245982
Pd 4.231664813245901 5.929189800396844 5.894746142068939
Pd 8.167176823812465 10.810531330867503 3.6501875967584883
Pd 2.6203116795927683 4.025519123424229 4.4807646182459315
Pd 4.447822740811851 2.0133532861109917 4.473839137020355
Pd 3.08292643974102 6.53371012665098 3.522408368551042
Pd 7.945761856016777 6.30313526684565 11.63813629984318
Pd 2.206888299279466 1.7449925053345143 5.799247356717092
Pd 4.336714906163513 1.9147375518116505 7.39402611441457
Pd 5.804463012795612 4.725920807905517 11.214835178847453
Pd 6.540888964076907 6.818701724851092 9.461375782554878
Pd 3.8275083721176766 8.992578751554252 2.5365129979581695
Pd 4.992916960291131 4.908294284445558 8.38877205525745
Pd 5.589474401540764 10.639806043387035 4.187646663525624
Pd 7.379776784888529 9.925220753901664 6.120677992577319
Pd 4.978891879685989 8.17953531140996 4.7450690804771645
Pd 6.045405336121194 7.473335247823676 6.95903321767325
Pd 1.4826254242419208 6.028433756562027 5.774225691245019
Pd 8.259268608599752 8.730047802377687 10.530204302143396
Pd 4.86227506598612 2.6831819604201432 9.89695003154779
Pd 6.62566082758092 9.535045406697423 8.63432193545632
Pd 2.6669507494133624 3.954944947116416 7.143693036240013
Pd 4.801122415603041 10.150813978175055 6.750049161827311
Pd 3.9919564094423 6.483128251267512 10.480644827971357
Pd 3.0296629884733868 10.307972050583379 4.714720220536117
Pd 2.5765871330872416 6.378713137904953 8.212859990565857
Pd 5.548010072344553 8.652376045025193 11.008471454892131
Pd 2.7089192087033505 4.222821143721443 9.772094856800795
Pd 2.830328411505333 8.25108925923117 6.363112263076575
Pd 4.190994543941066 8.44861857762135 8.67853460865533
