53
Energy = -230.5522629 eV
Pd 7.227332598336438 5.551786516540446 1.9241176745773254
Pd 7.641193171189655 3.4069883233783735 3.4325385292565342
Pd 9.781056786743417 4.834202353821721 2.7441782763545106
Pd 5.225625174746289 3.5835552802405917 2.4247155774998643
Pd 4.588821029762109 2.420821713680274 4.889165554145783
Pd 11.536685016599167 6.787507077611832 2.4549708526420293
Pd 7.127966653343492 2.7383052561119055 5.857566702589491
Pd 4.721193412975921 6.188199688172876 2.2229139279629613
Pd 9.010838849080026 7.516140963014775 2.2339663359101305
Pd 9.404137471218704 3.9468650590809995 5.3498532716579605
Pd 8.112406522184537 6.1643412637302655 4.362982588240189
Pd 2.9280171184487216 4.460357057268039 5.653395593257736
Pd 3.2372620946965087 6.608120984004939 4.324619608660339
Pd 11.001371427893865 6.046513390709297 4.932321100446668
Pd 5.498700799360172 1.195568134032276 7.2366380686034635
Pd 3.8638392600266536 8.690009122491459 2.715572077847109
Pd 7.2269297533987995 2.842885517718366 8.514517611811625
Pd 5.573532903600331 4.921793449191664 4.653833632541963
Pd 10.09034473295378 5.68298282483944 7.29098292789949
Pd 6.5206874248797035 8.34624743433296 2.0026214330567127
Pd 10.570647233595267 8.487259374983005 4.201004239368767
Pd 3.0082536330735827 2.1810728930525767 7.143035327134564
Pd 7.424975573473563 5.295108788462753 6.869150717658762
Pd 5.071792137923748 3.980392161609896 7.1946316469327485
Pd 8.603551241501451 7.711162417332989 6.329210701600062
Pd 5.84013534250927 7.511830663791981 4.3395488756231275
Pd 4.754947260493392 2.5247124182537735 9.434252647679253
Pd 11.06125072680255 8.22895175888738 6.9356792331204655
Pd 8.60596971655939 4.9284421914653676 9.287688217111766
Pd 8.044585576412775 9.229310478517018 4.155100162530924
Pd 9.9293529338984 10.458738047392208 5.7230747468613
Pd 3.6412851042233005 8.989873856861504 5.382675026835509
Pd 5.636131477371021 10.278672435388728 4.03228146416937
Pd 5.00515304475075 6.586313028243438 6.749135317486159
Pd 2.70358825964847 4.668030611086158 8.253169531375045
Pd 5.924257968350711 5.0584746130817395 9.49188760335253
Pd 6.262219392168764 8.942282570354845 6.442979976190363
Pd 9.5369263522563 7.4852279358322535 9.17592315935103
Pd 2.4316442945535264 6.997835228592942 6.891183755469851
Pd 2.174688768738873 2.5150111898820993 9.681441112246409
Pd 6.832196993054614 7.523341279600614 8.590866176976684
Pd 8.78616344307351 9.763295547117785 7.950444975024963
Pd 7.388349172785862 11.238368523964347 6.015798458032696
Pd 7.658573145712491 6.641264122124083 10.98018578147287
Pd 3.5567885179059098 4.5228021020692575 10.7561580307922
Pd 4.70765372078769 11.216577069738149 6.457869255790289
Pd 4.0056960868658145 9.059518589481998 7.985593743841886
Pd 3.813721580107116 6.795878168633485 9.26076653639964
Pd 7.936552559921211 9.331987755719245 10.387590037414908
Pd 5.045133814233796 6.488164044018619 11.657130680018577
Pd 6.287317164616784 10.533071747845984 8.569854841898296
Pd 5.223734654162739 8.809491973877678 10.309839387774407
Pd 6.5922370024275425 8.458160622801032 12.521255422910137
