51
Energy = -221.62364062 eV
Pd 3.9860552486331953 3.8450398336427805 10.035275600171392
Pd 4.265751778676399 6.333330823234163 0.8107408222731541
Pd 6.4990738776743795 4.791474606726679 0.5749213855217621
Pd 1.922776978875904 4.9307694922166485 1.3045749682443868
Pd 5.6938345028038935 2.219689883215779 1.01825666673515
Pd 2.5886932051048257 2.3056541452644583 1.543296286007383
Pd 6.838821185381154 7.224088000347881 1.8596156627285179
Pd 8.950519916963122 5.455740735668062 1.7330278758598123
Pd 2.2540705892992112 7.429704768368837 2.391434795896288
Pd 4.352060958974257 4.059025045010158 2.3360036766638075
Pd 0.04201661202123064 5.982306179366816 3.097910693764565
Pd 8.093827306728025 2.9137112089143575 2.073761197751902
Pd 0.7872917042148239 3.3333218458783933 3.3209785160513454
Pd 7.1796884256467415 0.44810132195721153 2.452106929728708
Pd 4.335227566823185 0.5531438229856679 2.5476233813614115
Pd 4.740741738294829 6.704008010863292 3.343419001184629
Pd 6.807728947582211 4.871006359717455 3.2440729196511784
Pd 2.4855473186811476 5.235277003244207 3.9469308937633696
Pd 5.878393821690483 2.1726251416109266 3.911428672484984
Pd 3.1017709441100187 2.2870575393735053 4.259719810626902
Pd 8.545452230591826 6.9670367457703035 3.982329473317828
Pd 3.4523857131589333 8.821500610545263 4.286313867144073
Pd 1.2828105963612875 7.447948590975969 5.087646347175137
Pd 9.336940107527575 4.3170571762035435 4.184069460731245
Pd 6.481077563456077 6.34939433584633 5.536265888381946
Pd 4.786342224227643 4.380052686982954 4.868074525522397
Pd 4.648255799746359 10.532899836888062 5.760308364322617
Pd 8.44399801294194 1.7079883213674656 4.545630200897587
Pd 8.185848743286362 8.287527804049581 6.322407208883495
Pd 2.7745948498419657 4.142790246539141 6.465960011479692
Pd 9.570894949286942 3.0764254639421744 6.6163818230158515
Pd 8.92454184966984 5.7104648392511494 6.531243639594973
Pd 3.7990782505465575 6.6548350404411165 5.906048542953757
Pd 6.276609988450426 8.716544157424428 4.286837557430247
Pd 4.758829593419417 2.0715646858301526 6.357107975933505
Pd 7.137647208450715 3.7284575219860825 5.755524982425757
Pd 0.9615031793812863 2.343189180620339 5.883191289760396
Pd 0.30380696132755297 4.970537512101307 5.620759617983162
Pd 2.8475264787096823 8.841482457610589 7.0318664117726195
Pd 2.7084962568206374 2.068804772989009 8.094153074443007
Pd 5.577502236376972 8.492419139363001 6.975195682618656
Pd 5.244347725047232 4.8083703418618065 7.425525894713574
Pd 7.271289210905527 1.6234999024291763 7.257149674835235
Pd 7.042523785336202 6.721166550286934 8.294352883827335
Pd 7.689717135420562 4.053874547312413 8.43125716745189
Pd 0.6811375271651243 3.952274007700652 8.13703221913638
Pd 1.7272680217928338 6.415590864739338 7.633969628985933
Pd 5.2856101863326845 2.6484738197183986 8.91884946094009
Pd 4.197356165453178 6.986538992737521 8.70064818646366
Pd 5.698150183639739 5.144520483056154 10.035275600171392
Pd 3.149094059447535 4.516223018119926 9.189196706234217
