51
Energy = -221.52271091 eV
Pd 1.8349870767483136 3.6985892283652775 9.555568028795026
Pd 1.1388704093131325 5.408817264751176 7.488663446697714
Pd 3.235126951751641 5.8404113504091395 9.119137649003914
Pd 2.8027187683266406 3.4467313426838606 7.182960848403964
Pd 4.565139644818539 3.4962098818167786 9.655034906391384
Pd 1.5397886715915998 5.781691293496437 4.760217652586766
Pd 4.315594318247962 1.4991149569458604 7.841046193427461
Pd 1.1507239755987861 7.906628896416903 6.408743835849149
Pd 3.6393149436094205 4.225060062152512 4.9062771667165075
Pd 3.463061494133849 6.512508806596042 6.508834785874239
Pd 5.465188392445401 2.3724786759784458 5.579389963531681
Pd 3.9207618665582773 10.386573677293061 3.8557126504332015
Pd 2.904877771029272 8.325328508749397 8.451109724502206
Pd 3.0068483887791206 7.971843037358896 4.379282724776787
Pd 5.538177751461954 5.892361466004544 10.362310228224432
Pd 7.2707191295801294 3.9075411226397607 10.346744810810815
Pd 5.7258888591251536 6.158509742779943 5.10431534174531
Pd 5.1537171215489455 4.640094452553645 7.329201924536579
Pd 3.9644535917728496 5.956423343102834 2.893240801025766
Pd 6.665647808481371 2.5615191961145793 8.129777450546014
Pd 2.9987439675277647 9.873520291706647 6.339150233262629
Pd 7.448929120087513 2.0229234138703447 3.722813300449661
Pd 7.920836965027622 1.3157401043700125 6.197163903899344
Pd 5.7826602454508125 4.044088215416928 3.4140990179227737
Pd 5.448687579140388 7.2735353502270295 8.159752681994783
Pd 5.0436811293767105 11.577425071710454 5.999136646396251
Pd 9.783092286501859 4.795741172073377 9.534111922462198
Pd 9.179645475026048 2.9790225925896725 7.775076783900586
Pd 5.380193525121172 8.71821467336466 5.843702698243054
Pd 6.608315897258258 6.19523013408804 2.073859276655177
Pd 5.050169163296876 9.93991544527901 8.230580444725748
Pd 8.411620273126442 4.308175932567717 2.9854467771821556
Pd 5.38911406603915 8.213728471723584 3.200825129949236
Pd 9.682197043914899 3.0739245175049117 5.043713728007963
Pd 8.037930731433221 6.687611449023944 10.498515259914445
Pd 7.418452257483792 4.210620594956915 5.778297195827054
Pd 7.505772182650619 5.428912299676304 8.224464125018576
Pd 8.205628891298435 6.653742819816713 4.236565159312269
Pd 6.57645993248223 10.480334256189288 4.053651265422059
Pd 7.716893927375822 7.52340538915187 6.629317720755308
Pd 7.277194167914246 10.444816077859732 6.780633110699785
Pd 9.763968883369058 5.255876594177675 6.624341824135052
Pd 9.271595123743582 6.400643394607113 1.6644328488662936
Pd 8.756414250668465 9.299437586764919 4.883660967830049
Pd 7.90865652827915 8.664128815824247 2.4269331042947306
Pd 7.460771543025913 8.80559363559123 8.949734060175274
Pd 10.598081954732434 5.53241126034089 4.059607770005229
Pd 9.735551634277586 7.249453118886394 8.485191891792665
Pd 10.530828715296197 7.609355389355773 5.907682902416992
Pd 10.485853740374624 8.138519656674227 3.2726372149655387
Pd 9.65598805882179 9.646468374338271 7.434939917122098
