53
Energy = -230.18981388 eV
Pd 10.872259530424403 9.44674899861957 4.989664226468485
Pd 10.983374801524327 8.898155267117385 7.71923719788122
Pd 10.757671638546032 6.952376684187424 5.772765585890759
Pd 9.668551130836615 11.12842303980869 6.630069037744182
Pd 9.0005009783507 10.366221060263356 9.078201308269907
Pd 9.327740465058671 7.7690961682682715 3.585175585552632
Pd 10.9122908313838 6.076890726147006 8.444452327834231
Pd 8.942060205286785 7.788540349244706 9.143045862538193
Pd 10.889517982700726 4.3705858969958395 6.3033390991110645
Pd 8.671185757638794 8.445258292916426 6.553431349828783
Pd 8.23071848806822 10.07349821461206 4.5465066497910565
Pd 7.139927426210946 10.42118978553831 7.170176228379222
Pd 9.010621629210343 5.264378368640209 4.503678965904517
Pd 6.595014691877264 9.14028620528393 9.587029259181461
Pd 7.668862835368788 6.032474467984724 2.387063583889158
Pd 9.70149335785631 3.4764586558881665 8.51393096551199
Pd 8.703784308966652 5.39019300798209 10.103987055723252
Pd 7.729055099944769 7.50205058830491 11.446727672330937
Pd 8.65976332021175 5.772195686839063 7.128668393257561
Pd 6.473129588227141 7.11797336449282 7.767360219705947
Pd 7.113880655656818 3.4986263920595815 3.6889345986695568
Pd 8.507072983405262 3.1553310278130917 6.039882500634011
Pd 7.046200094217148 7.186482177520253 4.960661614018537
Pd 5.68325887956411 9.484555551749414 5.093649104523219
Pd 6.8610164660106765 8.634500199080724 2.707840264053228
Pd 4.8172045993595 9.361992621576853 7.547405775287011
Pd 7.038302397365248 4.190710019690282 8.421683754672362
Pd 4.557611157043518 6.892306560214845 5.931774662499021
Pd 5.120576188287923 8.021251885091266 11.499308703163608
Pd 5.4270264437794165 6.832825090580467 1.155347153467186
Pd 6.0038993104618195 5.850714168306363 10.217667025905701
Pd 6.047314711761632 4.2041312517708365 1.340338228062024
Pd 6.642194159433403 1.454203821771396 5.472747134786786
Pd 7.5647138070311755 1.6269151351955682 8.044386250450357
Pd 4.291450219539207 8.072519757991598 3.3353778251915793
Pd 5.306036397951155 5.592782291982694 3.571655576427687
Pd 3.9109076502087996 9.832911489218574 9.9550336254577
Pd 7.939242865523965 2.7538284520558265 10.469186532788301
Pd 3.9709427462271565 7.286971641412962 9.21466690409509
Pd 6.320568617866278 4.81207642543284 5.996456634891608
Pd 3.063812635099123 9.063130212234237 5.563778019708694
Pd 5.245550924480426 3.200998178630241 10.02029680266723
Pd 4.633789517003231 3.116966883737748 4.811779011029151
Pd 5.137751754788661 2.5099483518115933 7.389617481933626
Pd 2.2003158583245654 8.91958467003241 8.121367301758461
Pd 4.461212998115583 5.0294673176623474 8.107432096376389
Pd 2.9773094442472425 6.204109066914771 2.0159530936698
Pd 3.6967916505259533 3.7003692094492218 2.421581339887006
Pd 2.315192412680523 6.36666908321622 7.10151783846673
Pd 1.7351696905725815 7.362601073524114 4.016532635799674
Pd 2.881452766791017 5.155526124261482 4.6194250692284
Pd 0.6088495818701011 8.18399473373012 6.199523647940642
Pd 2.7909227065865507 3.605090986507584 6.713217422353805
