54
Energy = -235.56878287 eV
Pd 2.7811844845977856 9.039780000897176 7.795630130396487
Pd 2.6863029766599156 6.680961920467455 9.418375423198576
Pd 1.2476180000351635 8.649367535550056 5.662077305708039
Pd 5.4223947816648215 9.680805103254324 6.9758058763944035
Pd 4.943299851643629 5.394732139823486 4.66736653217237
Pd 2.8586851897985976 9.083475353798494 10.503378797113943
Pd 1.5585616023739453 6.43898691172733 7.045154651054499
Pd 5.027995966144663 7.773187888582693 3.2554869509624003
Pd 5.78202890849506 1.5108648179261206 4.216437115555731
Pd 4.61678421851939 3.063334053057769 6.068832997057925
Pd 6.648521562147757 1.4795746203618791 6.6827810067852775
Pd 6.955848914588459 9.886557272343284 9.115747298220013
Pd 8.093450899553039 9.659887126380935 6.663393557817198
Pd 5.880519227826307 4.125266281553501 2.4196881808409687
Pd 4.945987137845901 5.268846302242924 9.948248988417497
Pd 5.711544815815494 3.1309866343893935 8.56037525679566
Pd 4.0981314630514465 7.081093499865004 11.655611636650526
Pd 6.088861027081731 6.493631960011216 1.1625298790680672
Pd 6.465567854499541 7.524598533789464 5.713046565028807
Pd 7.168087626325912 3.6654724731872164 4.98551864755086
Pd 5.439336044952208 9.395284817242368 11.298480250949318
Pd 8.247870318816478 3.431112366337109 7.454046567801554
Pd 3.463278603413581 4.667083993581215 7.842737612177296
Pd 10.408749061739234 3.9344295388845936 5.933714754886986
Pd 8.153822637609524 9.189226197196232 11.359745511698026
Pd 6.687080560823331 7.031458725115032 10.950761835164528
Pd 7.552257114728431 4.930388723781892 9.567670655175604
Pd 5.077823746381105 7.829705533191515 8.93935937739428
Pd 6.142182778203056 5.2995264649069656 7.148288577593841
Pd 11.998957138569754 5.965631146003827 6.80205000123478
Pd 7.294065765177479 6.116212486189111 3.5382646778615987
Pd 11.451323644909525 7.418003579385966 8.987749941174199
Pd 7.776272906685391 2.377706836151004 2.62646353345023
Pd 9.851277888836046 5.373903361003059 8.242757722318567
Pd 9.225862957649753 6.908204967426317 10.334362439204039
Pd 4.046122782256875 7.019483003606502 6.580098981837278
Pd 9.369206430077742 4.331446372873694 3.551477989618786
Pd 3.6758271006507512 3.141203736136483 3.48751167581338
Pd 2.4627519988610094 4.547903209650531 5.371756768718263
Pd 8.540940029180463 5.8159635033850465 5.910887732773932
Pd 9.459052970661988 9.199651175911086 8.970427673006895
Pd 5.201874251498609 1.7390271011976277 1.716761311940437
Pd 7.675500292889586 7.320884560580546 8.139351435896861
Pd 10.7755387486228 6.415490985160744 4.532408902350957
Pd 4.417054808462933 10.700477735011827 9.169627374351697
Pd 10.129821213130775 7.9154872219966785 6.711087281969958
Pd 2.612589638898075 6.9197631551221885 4.219227575471665
Pd 3.686823891708148 5.583267786118674 2.240632938983993
Pd 8.157842663925793 4.738168025824378 1.2194866289521096
Pd 8.786285786813435 8.314832391938031 4.440706180135761
Pd 9.490191592488928 6.84792786436788 2.25938005995792
Pd 3.7385623301174213 9.255306272417132 5.05402737916452
Pd 7.364167570558845 8.559037937416916 2.1963420691964366
Pd 6.402357304170675 9.818855609163682 4.434706308652348
