50
Energy = -216.60179302 eV
Pd 11.20114093238969 5.5980159786121755 3.5982310557686144
Pd 9.09939235625528 4.811590791608663 2.0300127139038993
Pd 9.850714484877825 3.346740776084694 4.124548494323565
Pd 9.417254592799031 7.417103481951694 2.647909563238397
Pd 10.605292381360373 5.380649112752347 6.416428823938567
Pd 10.677467340093044 7.774672959581685 5.054328465325606
Pd 7.6034852271459465 1.9265463846692574 8.077903274110302
Pd 10.356942657305774 7.8162756894538985 7.709633745237211
Pd 10.33694256939597 10.152552258932078 6.0930570123615855
Pd 8.66213224590555 5.752261642182875 4.66295466024848
Pd 9.67013317874363 9.890718573554116 3.5371056297931402
Pd 8.632075765000238 4.339419496226269 8.913695343240144
Pd 8.515755265741394 3.654974867014822 6.299684795265881
Pd 6.986352134604809 6.294119357320658 2.5835240508898845
Pd 7.125295148461124 3.7922999488117357 3.774012095416962
Pd 4.9782037573810864 2.189932769843604 7.9435392741524735
Pd 6.390128221126104 2.080913509880034 5.664847990208502
Pd 6.354837663900976 3.2654612228426405 9.994611294756007
Pd 7.203442710184487 8.99076873683603 2.9340516498729285
Pd 8.078406151255946 8.223832770995438 5.285030763710521
Pd 8.181417201476492 6.42227987242172 7.297911874257683
Pd 8.386428876064931 7.791108504776017 9.639561176068366
Pd 7.74912488761462 10.813506134351439 5.27734030072821
Pd 6.333808029267487 4.503154422936918 7.389960698137848
Pd 8.315179355419387 9.492956393602691 7.592243726191446
Pd 3.4765705907573112 1.7597493469588463 5.691253188196585
Pd 4.582508156580215 4.092920007072346 5.6111652542210875
Pd 4.915935924613116 2.2786910445803334 3.4315079618025357
Pd 6.111646438067278 7.989655003826802 7.997856529741477
Pd 4.8467412353025585 7.655574292044897 3.0890475189115327
Pd 7.095253522625693 10.243177616905964 9.765657581431245
Pd 6.489423659349453 5.872564359285632 9.659011562231361
Pd 5.5812071395153025 9.152999832724309 5.157547983915728
Pd 6.044183420211547 6.331270784230647 5.271379152364676
Pd 4.796238412176159 4.925968497285155 2.9696841772845604
Pd 5.921915795954265 10.672345101022838 7.3193030178673295
Pd 6.09731332729369 8.119088702168199 10.982621543338555
Pd 4.128760262500917 4.474719362895989 9.048525284872303
Pd 2.4152069503176965 2.7128456055526593 7.912104505168738
Pd 2.5799083979264625 3.6408690069365175 3.966189721987453
Pd 4.11372540007306 6.382303420704367 7.141040838382698
Pd 4.508184608377408 9.668415455161076 9.458416726616537
Pd 1.954637687135636 4.689812070578976 6.351678118438938
Pd 2.970488855220448 8.890175967494775 4.502621752932323
Pd 4.029433593693115 7.038999976970698 9.751414409550646
Pd 3.1434956944080805 6.248842677450718 4.578041926097318
Pd 3.737468125982936 9.049464283661546 6.991967420099636
Pd 1.876492898318074 5.856168886924602 8.698810257918154
Pd 1.6509021106688637 7.4283949654639585 6.474795991885305
Pd 2.0371828962337584 8.594020374755926 8.929494114651263
