54
Energy = -235.0378934 eV
Pd 10.720724145911184 8.339820971068304 7.441711510288867
Pd 6.492521582268875 11.661260767456515 7.441407947504968
Pd 2.6711924179596487 9.537947093478577 4.977742074839885
Pd 9.397143886736492 8.235021351517739 2.7186514247177254
Pd 4.940370400687624 0.6429633931711919 7.5526067674618105
Pd 1.936329858791599 6.787738115799733 9.264056342167438
Pd 8.328632945269103 7.373674361739622 7.436070658800028
Pd 2.4915190417462685 2.232774680614174 3.9103749340626415
Pd 4.200218845835802 8.281487072828428 9.241026462170522
Pd 5.8227864830126626 6.114026027448554 4.707591049158839
Pd 4.832839080712845 3.6486765907690075 4.569185848697826
Pd 4.440702708969978 2.9700141748982194 8.913483654152438
Pd 6.205981161308025 2.7228929312064554 6.567121610033812
Pd 10.872062943059554 7.164775934767519 4.96608911716551
Pd 6.593230075025653 7.051963629596816 9.981328448647226
Pd 7.510659139921324 4.99033331014011 6.417459430196744
Pd 3.6222644482636155 7.192663293777044 5.87879913280049
Pd 5.815317932079008 4.98896356933429 2.149283667868195
Pd 6.599975397468431 9.386401804445459 8.76400836094437
Pd 5.0854915516510735 8.829456847659086 4.238826026542801
Pd 7.028223977543932 9.230184006067603 6.061981052061401
Pd 9.625253383007008 9.460677517190232 5.202225347140104
Pd 6.982510571099181 1.8588606049916208 8.895473876384608
Pd 8.897430910210755 10.338978536172887 7.699215603890104
Pd 7.518453176231717 0.36540580936911826 6.707662612968542
Pd 6.935599801070774 1.232074613875562 4.2763125687312495
Pd 8.846157271039967 2.4717402068911056 5.713841840655635
Pd 6.643616639826239 4.541521600587151 8.934548721672575
Pd 4.58960441613276 4.883599306058326 6.875259049040486
Pd 4.5412376317332654 9.785511016452206 6.9390367405324485
Pd 8.962162034616306 5.793027581348314 9.472945269808863
Pd 8.449125969243278 5.709988234261233 2.503405774435175
Pd 8.226993232729995 7.105956061589513 4.801633218172788
Pd 5.061910194394823 2.2414320581234786 2.466512368755176
Pd 9.002236334616395 8.495474713703253 9.716099625610257
Pd 10.291152206524917 5.617487009006698 7.128323092289209
Pd 5.7449639973668045 7.128616081701157 7.419385873647555
Pd 4.494487056203047 0.8319728342239529 4.896846955908514
Pd 2.3791947043696275 4.73583826585433 5.116878662849646
Pd 3.2348703653073216 2.5077838229666973 6.515451765092856
Pd 6.635346704343669 7.630218611420957 2.459947634364401
Pd 2.1692045345514575 8.76472187374476 7.500948829489329
Pd 1.171861582718918 6.46243641869984 6.7364053447746315
Pd 1.6737289858525706 7.140730967133234 4.127888082842557
Pd 5.581235597201502 11.319110329486962 4.921708173921461
Pd 3.9910727868655584 6.872387572019431 2.94890912484856
Pd 8.969655165837079 3.498779119250044 8.119893596962362
Pd 8.221245029576574 11.723989601382907 5.431487346191763
Pd 4.312662874947944 5.632673595067517 9.44933151709228
Pd 9.72940768466034 4.780532435572187 4.696354326597559
Pd 3.2223557255139568 4.412893890472369 2.579702693270032
Pd 7.3903429124791336 3.756568884764429 3.855793348379177
Pd 2.2730210681992276 4.414274294957238 8.057851772829224
Pd 7.507273446158882 9.93412151543686 3.5328978607196224
