51
Energy = -221.45738476 eV
Pd 4.5102327758654415 4.881971304585125 0.41977722990003546
Pd 7.06894312304161 3.9641842441893895 1.5610817657509044
Pd 6.61307375351824 6.688615545941462 1.0968423618315755
Pd 2.4026819406398463 3.2630290536625486 1.191020679154736
Pd 9.097357843340175 5.836079096068179 1.69343275767002
Pd 2.3452385245004717 5.65174385226558 2.2105621133316684
Pd 1.8480079486892695 8.14984251174243 3.066631014331457
Pd 4.752781561078032 2.5710290921810595 2.0163756165795768
Pd 5.129069683989905 5.3483359703807 2.872815568449878
Pd 4.077608202656496 7.524868407704432 1.6014141232329835
Pd 6.981160454128384 1.3272536984600896 2.8797267961394226
Pd 5.988374027512363 9.382939119470581 1.5730159531670447
Pd 8.84782902520577 3.219466451903091 3.5324480537348855
Pd 3.352935358791921 3.9173121757898985 4.117865511780568
Pd 3.671138821028853 6.728881837130595 4.549092397791252
Pd 8.28161629263836 8.335415798922702 2.5948956941318984
Pd 9.9998624922242 7.0196804619545485 4.176705170499822
Pd 6.234241037255159 3.4837872598131545 4.1468607428052024
Pd 0.8211558802116761 3.7254182551647133 3.344764094966759
Pd 1.1390819660933569 6.1590126185085206 4.628700945229115
Pd 5.975383076022443 7.645156690147378 3.651119842639387
Pd 2.501388140028934 1.48387216458211 3.201698710539315
Pd 7.8014903117383465 5.697133698328038 3.8908988747090976
Pd 4.0440031615048895 9.492098567769444 3.6784402960473908
Pd 4.77329662082614 1.2603628958170172 4.519773118349389
Pd 6.707874171708386 10.15066469105833 4.070472268686331
Pd 2.6501453531385852 10.15066469105833 5.475767544699059
Pd 5.290918446217313 8.794171359532076 5.993235707317817
Pd 2.6595562665293433 2.41020154457385 6.120496818306319
Pd 5.902442421787291 5.833163451307 5.808374171425579
Pd 3.1876270136500273 4.955966401191267 6.6083086824923365
Pd 0.46771951924268557 1.5564581555507733 4.945983189289713
Pd 8.94624537651408 2.277323208119638 7.731115884594282
Pd 2.3729983300541777 8.455448329477441 5.8750034847773085
Pd 0.5006389045734642 4.0343076823141155 5.921848862749532
Pd 4.671068835538559 0.779743034923378 7.212799166456944
Pd 8.098191969389863 3.986935566926939 5.971724271607226
Pd 9.12546323764953 6.264723858045206 6.585566428455369
Pd 7.891407847955343 8.188753169408116 5.422133920298478
Pd 4.039779926683794 7.225910898148287 7.611349667938897
Pd 7.1344227947285255 1.4463600440298636 5.83000909296653
Pd 6.823502223118646 7.273047345194443 7.775879260713935
Pd 1.1611552041800994 6.35445494222596 7.341157633408589
Pd 2.116988516077404 0.8639416929621487 8.106318253312217
Pd 5.234538924245647 3.3238887505337242 6.487446225928472
Pd 1.3072027525032255 3.618697676123614 8.320883558565752
Pd 7.923855275376113 4.753130150784035 8.429798513255802
Pd 6.480596889625643 2.397487626719564 8.557634616899499
Pd 2.9061093199315464 5.486636001313466 9.330871539483056
Pd 5.377956332180276 5.084889201379659 8.55918059716549
Pd 3.825704061468976 2.892940092751406 8.752743143040348
