54
Energy = -234.64828171 eV
Pd 10.9497758492937 6.865588296059731 2.8207004975920515
Pd 8.9684174344047 8.404488703424141 3.487242479580763
Pd 9.306780445563568 9.949281081368179 5.556163381200423
Pd 10.669711168929682 7.523496746576321 5.371489432393706
Pd 10.754879825256628 6.23763502441476 7.715008528196966
Pd 10.491593938213533 3.539147940700122 7.704241408185528
Pd 10.22216541740561 8.83400310299749 7.848393619213757
Pd 9.566969385758787 4.716030342355969 2.923724468775898
Pd 9.582210584357375 5.011570326789437 5.598007656699416
Pd 10.173207195202824 4.932558776500715 10.01048758010394
Pd 8.44617745777742 6.753577311692963 1.516321670299777
Pd 8.096498525278113 9.59985205798359 9.492285043895665
Pd 6.962542599288335 9.717003930953712 4.423039379067983
Pd 9.096351317244089 11.286709026003143 7.787546641538875
Pd 5.523035161318815 10.005008605414373 9.643318429540798
Pd 8.872263896277845 7.171009471034284 9.463780348070241
Pd 8.295764683414998 7.508403927212539 6.51122457413274
Pd 7.7641882325013025 3.4402207659955604 4.370682441839643
Pd 7.673949809037981 6.2005569255152615 4.191038401695539
Pd 8.234247824956627 5.1058701685901635 7.912092257472029
Pd 8.659202785990088 2.7964005547941575 9.52454130790945
Pd 8.045061174366415 2.6940945709122 6.847619422649128
Pd 7.1644457952715035 4.452785553763405 1.808314334498786
Pd 6.955750603371197 9.80665682804471 7.127723339906474
Pd 6.94914287499964 9.004080187919765 1.8407866102270505
Pd 7.4727899930248105 5.1539844309675535 10.522460321857794
Pd 4.762996129807051 10.608762712694462 5.494848374800742
Pd 6.291602592748029 6.984307310712703 8.182481136348546
Pd 4.676243779359206 8.936020642972016 3.3020465107282977
Pd 6.144287175539364 5.001347816715844 6.16186613650822
Pd 4.473484902584686 8.993001907367699 7.515562429590705
Pd 6.503239695221921 7.707797699702734 10.691359419174047
Pd 5.817564925289474 6.686031155955173 2.4386446757175424
Pd 6.843720330315708 1.027147290411659 4.9882618881138985
Pd 6.2433896307858205 3.510252242755574 8.807954362051857
Pd 5.740598940243576 7.593389569044615 5.48148708328216
Pd 2.831118131929991 10.241262547207091 9.420852369008218
Pd 6.287738539378991 2.09489504062548 2.6019115560443824
Pd 5.243531937385109 4.37102747660973 3.6522143190579603
Pd 4.881495923546174 5.499162453162571 9.933286657173737
Pd 2.444074562727805 10.724345553301731 6.880669691856618
Pd 2.9536709699194224 8.625037525746027 5.356020329921343
Pd 5.391190175544494 2.4453272573601996 6.609861202037817
Pd 3.77568031357278 3.8637534777673226 8.139465387217061
Pd 3.712873334117002 6.475363901460402 4.09140795334081
Pd 3.931967784956445 6.338084644476925 7.116228962766683
Pd 4.280523021350945 1.9413231554032375 4.335040926211654
Pd 3.864637476245172 7.866072165097898 9.83129505370198
Pd 3.2842553636925005 4.234732818381298 5.376857915836256
Pd 2.2402665969504856 5.880097813248512 9.101309793549458
Pd 1.867613679065834 8.200533451747573 7.845519434616991
Pd 2.7528536129375074 1.936633165811226 6.550239667747699
Pd 1.618420349870369 6.386426446106977 5.866469417981323
Pd 1.3179144587834566 4.17008400896243 7.2286713123850665
