52
Energy = -225.60673602 eV
Pd 9.134759950132844 9.581018684826734 3.9517564535873912
Pd 7.256788282601277 11.264859034758109 4.802843871475026
Pd 7.070613193690132 10.240434931189409 2.3417590311599796
Pd 10.067749112897975 6.998904006229599 3.784457646599233
Pd 8.147911344560445 8.050556581954252 5.846845439828663
Pd 6.176360590904258 10.09852852669708 6.87945636026532
Pd 7.773791699463205 7.672895458393423 2.6565899748120803
Pd 8.93780381060689 10.269098468222932 6.814267556677186
Pd 4.362412306797455 10.335909496209178 2.9204576332789967
Pd 4.580021474576294 11.407195268012 5.259871456310832
Pd 9.873496501508027 7.757957522480855 8.102157199268609
Pd 5.671407601605242 7.141981305583889 6.613212656804498
Pd 3.6081511723728905 6.3169880984514455 1.5451864916803708
Pd 3.0455640639561694 8.18430293972747 3.6013967744493436
Pd 4.7916373592008075 9.042541096076464 8.823747263965771
Pd 8.758162704943283 3.7111044500525443 5.363849343123943
Pd 6.24329198430089 5.629736164973652 1.7745689314465334
Pd 8.833013159247042 5.110107968467045 2.3985342047821527
Pd 7.861563790949146 5.946938269461007 7.532389148701734
Pd 3.761264383292254 9.002429107309833 6.149608144955118
Pd 2.0864092931156963 5.631913622508548 3.590823616440393
Pd 3.032286512152302 2.895298813155281 8.962019739221304
Pd 5.372628806631885 8.220824033356596 1.7355220799461053
Pd 4.018506196769849 7.342818464438295 10.958870872683306
Pd 4.4084171496279865 4.6806878717691935 10.433093743014924
Pd 4.2348360793883115 4.135549018093908 3.0600387500674584
Pd 6.428418443901819 8.598231324232327 10.998989589269739
Pd 3.2555776165349064 6.956861250170132 8.400759588266569
Pd 7.464040316576125 8.647418485746392 8.536854911349195
Pd 1.8590423852233628 4.820418817310902 7.6353816252405
Pd 5.99863658996056 8.911325243361036 4.4605631499399125
Pd 6.313187603975839 6.029884405122792 11.813675693990092
Pd 2.949375336872566 3.8151299859652146 5.439552589571533
Pd 5.885332225380869 6.571428904784218 9.223011686725119
Pd 5.036305332736142 6.533510849277727 3.966150357652238
Pd 3.0872555988716432 6.4485756199089845 5.859887833134581
Pd 4.635994896301975 4.766574672265782 7.757079017747683
Pd 5.568094724153692 4.353578771680237 5.380094969089043
Pd 8.482026636547515 6.824839775875868 10.208622962928041
Pd 4.535409779472291 2.198267899299446 6.838462317516058
Pd 7.587541840660155 5.874495998999627 4.638234352280691
Pd 7.02849917980622 3.44676220599041 7.388690147343054
Pd 6.771437742117768 1.7877484827409957 5.260987455041651
Pd 10.852796764803744 8.571754662079556 5.749143248980015
Pd 6.865722169900725 3.5030820026995917 3.269690481509979
Pd 7.377746041984051 4.454624332892155 9.882474218626648
Pd 9.585687842840427 4.005922985281225 8.082701145212551
Pd 5.594705175463118 2.503179022464688 9.475464160325586
Pd 9.04277075343097 1.5525026023245505 6.8753307362920175
Pd 10.133025005124773 5.8887578997900984 6.148510870903323
Pd 6.602656098785231 0.7291321160611556 7.7235160762083375
Pd 8.285190483516182 1.9922001907647684 9.439358444930756
