55
Energy = -241.8050585 eV
Pd 7.78136401715251 8.10359382519653 7.648140655585764
Pd 3.388274288238132 4.05782407037616 6.731272085019521
Pd 7.559645982521228 3.9806570468063933 10.07004402323601
Pd 3.2980714417487245 8.113952940664623 8.98552188026089
Pd 7.894254649076538 6.725271299728693 5.320476352142745
Pd 7.6695993986499875 6.741686641222858 10.050230444760116
Pd 7.71509520532828 10.796879907100777 7.651091402112164
Pd 7.958579059821629 9.612913674618467 5.200922509916053
Pd 9.80508537438868 10.708399357333258 9.259837551583207
Pd 7.7864912308211744 5.369123164666747 7.666984849834293
Pd 7.9618268278384 3.8375443020055555 5.235652958435915
Pd 5.372017728755448 8.167982240894268 10.713804820963311
Pd 3.3072200241245997 5.356561148084471 9.00080635333001
Pd 10.11181259221553 8.11363097847572 4.6856587171661905
Pd 3.203700000770604 6.740427117129015 11.232063225839806
Pd 7.724039422972734 2.6677978817155816 7.694061474592154
Pd 10.113085690728315 5.334895141611148 4.699241249527909
Pd 10.021729381571957 5.418028429319711 9.326903079772977
Pd 5.518688118943454 6.740755920864154 8.32289000776289
Pd 3.3951378554118103 8.021459758201146 4.342378608816028
Pd 9.819234777036394 2.7663414625404044 9.286002623760174
Pd 5.442631558927464 9.63079509943006 8.427686579495589
Pd 3.3972862538559547 5.380770594598936 4.3576074932244975
Pd 7.543865243148275 9.499551895485071 10.037448158159076
Pd 5.455373791864461 3.847596770231049 8.460670155555908
Pd 5.733115607470103 6.6987085045801935 3.5840944865246485
Pd 10.012028547945539 8.05928660834934 9.319804895060601
Pd 10.254250626384131 6.7337865144302365 7.0209085029292835
Pd 10.17951028415405 6.7125151009408865 2.4342971368270856
Pd 3.574393017137133 6.690272863166108 1.965495039078991
Pd 10.028200467975797 9.39974391368448 6.954579561699693
Pd 5.8346133976355485 9.512658301701103 3.6004797492420355
Pd 3.6705007068268265 9.322961468853757 2.0254311540541092
Pd 10.034904529739938 4.066123325947026 6.976934650164768
Pd 3.5852649551281663 10.666493607817701 4.393167708180312
Pd 3.68185347387608 4.061746256026216 2.0519138795813032
Pd 5.638045241505709 8.08801291575467 5.980113353008171
Pd 5.843179195434361 3.8972915890893383 3.628922358864388
Pd 5.877964670079351 8.077058435000996 1.2800177924505114
Pd 5.692885684349595 10.789863831341298 5.9961572209828065
Pd 3.5983058092055007 2.7346490740308655 4.438743068984258
Pd 5.886357724939132 5.302065426481275 1.2848044157742928
Pd 5.640196709677448 5.354313456645684 5.997445939909453
Pd 8.022084868643958 8.188052664592476 2.949578620098679
Pd 8.049696717412644 6.698581204194504 0.7182911236181925
Pd 5.702497924172941 2.6529008784212986 6.042558424587469
Pd 8.025935168283542 5.234519348108618 2.9653452451852984
Pd 9.784554160244623 6.7452140940682 11.702031785350739
Pd 3.169730361935876 6.7170860789759494 6.64657897322801
Pd 5.388743273375801 5.330336018726575 10.731395341822573
Pd 9.682710809717381 9.367956273378404 11.621813985024959
Pd 3.381105689521487 9.376741191005486 6.699215996604703
Pd 7.437822638108816 8.067391988994522 12.367665598774787
Pd 9.70753559866077 4.12131070029183 11.637365312934781
Pd 7.4519799863064975 5.411995458862349 12.391529180361411
