53
Energy = -230.66092142 eV
Pd 2.187729257976165 5.529039854586072 10.81470806774962
Pd 2.6179571794460377 3.3488457354300616 9.057833243757962
Pd 1.3135658681183546 5.596123843445971 8.243043938617683
Pd 4.877049871765038 3.5213270131397847 10.585974194290149
Pd 1.841492364719186 7.837517168972522 9.409753614139506
Pd 6.032247163123413 5.896738078992178 11.212046132251103
Pd 3.0065880324202103 4.51579126029802 6.625429550146373
Pd 6.371415384315567 1.5822384456600216 6.0326989028362075
Pd 4.127472108970733 5.550484653422951 9.131024036218875
Pd 5.051513291728029 3.0096748434043694 7.84651583260825
Pd 1.544367478040799 6.853418028376876 5.838809013388774
Pd 4.066122524502796 7.568380797876808 10.856436351778372
Pd 7.869424087343821 2.3155948205805914 8.175667773265346
Pd 1.956212075376571 9.42997682655966 7.174455859186715
Pd 6.843036041450698 4.573766410810623 9.094819558166813
Pd 9.086417403552193 2.0486309276971895 5.70107215801855
Pd 3.549889609863852 7.3768870798093245 7.33158425648997
Pd 6.993443926310525 2.7743048398668932 3.762405880124146
Pd 4.894795605534643 3.6335046959201316 5.01348656711492
Pd 3.90284739615639 6.114489034669279 4.689756068619068
Pd 5.828042838304819 7.784069125855871 8.605086721067018
Pd 7.615024647094608 4.078441780574682 6.2686892539717
Pd 5.502455907962391 5.517234916036906 6.883184890903246
Pd 6.654124682421269 8.502273908189938 10.960436600621716
Pd 9.416684768853699 4.583240498594512 8.317670206794674
Pd 8.378637038039958 6.530725259210197 10.084018142585107
Pd 3.77417340204114 9.619028375036335 9.235051186517987
Pd 7.851802544376545 6.6275244177601635 7.372809998245063
Pd 6.811889283917851 5.607167216547671 4.26075631071603
Pd 5.914009105906297 7.856998865740546 5.814653436401407
Pd 6.282489892717711 10.457155795870523 8.967655535751318
Pd 5.063429281356653 5.084910882207391 2.4494391883091167
Pd 8.410963904412078 8.892083593087005 8.745819685400878
Pd 10.36347438673579 7.033722886167016 8.36089240178817
Pd 7.604100193800588 4.3840172176608485 1.7613491126535843
Pd 10.737581543716995 4.187479712953244 6.101253291675808
Pd 9.328827448649163 3.9406734240006953 3.796115199145435
Pd 5.120384721419279 7.811448053961922 3.113154044546471
Pd 3.3401004218709707 8.75851712226244 4.863432680732375
Pd 4.668274228143681 10.028406746869768 6.820433094691653
Pd 9.234980820466168 6.171450274266842 5.251778209890621
Pd 7.3727738023932545 10.021868552276576 6.536111411856849
Pd 7.79974184564937 8.009569642494048 3.9763881616080483
Pd 7.020767637775592 6.977097125192869 1.5100001197095427
Pd 9.584513654292964 8.631846897022564 6.302688494946826
Pd 5.778467077916893 10.148827027065112 4.399791060455063
Pd 11.671456930430658 6.7894949843139605 6.09784544148525
Pd 9.357558421523825 6.244335686625833 2.4886114151521044
Pd 11.54831609628644 5.489117593911842 3.782357099316354
Pd 6.800767523227163 9.661343904023713 2.034923461662485
Pd 10.690110434581172 8.148303222611263 3.9177627628884975
Pd 8.747962882640811 10.325002330438368 4.221134425694412
Pd 9.273752529599667 8.805832973327421 1.7858714513874396
