53
Energy = -231.53870898 eV
Pd 3.069010581462498 7.927113477172529 8.788979375906992
Pd 5.843867213590237 8.567335914596583 9.724455046125108
Pd 4.8930960749299555 9.65005353507929 7.599123156448375
Pd 2.7836498606916993 5.122269838487249 9.0317735504499
Pd 1.985623296025774 6.306778383607305 6.769713741813687
Pd 4.669254459865824 6.294660018186392 10.399459923581714
Pd 4.8454442005920715 6.632275167796806 7.404492950159417
Pd 4.231868240412172 3.7059550665432677 10.844133960661834
Pd 7.442497692225389 10.384081275850328 8.373100475347686
Pd 8.575696955641526 8.238631687869916 9.783227721105778
Pd 5.681487393299246 10.594228659479876 5.328486390376497
Pd 6.93584487804776 6.987511647443132 11.627333253712251
Pd 3.036915436397227 8.64222870959327 6.156231124003694
Pd 6.933966203929528 6.206156217094644 8.981767547727882
Pd 3.0536173391877184 3.8294704910597437 6.750366656882016
Pd 3.7000953533958922 9.556793076393445 3.744634093470618
Pd 2.164813878389224 7.195253500477295 4.081012886513371
Pd 6.748085908422294 4.3012052205922355 10.845239055530703
Pd 4.054791969024095 5.7322515196636346 5.0363316445242905
Pd 5.304089870926717 4.19660627450136 8.27508586814319
Pd 7.213140653117711 8.116048224058263 7.191769239678763
Pd 5.448074025469086 7.970993505920489 5.188276166892756
Pd 1.5375142788381864 4.563010892999439 4.662793829516616
Pd 3.258841401914371 2.290896866078767 8.914801565447641
Pd 7.409479178110375 11.535773184966338 3.581362007510881
Pd 8.24742883603934 10.218181358472965 5.693548254308045
Pd 7.309010055649289 5.609640321163444 6.3453326273691495
Pd 9.732362567223703 8.791451274774948 7.458131488776416
Pd 6.270883587617071 9.225112651459975 2.92969230036188
Pd 8.929547119915124 9.548763520269977 2.9122687854988056
Pd 6.17367665859269 2.008573003596976 9.197879701846327
Pd 9.047064696338607 5.655920751551417 10.62325230424986
Pd 10.612611986374562 9.283387942207412 4.953541997309665
Pd 4.542578564584152 7.28884533238492 2.669589312019565
Pd 8.045430122276976 7.7236409005134625 4.646155044019942
Pd 4.704699463904269 1.6281381306676377 6.860726845478896
Pd 9.483769385415824 6.1742945843598935 8.060937565659035
Pd 3.4794464954132294 2.6176229952382104 4.42153873718876
Pd 8.214488129198543 3.842307264588703 8.643024451238862
Pd 3.343398013665343 4.839677914533133 2.708129378902784
Pd 5.596735656119921 3.804182787172157 5.599788248394045
Pd 6.461084305244499 5.619200026304467 3.7929960721567038
Pd 10.397513481020884 7.39464309638158 3.017135628134587
Pd 10.24696049042989 6.7036342690028805 5.666420903477587
Pd 7.392717588437676 2.2641884125526897 6.723262125147135
Pd 7.831417265381416 7.025765771780196 1.9772624296673966
Pd 9.160012935576054 5.240693201216799 3.765666148490094
Pd 5.870573317187432 1.2274940211424505 4.516368629064765
Pd 5.575824241199872 5.431977621773045 1.2028881607027764
Pd 9.41975191911937 4.092825434815136 6.223784721727285
Pd 5.5173711566236205 3.2624066804928726 2.7840514023939806
Pd 7.838992812390389 3.0733740284202726 4.228698542521252
Pd 7.849522290360993 4.181343593110182 1.7567136397594652
