54
Energy = -236.36474195 eV
Pd 6.0109339405781155 6.027126529178202 7.422489598595727
Pd 6.02761105387011 6.027126529178202 10.26022063935043
Pd 3.6942744716189226 6.027126529178202 8.903371413461931
Pd 3.660222590708064 6.027126529178202 6.027126529178202
Pd 1.4450921607366247 6.027126529178202 7.538790165951897
Pd 9.805256266351511 6.027126529178202 7.59578823595143
Pd 12.087177123525024 6.027126529178202 6.027126529178202
Pd 2.3292166607474254 10.323146127659587 6.027126529178202
Pd 6.0109339405781155 6.027126529178202 4.631763459760678
Pd 6.02761105387011 6.027126529178202 1.7940324190059698
Pd 5.303737243808193 3.8022664045395476 8.898751652217477
Pd 7.908188761134423 4.663326522193405 8.888109888751439
Pd 7.908188761134423 7.390926536162997 8.888109888751439
Pd 5.303737243808193 8.25198665381685 8.898751652217477
Pd 3.6942744716189226 6.027126529178202 3.1508816448944743
Pd 5.303737243808193 8.25198665381685 3.155501406138925
Pd 7.908188761134423 7.390926536162997 3.166143169604962
Pd 7.908188761134423 4.663326522193405 3.166143169604962
Pd 5.303737243808193 3.8022664045395476 3.155501406138925
Pd 5.2946342637516155 3.784174034459698 6.027126529178202
Pd 7.93445750870383 4.659081690454154 6.027126529178202
Pd 7.93445750870383 7.395171367902252 6.027126529178202
Pd 5.2946342637516155 8.270079023896708 6.027126529178202
Pd 4.615328855026779 1.667503028705009 7.530524881656952
Pd 9.729483706379712 3.345658755160264 7.528263628702131
Pd 9.729483706379712 8.708594303196138 7.528263628702131
Pd 4.615328855026779 10.38675002965139 7.530524881656952
Pd 1.4450921607366247 6.027126529178202 4.515462892404508
Pd 4.615328855026779 10.38675002965139 4.52372817669945
Pd 9.729483706379712 8.708594303196138 4.5259894296542695
Pd 9.729483706379712 3.345658755160264 4.5259894296542695
Pd 4.615328855026779 1.667503028705009 4.52372817669945
Pd 7.196042129731948 9.61350335817071 7.587919583474122
Pd 2.9745497218862558 8.245618821589199 7.593137096152403
Pd 2.9745497218862558 3.8086342367672015 7.593137096152403
Pd 7.196042129731948 2.440749700185691 7.587919583474122
Pd 9.805256266351511 6.027126529178202 4.4584648224049666
Pd 7.196042129731948 2.440749700185691 4.466333474882277
Pd 2.9745497218862558 3.8086342367672015 4.461115962203992
Pd 2.9745497218862558 8.245618821589199 4.461115962203992
Pd 7.196042129731948 9.61350335817071 4.466333474882277
Pd 3.9531393944396394 12.42428213 6.027126529178202
Pd 11.478125719535889 2.094984486009373 6.027126529178202
Pd 11.478125719535889 9.959268572347028 6.027126529178202
Pd 3.9531393944396394 12.424282130000002 6.027126529178202
Pd 0.7992474251000332 3.849392789650913 6.027126529178202
Pd 6.500233078769428 0.375027919509345 6.027126529178202
Pd 11.548014165379355 4.7295700819312305 6.027126529178202
Pd 8.980975085999905 10.869707680403597 6.027126529178202
Pd 2.3292166607474254 1.7311069306968152 6.027126529178202
Pd 0.7992474251000332 8.204860268705492 6.027126529178202
Pd 6.500233078769428 11.679225138847057 6.027126529178202
Pd 11.548014165379355 7.324682976424995 6.027126529178202
Pd 8.980975085999905 1.1845453779528075 6.027126529178202
