52
Energy = -225.59497427 eV
Pd 8.382778213140735 10.544973073333352 9.678064676606974
Pd 6.14236959993408 9.194934691535698 10.815306974713288
Pd 6.107243723362897 10.458484413158839 8.44256143387039
Pd 8.333982511595877 11.17601341579778 6.976215223796258
Pd 3.798712757152769 9.55251113961633 9.450129526411452
Pd 9.89179909853094 9.22687545170189 7.83768117263311
Pd 8.227386317812606 7.9225077217128765 9.506424741914826
Pd 4.004774266093182 7.229998283382082 10.772302969769653
Pd 6.636912514183524 6.5536316457606105 11.130350446681494
Pd 5.923847535257992 11.1285523421205 5.876601639799776
Pd 7.329769333700866 8.743110347669196 6.7274191750677
Pd 5.748151206998618 7.612525903407136 8.647321854298953
Pd 4.3418352962765745 9.158982860590774 6.879341470702754
Pd 8.03851772112157 10.080377949939052 4.44887483138235
Pd 10.245093856130346 4.53286367894517 7.907910474047763
Pd 10.765895363562048 5.670514454978509 5.520544460279354
Pd 9.025187298996318 6.781165478241543 7.294827247847964
Pd 3.101372781999691 7.264484724076653 8.176893779163517
Pd 5.080485301848658 5.167034639454111 9.531233162437179
Pd 6.5846500686937635 2.9685882001437722 9.90056255307164
Pd 7.890811222149563 5.236887118675109 9.152565596598917
Pd 9.925347599742953 8.2824746458026 5.308727010639344
Pd 5.426579680839732 8.902742066895254 4.576929120687171
Pd 5.93618572950294 6.537097645228095 6.25783202490902
Pd 8.478524956092798 2.62762843987372 7.958813202533003
Pd 9.945744063209503 2.995899411161297 5.671211155231878
Pd 4.120780975979329 2.774776622325163 8.690469477997686
Pd 8.162225994570406 4.925836331530568 5.753479714473587
Pd 2.4021321525079187 4.902493711129984 9.21125200648219
Pd 7.652965957613668 7.261207057220878 4.411104958048433
Pd 9.43584101355874 5.717929666988641 3.289972537189262
Pd 9.33909883943675 8.371246392703027 2.650298242214066
Pd 3.3371099889622626 7.223225284193075 5.2997145147687945
Pd 6.304672338150372 4.009075002765108 7.384803894618789
Pd 5.313947346247794 6.467247882731312 3.4814934104167095
Pd 6.709745172703318 8.916077672143839 2.3183149297653842
Pd 3.973064594834835 5.036876908843638 7.008478789033533
Pd 4.09702279436237 8.488457240450247 2.2600733838465326
Pd 6.1206619833915274 1.2119737182145154 7.873035115249652
Pd 7.253832703752952 2.1167013689691543 5.653501484810788
Pd 2.037571223392716 3.175472403381864 7.062188956601584
Pd 7.579859153952612 6.578839955976519 1.6035046201943797
Pd 1.4437069217250804 5.819317872770573 6.622372182115525
Pd 8.268835828401317 3.383451572790461 3.5592866236996303
Pd 5.709156924297286 4.296864081175153 4.725947375244269
Pd 2.7567762847447774 6.230823337122992 2.810660039464368
Pd 4.454216901852494 2.3414867100181653 5.985565432770759
Pd 4.886148194308433 6.199409518203307 0.938791542753347
Pd 2.8101901655275268 4.419193085378011 4.7743861381104535
Pd 6.459849465634064 4.32100488122774 2.038406875602434
Pd 5.82534741811637 2.0423531719030943 3.390116364200045
Pd 3.9551167983215425 3.8885038238254275 2.5079798826633892
