51
Energy = -221.79955454 eV
Pd 9.39663219115456 9.221505642588061 3.1412987453805696
Pd 8.661677642553915 7.78846526460004 0.9656698737380349
Pd 6.246828316528931 8.82574722574372 0.975197615177832
Pd 6.948852378966894 10.474648174825548 3.060381732228954
Pd 9.357272433746735 6.4097041098073 3.1796755741453793
Pd 8.30508440047342 9.993050210854925 5.403550415807394
Pd 10.086678854184365 7.869533687169409 5.329778282112767
Pd 7.09989643118302 7.881989431786582 3.331876355777538
Pd 9.423891500411331 9.14136590001534 7.676064001366784
Pd 7.518756531211181 5.471520068652755 1.5612773404056384
Pd 4.49842252223227 9.179114472167749 2.9368817255290063
Pd 5.105618023363614 6.564215081892502 1.9343335726526993
Pd 5.663433237079215 9.617368477198626 5.352074962667094
Pd 6.844938233318862 9.792782061789632 7.647993614164577
Pd 7.536781005479011 7.379316283071772 5.866122642682871
Pd 9.546895285934443 5.089585658380017 5.400247045337257
Pd 9.930054288488947 6.535065884357811 7.601198745174033
Pd 9.915400465581726 7.755714134050701 9.983918486835133
Pd 8.01632044955283 9.612652177760816 10.051626650522245
Pd 5.892375148090003 3.5777989175852003 2.2431719960553673
Pd 4.100068827671663 9.711103683778415 7.697053772440446
Pd 3.9859209655230567 4.803969673443306 3.576698516351075
Pd 8.452446743812551 3.552982358090984 3.4642216202109366
Pd 7.489564535042003 7.324850427919278 8.489862846547368
Pd 6.773060874636522 5.324422945678336 4.266814639319593
Pd 3.085002067164277 9.002187359707573 5.253515432236199
Pd 4.842440360009164 7.102655256105419 4.5696578551255245
Pd 7.493351028115878 5.024638272767912 7.133072872340033
Pd 10.027966934171346 3.8537293169144258 7.772349827546599
Pd 8.804149798348933 5.322898440960077 9.684600548260919
Pd 7.495599461188604 7.178478545602167 11.156426018854605
Pd 2.35673761084257 6.36395733145805 5.12673776931883
Pd 5.56391638482828 8.580000452803612 9.699433887982899
Pd 4.925371806917867 7.3641582065435145 7.161125584227274
Pd 2.6767217116304227 5.573576989622947 7.5479561686463805
Pd 8.271109053148757 2.7156820983072403 6.1031866782586475
Pd 4.912698018109087 4.867712977809867 6.196701881536573
Pd 3.7513617726674933 2.222015969602313 3.4505867552938145
Pd 6.718406752308457 4.633988265507055 11.168016680817614
Pd 3.196079327017724 7.511211972897682 9.34480136108202
Pd 5.546448471226679 5.389832020224208 8.901713773545428
Pd 5.994411559906823 2.7371378461117044 4.759874792622878
Pd 7.749904394093093 3.044748290129538 9.066881627830943
Pd 2.5024808741226217 3.689912137246817 5.490157204294124
Pd 4.836185194177289 6.5103490850997545 11.249457324876373
Pd 1.6571089866929747 8.000581858453794 7.251874440146102
Pd 3.173301891775121 4.871374370203063 10.031556137132185
Pd 5.8510312096222385 2.6745498863204107 7.383410014682388
Pd 3.9468006557307023 1.4598313918937262 5.977803351119929
Pd 3.324516213796142 3.0981912570942685 7.997224910037817
Pd 5.113923526061319 2.933254002004467 9.955998979448943
