53
Energy = -231.28532746 eV
Pd 4.258555668831358 5.846140807362529 0.004804218887764687
Pd 6.128592303371345 4.026478910621349 0.8448403074671929
Pd 7.963097045380286 2.2207269747985774 1.8492413515165942
Pd 3.4298316720128277 3.521522829578586 1.1780264249282324
Pd 6.59856105522779 6.743616907905417 1.1024541759295954
Pd 1.408672225554394 8.232426502242252 1.290848557385346
Pd 5.291628952806291 1.7560960375863446 2.195216627578429
Pd 8.43469765431634 4.882790790271884 2.1122521113443047
Pd 2.15496726522778 5.814464971337768 1.717437830792845
Pd 4.026751264004397 7.97612154650156 1.765827351791084
Pd 2.5849689016662305 1.3419053759851827 2.57165602082945
Pd 8.865896002698962 7.575545098742577 2.401748357364229
Pd 4.755472415139028 5.587873427523838 2.628096025224363
Pd 6.533576116632511 3.7669932645727657 3.574229761407744
Pd 1.283077597892843 3.694509437585123 3.1344180189016093
Pd 6.416527986858724 8.87024276579451 2.7880137697457816
Pd 9.5817367906723 5.7448363072076996 4.462587078893103
Pd 9.08300248129288 3.05959054397584 4.1792522341116545
Pd 3.8041363638430172 3.392725041573983 3.8708703649996625
Pd 6.987188851004113 6.521264080747888 3.907489103447959
Pd 7.063266546666712 1.1623849490308127 4.223939651347566
Pd 1.945177200956227 8.295385435260293 3.777841090349771
Pd 0.19465327670811178 6.196696518510433 3.6230584852740075
Pd 3.910900528148948 10.057381023486474 3.4660102882379205
Pd 2.6678661830831856 5.85025196855852 4.427256666470711
Pd 4.679933948550667 7.862418982787997 4.587058725704785
Pd 5.092693576648528 5.3244141014360284 5.223226249024337
Pd 4.34230811718045 0.7567196330401001 4.581464413833663
Pd 2.8014276982036392 9.111007408716478 6.0957455020369675
Pd 1.8859244811567801 1.9004519443525476 5.164982707668916
Pd 0.6117324795624923 4.346814522539549 5.705459283528071
Pd 1.056270130111917 7.0100252322361625 6.16300311336307
Pd 7.53988806116129 4.644730323472469 5.916840473285622
Pd 6.423230862141177 7.296333395126204 6.576051998482718
Pd 5.560671960711035 2.779733518257123 5.927394964621478
Pd 3.1624878774695055 4.000510967381776 6.435352788690684
Pd 3.7817847664091158 6.8030739264763795 6.956964640603784
Pd 10.053080604287121 3.956960708823128 6.540868247151024
Pd 8.954079450511445 6.430659601012749 7.159023363743106
Pd 8.13754384083064 2.0287116922774477 6.595783168069303
Pd 6.098740410937299 0.19384738587462844 6.586913472789699
Pd 8.560482729453646 8.177085827870648 5.101817364187238
Pd 3.653625016684335 1.311461256264737 7.202483994111592
Pd 5.479413360737991 4.832342376218807 7.758885345634903
Pd 2.035503588897432 7.857731784541177 8.544142690465101
Pd 1.2802878552179813 2.570232349433267 7.724357777222646
Pd 1.6585397456028501 5.23670221088476 8.190829098281505
Pd 8.068040861430264 4.025351865891614 8.475328504070342
Pd 6.998279718436353 6.45039454087503 9.089779244186593
Pd 6.037162428401845 2.1513453886391116 8.459027935897424
Pd 3.92935637911025 6.005308280706358 9.54006936941678
Pd 3.56933559149056 3.3129616161089928 9.048040825719957
Pd 5.8918435623272085 4.201169095653911 10.268160317642621
