51
Energy = -222.16811367 eV
Pd 9.180097697712947 2.14827110349545 8.191079797797531
Pd 9.179946471938242 2.8663674349459978 5.571009532615855
Pd 8.319100382859416 4.3016219149931265 3.548366761679593
Pd 6.572454777258441 2.5539394057984612 4.587161353286809
Pd 7.29359992571267 1.0876130193002778 6.642933117411324
Pd 5.819423999434106 4.070811184253391 2.5462815934030316
Pd 3.9216133552720263 3.1561297304146976 4.336834796244685
Pd 4.9370577858155515 2.4807511867565792 6.771173948812573
Pd 7.671003086029418 5.2829883259658565 1.0783304382185688
Pd 2.788068532024468 4.071429730821366 6.849046927076252
Pd 9.535614965450016 6.538869173734612 2.7369895959550883
Pd 3.701416467434248 5.597965159250153 3.005290151060525
Pd 8.452873444765142 4.118189605156167 9.736720304983484
Pd 9.77113756800252 4.739097631742383 7.44056767397349
Pd 10.422499454747545 5.259773683661437 4.906828144409857
Pd 7.910315575093627 6.02917990747834 5.72913445625432
Pd 6.518282127743548 2.2514884912196864 9.01964893077648
Pd 1.7604523892688138 4.721825427077699 4.528717545670397
Pd 7.222407657872146 3.8608667652368003 7.055926597002125
Pd 5.502893191645978 5.062298255485026 5.112591287782217
Pd 3.825143846642505 3.161348962684287 9.14257159310914
Pd 5.337601901067879 6.819550721410826 1.2881745575249623
Pd 5.047711014109628 5.195819689588432 7.666224376572583
Pd 7.890961884979125 7.906031921940099 1.146453958740548
Pd 6.810617172111937 6.572752945252411 3.3461600903809066
Pd 3.3184662167996817 6.465901216794298 5.730098027334567
Pd 5.794247485800767 4.539847528587316 10.190221106811414
Pd 7.295666282483133 6.182826998630332 8.405763513862327
Pd 6.610968268608331 9.205703037523673 2.9649012589044137
Pd 10.172053403970464 7.3062674039620505 6.672318728382883
Pd 5.811319421999239 7.969513270565071 5.3771931550122645
Pd 9.68572456976167 6.570162304616012 9.411902190828688
Pd 4.67662607794458 7.815399773732795 7.756566880862444
Pd 1.9195292060575808 7.719741578492103 7.663868644287101
Pd 3.04425560472109 5.794937359702295 9.18510136111322
Pd 7.661589842037978 6.1717617032239325 11.215798763997283
Pd 4.085906423098468 8.10149602069417 3.412212448756839
Pd 8.706014833337239 8.274976501604979 4.494047934381949
Pd 5.323599333601612 7.109183903485914 10.247199367016927
Pd 7.697844287749378 8.387839809559196 7.10214342581336
Pd 3.169740978732908 9.104867415190116 5.736571002372352
Pd 7.63901455703364 8.484518171833672 9.828631109080181
Pd 4.812544252191103 10.56246413758435 4.297752788278674
Pd 9.753543502528602 10.059282735522906 6.237819210409736
Pd 9.920411379355917 9.113272003779338 8.669861427066246
Pd 2.988221113953988 10.200823085328382 8.144649819362208
Pd 5.310836582167692 10.338475544998746 6.9062285715781275
Pd 3.0341975418009395 8.357829558450174 10.05485530824851
Pd 5.3540680640362215 9.774373738434234 9.482936505428414
Pd 7.335357864736264 10.481821592856694 5.256891741279103
Pd 7.6779012194683585 10.7383366579811 8.148196602396366
