5
Energy = -13.58797465 eV
Pd 6.519109799204938 5.993506709759642 7.683319052684604
Pd 8.203282999542514 4.206315898469829 7.974408949907824
Pd 5.918309423411627 7.04698542435542 5.538450832310233
Pd 4.881970535090082 7.967188936138985 7.673375951519705
Pd 6.483799729239029 6.786516667996511 3.1335137993422024
