5
Energy = -16.45526081 eV
Pd 5.9510343383332165 8.525966702693571 6.857046043532622
Pd 8.50310795060081 8.55507056192096 6.80920120575139
Pd 8.556850876737867 6.003156595818497 6.859600802861105
Pd 6.007423074271527 5.976192695766575 6.8695261394562195
Pd 7.282311658889623 7.296065725075523 8.784489940061476
