51
Energy = -220.99418986 eV
Pd 3.629220785023286 8.977653337907013 9.789288925073453
Pd 6.3643164618443135 7.98176804755483 9.691839886520635
Pd 5.3139470248134755 10.12128436884111 8.282279041462116
Pd 4.02062394394372 6.460717524813038 9.731031523028308
Pd 2.3020652488308984 7.4996854127378185 7.997718779659244
Pd 9.156351463434694 8.042611780319547 9.686074336734814
Pd 7.904277994455671 9.815971348669446 8.121154978215694
Pd 6.036626072870102 5.802908388154819 11.27279819476399
Pd 6.5551393555274835 11.506993317382221 6.481758667446578
Pd 4.30607592781985 9.979723879071361 5.8165690760253534
Pd 4.9632760425631295 7.715122476455711 7.230517695338544
Pd 4.038258314777394 4.066629989833018 10.719459865084506
Pd 2.16780932506345 4.783469475289462 8.772878738727224
Pd 2.871946171978385 7.779244716106418 5.4175594878158275
Pd 9.059531886325841 10.551206736092364 5.7834570311002444
Pd 7.811099806501609 7.191454672858334 7.500748534801961
Pd 10.076593637682963 8.433542348452818 7.089739173119456
Pd 6.842156672353834 8.920808547082192 5.659709093889123
Pd 8.175877585261022 5.5989305877819655 9.81895581214696
Pd 4.385927027459677 3.2336934201180894 8.240592216178094
Pd 5.92048966172764 5.439008112508569 8.254680430831097
Pd 7.915031146478485 12.529044574648866 4.432672143990413
Pd 3.580956870621755 5.502349043789133 6.63415078760584
Pd 6.539631254140142 3.4616558615043904 9.980053701591915
Pd 6.064238562280248 10.734715776286466 3.865139321249673
Pd 8.59799739529221 10.355055708694154 3.109602515314542
Pd 2.2840430891412655 3.063762338358303 6.708162941067902
Pd 3.4742663934386067 3.820309075732367 4.521685955199278
Pd 9.042729343309642 3.1241765553584155 8.992650943857289
Pd 10.281725314914015 5.975646055449878 8.33622888534154
Pd 5.794268703536533 4.164527049592108 5.8196836718029115
Pd 2.451415946247911 6.032744845054173 3.4691079965477827
Pd 6.779574883588069 2.2739345530689254 7.621385606797934
Pd 8.16117282097941 4.5508492282132735 7.0321746113945025
Pd 4.952988339463934 6.288711660736219 4.261290421134469
Pd 4.385587260405518 8.766604458666663 3.468766057403116
Pd 7.359371625855198 6.2726487176964865 5.1233061344342845
Pd 10.052877936306137 6.058719163348026 5.6323320626200895
Pd 7.006631141949878 8.23516285300764 3.0518180636579975
Pd 4.576941654393528 1.7723315439015017 6.00152659304034
Pd 9.28677342066924 8.23367540969694 4.500722104583662
Pd 5.034978292256534 2.0913565524056175 3.294914746434661
Pd 4.354411450689728 4.480413139863408 2.1459247854930887
Pd 10.834269655509733 3.8181939221041934 6.909123045450266
Pd 9.169696502646557 1.8018231523640862 6.567934613899191
Pd 3.9815752349842546 7.075939074195969 1.5556250658370778
Pd 7.095794561548742 1.9079271013016885 4.933091834721232
Pd 6.8440725815745065 4.0891770234374745 3.365909443439742
Pd 6.418680950391707 6.118391017782745 1.8058869397357016
Pd 9.11238792052258 3.733976378676994 4.6874752416480545
Pd 8.883508217888947 5.923398681946319 3.030087546904455
