5
Energy = -16.19019809 eV
Pd 5.95510093414739 5.316421262368459 5.0189744075222364
Pd 3.5460957902920476 5.515022077215262 5.356384481817039
Pd 4.820855009080841 3.5012214256390592 6.343356727311819
Pd 4.885131769143344 3.331592383791011 3.72281656318293
Pd 4.1019359125568124 5.644911470981011 2.8664386155536343
