6
Energy = -19.09800913 eV
Pd 8.555316494529938 5.8910740149512115 5.524834793648841
Pd 8.155514296913818 7.893968024164079 7.011005460476911
Pd 7.800330387350358 5.548271116351049 7.929803841490774
Pd 6.092267267895856 6.478235088639366 6.218098059187958
Pd 4.143268213049571 5.6314458056252565 4.896944912871327
Pd 3.7094688242903877 7.013498710430065 6.875994578418231
