6
Energy = -20.17004993 eV
Pd 9.978671793982537 9.187747883516506 10.124247562105758
Pd 8.210120105936143 10.986759589029612 9.451253463013304
Pd 7.489183149011089 8.45807511069871 9.322455742162479
Pd 9.115183223099905 9.425654437433339 7.5422829470694355
Pd 9.709418515733693 7.0271809249596915 8.734267084170124
Pd 7.75332165572335 7.251243584888501 7.000952317403963
