6
Energy = -20.39303856 eV
Pd 4.764382745597295 7.177190592211282 5.640748871790771
Pd 7.24097282562231 8.13665263088283 5.94818307601439
Pd 6.864522529904634 5.624736609428882 5.196219854505591
Pd 4.919765390063791 4.723400937924433 6.661094410428333
Pd 6.123057545952673 6.671211896858302 7.8690972783682485
Pd 8.525644049912794 6.105152426746361 7.12300158894794
