6
Energy = -18.5690945 eV
Pd 8.13224631721228 11.271399718563698 7.8101798088489405
Pd 8.855754253392934 8.89615588683151 8.495068460700406
Pd 8.53057466682635 6.759845745986607 6.742962574819234
Pd 8.39926444360864 4.871083003693922 8.514769534114183
Pd 6.948365223874169 7.090811557442191 8.991230341776062
Pd 6.721586507543254 8.811569557335078 6.946526663931495
