6
Energy = -19.48368616 eV
Pd 7.8686015477398925 4.884013822739945 6.672850477859145
Pd 7.613889817274833 7.200782042201973 7.676719172548015
Pd 6.81320681128622 6.822823557746705 5.191280229108271
Pd 5.313156740678317 8.042952558016072 7.012071013425866
Pd 5.764459252829807 4.311887230775778 5.370368500107443
Pd 4.160480248697933 6.271335207026264 5.610505025458383
