6
Energy = -20.61181516 eV
Pd 7.862888200134286 7.303422360756608 7.623480207321231
Pd 6.531235834676368 5.026773549352735 7.594847579599051
Pd 5.199583469218451 7.303422360756608 7.623480207321231
Pd 5.199583469218451 5.759049308596125 5.438991462031507
Pd 7.862888200134286 5.759049308596125 5.438991462031507
Pd 6.531235834676368 8.035698119999998 5.467624089753683
