7
Energy = -23.71688304 eV
Pd 7.776464920820504 5.770869277270359 8.694501300000002
Pd 6.505179953421123 7.973735216128452 8.694373403933696
Pd 5.233894986021742 5.770869277270359 8.694501300000002
Pd 5.233894986021742 7.23949062957189 4.315858606842248
Pd 6.505179953421123 6.505179953421123 6.505179953421123
Pd 7.776464920820504 7.23949062957189 4.315858606842248
Pd 6.505179953421123 5.036624690713798 4.315986502908552
