7
Energy = -23.43756553 eV
Pd 6.8046950452142845 9.133461616753344 6.84550230092976
Pd 8.705379351566258 7.534320151324484 7.378867246814774
Pd 6.447103717197893 7.093783563016406 8.496493867576687
Pd 5.5263736595387725 7.078932953795661 6.03515908194525
Pd 7.373879466004415 5.529666456752616 6.493356912507647
Pd 4.289614112083251 5.251663850565136 4.945077047428152
Pd 6.2376317133887 3.7584130332437082 5.192027602208007
