7
Energy = -23.06979698 eV
Pd 5.577260923191592 7.782151612648129 10.269552959870405
Pd 9.596582582356254 7.145279865215635 7.4945675129616305
Pd 7.503977750985076 8.114749253846838 8.691029595269665
Pd 5.576316087071261 6.4264336998439635 8.15579374711818
Pd 10.677746715117575 9.42418511412686 7.084616343194566
Pd 7.315774851411843 6.566227673572033 6.3147060081438235
Pd 8.25896597775322 9.021155129003267 6.374912432160025
