7
Energy = -22.77270964 eV
Pd 7.698074272947404 8.414723011535965 9.806622088515478
Pd 8.777140549757174 9.393594721883119 7.762788983268265
Pd 7.379061624550584 6.097549916937173 5.322172213162784
Pd 7.275298519564452 7.000932783950897 7.790594247552629
Pd 7.268980206642422 8.654617719408217 5.741254602269154
Pd 9.450341582264523 7.282210938599314 6.344726201362238
Pd 6.706603542468179 7.7401517733742855 11.928907692971014
