7
Energy = -22.84712379 eV
Pd 4.383463968682225 7.76268560588093 8.275613143411228
Pd 6.704075515602926 7.067461454292292 7.664169220237182
Pd 8.873019935529951 7.181544754575966 6.240998833443496
Pd 8.370770030131276 5.0828329345753485 7.52242285094714
Pd 4.591013489444262 6.683720666268116 6.025919782818661
Pd 6.986737306596461 5.611629783868408 5.3897404292206685
Pd 5.038195197805998 5.556105375977241 3.826003919273273
