7
Energy = -24.36121551 eV
Pd 4.995562264137892 4.5278642579989405 6.320481460681905
Pd 7.085526566857059 4.891798605176019 7.901171277810143
Pd 6.699726873270582 8.345759109129672 5.368999379295163
Pd 7.158736436669167 5.76673448599414 5.283399842856481
Pd 8.130081345466063 7.263668370616481 7.333783024073606
Pd 5.5188619234478775 6.906942313120895 7.392517347352837
Pd 4.767005020579428 6.6527333790061665 4.7551481889724165
