7
Energy = -24.10002817 eV
Pd 7.78655564628121 6.409220833471398 6.306254629797685
Pd 7.21642952471165 5.994593355716813 8.825585908988208
Pd 5.075340482262561 7.15202057884848 8.113152717533834
Pd 7.25685860395437 6.667685581752258 3.7560764994585036
Pd 5.607669370363196 7.5502020246417265 5.620271345077118
Pd 5.754194362837946 4.957742259953476 6.894458344312747
Pd 5.220004131155547 5.295443544684533 4.388634998343994
