7
Energy = -24.33870298 eV
Pd 6.36577585995952 6.98218121627076 4.0044980847851495
Pd 8.209391455116261 6.432064573358396 5.825834591154112
Pd 5.710364867459111 7.288416775491987 6.621037487584894
Pd 4.412862423723471 5.130878908730773 7.34395352395555
Pd 4.017419434662929 6.179218701827985 4.945889349991187
Pd 6.294510845573688 4.715950239076425 5.383396778079574
Pd 7.005019041918596 5.286633513657132 7.89073411286288
