7
Energy = -23.08706909 eV
Pd 8.046334859802634 11.277042765902454 9.37996167209171
Pd 7.9934548939740955 9.144624969052856 7.864919674477783
Pd 7.318528942027011 6.692205662437858 9.746833084404235
Pd 8.949026499672422 8.802080927841503 10.403780292243258
Pd 10.491447721256705 8.873774685065772 8.322125944226372
Pd 10.07725571594795 6.582167408084113 9.682735942438498
Pd 9.529564955462561 11.141924024221957 7.09459908878988
