7
Energy = -23.79294351 eV
Pd 7.112156331497589 8.149161490115382 7.343903603627521
Pd 7.309819834541107 5.8354098829847425 8.474878875612076
Pd 4.889324182025347 8.110565161744354 5.942863558844367
Pd 6.103772745458724 5.836587099727796 5.945879923433767
Pd 7.225169656913723 7.892131207602791 4.745592769362977
Pd 5.23748873147228 4.4895339694373675 7.892384393408076
Pd 8.715119158868093 6.3062688662606226 6.299398219234037
