7
Energy = -23.0765529 eV
Pd 8.87788235433984 8.565336087609813 9.081418437105478
Pd 10.12642938924625 8.096789117761272 6.772199850147065
Pd 8.347362301059519 6.363096545806381 7.647264236023729
Pd 7.600665024396316 8.995625111217622 6.771921066660644
Pd 8.29810028014805 7.075856353125524 5.159759390578821
Pd 6.448093611137304 7.747528567580958 8.687584736620744
Pd 4.489770866976667 6.763734054874434 9.793516795352994
