7
Energy = -23.35013635 eV
Pd 5.836230858538736 7.105340907605906 4.121046538790851
Pd 4.534526423805225 7.135155406504045 6.402494506160715
Pd 6.961947373099798 8.216529447740127 6.224311735722613
Pd 7.908343206975403 5.9309841889807355 5.221531897688407
Pd 6.600630503626314 5.95320814011161 7.477495513840159
Pd 5.473244747972722 4.847210658151514 5.399239115880083
Pd 7.277927648215443 5.426677713288427 9.77521148840247
