7
Energy = -23.34086785 eV
Pd 7.5402443986220975 7.6596464758598755 4.1542763809697
Pd 7.600337794995378 5.6455760692155526 5.633347315223483
Pd 5.421551438106396 7.425764825802838 5.565590344341992
Pd 5.188086462810221 4.74073806610381 5.703039267858349
Pd 8.536525605944771 5.929659642060654 7.9333508210958525
Pd 5.992882742484118 6.1839297901529005 7.882413567397124
Pd 3.576547494445765 6.249089569273011 6.961211111722358
