7
Energy = -23.83451418 eV
Pd 5.972701170763305 9.282755310758157 4.983600372110582
Pd 6.350625497240966 6.569908284982904 7.908891323877043
Pd 7.706824656391535 7.790823069409877 6.049828120810285
Pd 5.1525419186133785 6.9748205590845 5.595583339625502
Pd 7.292130414522569 4.145437964157709 7.824037996333991
Pd 7.177339182067967 5.285739265293501 5.4752930451255954
Pd 4.979572027720766 4.582250413633566 6.794500669437215
