7
Energy = -24.27081554 eV
Pd 5.190561567391378 8.080467102268091 7.470048370675102
Pd 7.8124802991105735 8.565175085903268 7.293755931279479
Pd 8.283304255086477 5.977894033938461 7.266857549485628
Pd 5.656633501886266 5.501585964957779 7.449766564529244
Pd 6.808358588030908 7.023481061458021 9.243860405687673
Pd 6.6794322287499295 7.033543349594607 5.497106873393393
Pd 9.269694335946232 7.518324131668611 5.386075244864933
