8
Energy = -28.08145643 eV
Pd 7.8459807973326186 4.263328701798654 6.368798782190273
Pd 8.759359844343393 6.595093595565238 6.717939475989007
Pd 6.36340619988833 5.206519410702433 4.519258185906926
Pd 5.698767631533718 5.48948329026552 7.18851471317817
Pd 6.656157847904264 7.560057179065628 5.528659469476161
Pd 4.198915153698303 6.532381910524813 5.125983746196178
Pd 6.9376991195542725 7.471879061178192 8.28939310725842
Pd 4.568626806592213 7.9036207957457085 7.285014992202699
