8
Energy = -27.50474516 eV
Pd 6.555857685536289 4.539086748864029 5.757862315530744
Pd 8.485099393204568 5.885153517518615 4.706477440238132
Pd 6.5113437227870445 6.396123196012201 7.559413443060866
Pd 5.230534978297382 8.079727146560057 8.977176098647224
Pd 8.740164466071855 5.133675231067305 7.119966769555057
Pd 6.510093312575908 7.454398506842137 5.277018753495399
Pd 4.241593086970445 7.541915095974985 6.689155431118946
Pd 4.556867987605961 5.8556206394384915 4.769872731536817
