8
Energy = -28.45137127 eV
Pd 8.084791388534974 7.297482291365039 5.966765387622488
Pd 6.568904663092297 5.974479510568028 7.661593660238745
Pd 3.8634576514489005 5.97954631934485 4.657311521412678
Pd 3.874122291899456 5.979967647203503 7.309773424192581
Pd 5.392613881815429 7.663933131217822 5.977355902958794
Pd 5.385755694311186 4.289595710569006 5.977855358253842
Pd 6.554909631819515 5.974023984063683 4.286211437588047
Pd 8.079409848733954 4.6449364573237775 5.967098359388538
