8
Energy = -28.31872149 eV
Pd 7.123123958950663 3.799914486765715 6.844362743738855
Pd 5.046020306574707 5.318442722405929 6.774516928356598
Pd 8.54634693530832 5.574497247925959 7.95839552146332
Pd 7.517584850972475 6.044645520939781 5.544930451669402
Pd 6.568561493181716 7.2355347544602795 7.623024141998402
Pd 5.16445825100896 6.473202431812721 4.423518260196331
Pd 6.597664005700962 8.543682181523376 5.254886995058548
Pd 4.306110442587709 7.924060923838163 6.4282994832812514
