8
Energy = -27.93497449 eV
Pd 8.447102384861786 6.512611937361353 6.568553014182096
Pd 6.885891758923899 4.905457754076471 7.912767209273446
Pd 7.521464083166321 8.85732112714545 6.85809061682071
Pd 4.292847092975536 5.112779451675217 8.09018283620984
Pd 5.407375606345979 4.422482106610758 5.8685969105628795
Pd 6.253094679775061 8.53218577091175 4.722327083794979
Pd 5.655410350497454 6.989717562886778 6.816150563103881
Pd 6.933702202912723 6.069502712613119 4.5522117871841745
