8
Energy = -28.33400071 eV
Pd 7.724546845887902 5.2270881267584945 5.501117533352777
Pd 8.93389279509153 7.466537169727787 4.936126517078298
Pd 3.932406315426893 4.69343718774045 7.799661373592077
Pd 6.9403584661279485 7.576399147903625 6.58539830963459
Pd 5.0369754089304495 5.690563747880115 5.661747503988196
Pd 6.478473371554535 5.237034194042348 7.885984129538871
Pd 4.67789984590501 7.183705469994851 7.825134022277092
Pd 6.540528313696032 7.0528654056568225 4.006362431251144
