8
Energy = -28.13333114 eV
Pd 8.208672229999998 7.212574360173442 5.377830501273263
Pd 4.8036777400137805 5.79977560984034 5.377830501273263
Pd 7.212574360173442 4.8036777400137805 5.377830501273263
Pd 5.79977560984034 8.208672229999998 5.377830501273263
Pd 8.208672229999998 5.79977560984034 7.6345194687405185
Pd 4.8036777400137805 7.212574360173442 7.6345194687405185
Pd 5.79977560984034 4.8036777400137805 7.6345194687405185
Pd 7.212574360173442 8.208672229999998 7.6345194687405185
