8
Energy = -27.42206395 eV
Pd 7.1767618174008145 8.721921011588986 8.443437227865664
Pd 6.494598002227891 6.372992048122674 7.913876719894891
Pd 6.785913176641141 3.8721960844199677 7.3110515035911625
Pd 7.093604180038477 8.285220785893769 5.979301986050736
Pd 4.4649159125576166 4.877780197719034 7.311870082532579
Pd 6.889751690069949 7.325100050692573 3.675236612509084
Pd 5.140442456407466 6.528265135733152 5.4404472920113776
Pd 7.528270805173641 5.588629710214106 5.510920175005149
