8
Energy = -26.47850337 eV
Pd 9.224999503051233 6.811085426144847 6.933767784666708
Pd 5.894740737692358 5.221306392752226 8.606517501006032
Pd 6.731957518175736 6.349857142443118 6.545489372765481
Pd 6.006614140319942 8.649370896742223 4.263535058956168
Pd 8.10878656547655 7.364410454659193 4.699853298013083
Pd 4.633380407732156 7.409938544859776 5.928033289139326
Pd 3.6988073882343 6.121446757394122 7.837180583032122
Pd 8.1873410085727 4.563647665021797 7.676523655476719
