8
Energy = -28.43146073 eV
Pd 9.176990364417556 7.41510060939312 5.7559858086688696
Pd 6.605089825538509 7.077051076512671 8.869805430705568
Pd 9.248530364601852 7.432330544809711 8.410684527102733
Pd 7.927275418081529 5.552913010426206 7.132269014109434
Pd 6.492481865191525 7.050942119154579 5.488529471408569
Pd 7.477715644909521 8.885727496623133 7.121857550976652
Pd 4.8686750213356556 8.177606993340175 7.227600956416319
Pd 5.22228985729013 5.546216058739223 7.235898984955216
