8
Energy = -28.16373027 eV
Pd 6.5792120874123245 4.555078917385172 6.38223025498064
Pd 3.9942062327539944 4.099097452360914 6.414163743515263
Pd 7.6849018616365035 6.5646369152364565 4.970397304219151
Pd 4.988562799664145 6.002525885774342 4.945386432459965
Pd 6.079133072201452 8.117869630584543 6.273418857754616
Pd 5.004341474991594 6.116545657883576 7.715090420224588
Pd 8.689710530464106 8.569948808827345 6.272835520753663
Pd 7.66524947206562 6.675495683157201 7.710430659908382
