9
Energy = -31.57049622 eV
Pd 9.30363340865638 6.424013886160732 7.016854860832821
Pd 7.838666990655825 5.4706026920569295 8.816867821565594
Pd 7.323412862000712 7.65306260623559 6.03525579210748
Pd 7.312643469628939 4.8668076686962145 6.341473074395695
Pd 5.790434120944729 3.8245142309804323 4.6543615525749455
Pd 5.880784563332495 6.754620109178069 7.865638098718068
Pd 5.086048395724117 6.148542368055722 5.242493783258015
Pd 5.314576712118325 8.726073019102934 4.942943634150169
Pd 3.870343661461671 7.85692984537123 6.796359379040788
