9
Energy = -31.05367175 eV
Pd 5.178956901121649 5.495228688481099 6.957152538674402
Pd 6.518433421014405 3.886857663705352 5.449378198624664
Pd 5.982899801533389 8.153273053108036 9.12626939769695
Pd 4.985453692929495 5.577908572404479 4.379379207599823
Pd 4.210822048917256 6.410041291710557 9.018522555313497
Pd 6.86508100153443 7.360873484177166 4.49690169474495
Pd 8.368050857556872 5.675575630013932 5.618800035013529
Pd 6.927655312166881 7.228630397488115 7.081868593367006
Pd 8.954809014078906 8.221800541033149 5.856898403915971
