9
Energy = -32.29513996 eV
Pd 7.5595682597732825 8.010699398897493 6.436534322107825
Pd 8.177623288203526 5.485435371019891 6.708727417907069
Pd 4.381827558999547 5.9117400590251465 6.734661666704089
Pd 5.4429582465139426 7.318359424036843 4.809833535225122
Pd 6.063109586752686 4.793664020942274 5.080890301570957
Pd 6.105121774709371 4.059384443435247 7.639656790182429
Pd 5.024256507964562 8.486554882700679 7.1646339248547575
Pd 6.495287114053937 6.603413987486762 8.358042964724284
Pd 7.935958233405557 6.516458344582793 4.252729100029035
