9
Energy = -32.28602687 eV
Pd 5.987746800432798 8.104853618090642 8.087429391798398
Pd 6.114546309183833 8.733505234636521 5.5517807753324435
Pd 7.286566692042964 6.748511622936926 4.222127528854061
Pd 8.410197698648622 8.685364919114019 8.821043105204383
Pd 8.237538547395609 7.515507809226597 6.528029317774512
Pd 5.52460216396352 6.245376554144056 6.169647309702141
Pd 7.029790106173456 7.05830470344227 10.219554690502166
Pd 7.315444886084136 5.67330299803748 8.106175070411622
Pd 7.591098871932246 4.655391733648892 5.773550424231088
