9
Energy = -32.02088607 eV
Pd 9.116475073614795 6.847764676472829 6.983319518933772
Pd 8.33019588832823 4.893297749392197 5.586539417678247
Pd 6.586065243127004 6.870148148560119 7.618001735578124
Pd 7.411048547120057 8.355345701676502 5.667578854281898
Pd 6.802401123415241 4.3188154604480875 7.554639801656637
Pd 4.832767980545673 8.444746638899122 5.228842603539429
Pd 4.047316927045711 7.13913680745125 7.265055243669753
Pd 6.100034648845256 6.14595489763175 5.215821302534959
Pd 4.462218762587151 4.702571515089365 6.603074379576211
