9
Energy = -32.33983469 eV
Pd 6.729693225453617 8.170307290684185 7.345054269598766
Pd 5.2215325565161015 6.729693225453617 5.4247284981167505
Pd 8.237853894391135 6.729693225453617 5.4247284981167505
Pd 6.729693225453617 8.685611199659979 4.767157247176283
Pd 6.729693225453617 6.729693225453617 9.509197796269046
Pd 8.893696794496647 6.729693225453617 7.992080577104575
Pd 6.729693225453617 5.289079160223045 7.345054269598766
Pd 4.565689656410591 6.729693225453617 7.992080577104575
Pd 6.729693225453617 4.77377525124725 4.767157247176283
