9
Energy = -32.77524529 eV
Pd 5.989820325919557 5.459092303887474 4.679978682884564
Pd 4.072290733500601 6.493942820284852 7.6793796386475055
Pd 6.330729628266648 5.1013498868122875 7.433288232099449
Pd 3.620116682997899 6.680537628853407 5.056723022528374
Pd 8.025452223020812 7.194969053789171 4.572458897453315
Pd 5.887140703355143 7.541064951794025 6.149491904664365
Pd 4.135985092247564 4.364526686435278 6.150488811565114
Pd 8.295775909644375 4.784982000022621 5.678208942373629
Pd 8.20961063132366 6.946456598396997 7.166903798059804
