9
Energy = -31.76446721 eV
Pd 7.628603201295016 7.404302401091719 5.4345887043744385
Pd 5.475064112377732 8.84053678450269 6.503012433873416
Pd 5.88862851216055 3.6974970282922848 6.6864361703256066
Pd 7.770351185764169 9.914453405290745 5.944001602111507
Pd 5.185286697355985 6.199084544157254 6.184971123290038
Pd 6.835171923605468 5.0725635735554855 4.511436765800035
Pd 6.7917402813675425 7.215773274401892 7.9228628191882615
Pd 8.029403457738734 5.162148013423856 6.929485633042188
Pd 5.173654849702311 5.2735655009776705 8.648966468628185
