9
Energy = -31.17055144 eV
Pd 5.926561874436219 7.60654873201792 3.6249747375557257
Pd 7.399099912317503 5.962824762385126 4.783362159329761
Pd 9.280301351755995 5.121340152611929 6.305098163901627
Pd 6.9283181424493385 4.127022130576272 6.63626947186764
Pd 6.149021370131133 6.666348138311177 6.814912288591215
Pd 7.886835779844292 5.82406651745978 8.389843245704794
Pd 4.4612530167839815 8.07208962230472 5.617489352062686
Pd 5.524442068773126 8.974003975813625 7.775078788336884
Pd 5.720252060048512 6.934247545822844 9.329869137892413
