9
Energy = -32.03810261 eV
Pd 6.482583158325644 5.3809404434508235 7.951097104193231
Pd 7.736787320605787 7.23386938641347 6.07874271868237
Pd 8.897799104742406 5.092530921652168 6.923538223400355
Pd 5.3761951331510565 7.5573579781218685 7.158151591355219
Pd 3.878386039710324 8.749824942864839 5.393555866532496
Pd 7.276207230324449 3.1222579956489227 6.881265916538499
Pd 3.9079320447083443 6.136993559760443 5.5593178749564265
Pd 6.289027323730558 5.003170047545986 5.397956702232239
Pd 5.818246427852973 7.386405226948634 4.319291855002903
