19
Energy = -87.18642016 eV
Pt 5.400053362320575 8.098083390157816 9.25028356765847
Pt 6.670972784117457 4.927429402359677 8.551022878081055
Pt 3.77385785166614 6.698823640144217 7.777756365725036
Pt 6.9956135884908015 7.851519559660401 3.3327595086985036
Pt 5.966143335977104 10.393566835612733 8.389694182936523
Pt 4.750174740106253 5.723576123484811 9.903896377505575
Pt 4.815983223025714 7.391056154566543 4.4559723764020385
Pt 7.696776011322772 8.987973341975723 5.516270800714436
Pt 9.690606556626502 7.585745685653054 6.884908297945507
Pt 2.8973845449032503 8.100359290520618 5.923539014366811
Pt 9.83824974155357 2.9931264427304916 7.188915558641627
Pt 7.646192359270119 7.31651264583919 8.451222816490507
Pt 7.6361607905192255 4.106591369861005 6.2634109337273465
Pt 5.341005632489779 8.921806628911662 6.410945653109634
Pt 10.132638211354392 5.1088582177845145 5.794616533565133
Pt 9.217872289433338 5.244893288982693 8.272741767637253
Pt 8.33443673260661 9.649168298360244 7.858757324193318
Pt 5.758961881319789 5.958222675338111 6.348183533445096
Pt 8.106906606277022 6.4512959066852 5.113312115339626
