18
Energy = -81.79803727 eV
Pt 6.767053902234885 6.767053902234885 4.579143321588448
Pt 6.767053902234885 8.89933392280993 9.259022441453311
Pt 3.628623891088837 6.767053902234885 6.810943452365939
Pt 6.767053902234885 4.124798903180386 4.785438614561206
Pt 4.502254083851216 8.100739833021855 4.704914916741226
Pt 5.470885767682221 8.672734556096156 7.029990410952798
Pt 5.470885767682221 4.8613732483736145 7.029990410952798
Pt 8.349340947636273 6.767053902234885 8.843334058472568
Pt 8.063222036787828 4.8613732483736145 7.029990410952798
Pt 9.031853720618557 8.100739833021855 4.704914916741226
Pt 9.031853720618557 5.433367971447917 4.704914916741226
Pt 6.767053902234885 9.40930890128938 4.785438614561206
Pt 9.905483913380937 6.767053902234885 6.810943452365939
Pt 6.767053902234885 4.634773881659845 9.259022441453311
Pt 6.767053902234885 6.767053902234885 10.890728517118676
Pt 4.502254083851216 5.433367971447917 4.704914916741226
Pt 8.063222036787828 8.672734556096156 7.029990410952798
Pt 5.1847668568335035 6.767053902234885 8.843334058472568
