14
Energy = -62.9397351 eV
Pt 6.557059556948445 6.557059556948445 8.638482
Pt 6.557059556948445 8.638482 6.557059556948445
Pt 4.475637113896888 6.557059556948445 6.557059556948445
Pt 6.557059556948445 6.557059556948445 4.475637113896888
Pt 8.638482 6.557059556948445 6.557059556948445
Pt 6.557059556948445 4.475637113896888 6.557059556948445
Pt 4.761937233010532 4.761937233010532 8.352181880886356
Pt 8.352181880886356 8.352181880886356 4.761937233010532
Pt 8.352181880886356 4.761937233010532 4.761937233010532
Pt 8.352181880886356 8.352181880886356 8.352181880886356
Pt 4.761937233010532 8.352181880886356 8.352181880886356
Pt 4.761937233010532 8.352181880886356 4.761937233010532
Pt 4.761937233010532 4.761937233010532 4.761937233010532
Pt 8.352181880886356 4.761937233010532 8.352181880886356
