11
Energy = -47.5876435 eV
Pt 4.7973885856957565 4.894507646967535 5.004483129451363
Pt 6.091961668345881 5.059361328339436 7.673326026348391
Pt 7.566586553196938 4.788259988708372 5.32045863167621
Pt 6.020670442252264 3.0084099275497 6.183874688585236
Pt 8.953921888404459 6.759861685644724 4.525971317135237
Pt 3.9397074944539754 7.117153388368317 4.1305826468774
Pt 6.446093232427758 7.002285130982535 4.216874356043442
Pt 4.868833272818714 7.481513775185993 6.466551056970184
Pt 7.629791535218848 7.150813237460078 6.654680263020765
Pt 6.140579119560053 7.396993457489212 8.660087176956962
Pt 3.594105150799869 5.39047937647898 7.212749650109324
