19
Energy = -88.03750215 eV
Pt 3.467385473913442 4.436331080801493 6.02265902491087
Pt 3.4989031754879005 6.989894929331163 6.324035206773987
Pt 5.073209757112543 5.897332295843269 4.717301935972194
Pt 5.8591379582295975 9.077107693239455 7.92762813733841
Pt 5.610384323829409 8.073735317551973 3.5387140571017532
Pt 5.189764177446662 4.087500578112567 7.80539317343079
Pt 4.610455958179141 9.166848035994818 5.656063405846052
Pt 6.413392698388004 6.754380102042963 1.6033897807772302
Pt 5.355712717519355 6.606470146025194 7.987616428319299
Pt 7.040686312399375 8.672004278323849 10.127438509922602
Pt 7.0592271299283755 5.1499157266688105 3.373930757611923
Pt 6.985346769652877 4.9179939189941875 6.194962870942534
Pt 6.971228667473892 3.7823588007227213 9.560132537298797
Pt 7.005419626615442 7.950482887552728 5.641907787252216
Pt 7.47406931774125 6.296586558572629 9.345489463224766
Pt 8.319905868650789 8.15775351272503 7.8406995965324935
Pt 8.722575962429966 6.248401337130446 4.905648207090879
Pt 8.792265700200378 4.659771595541413 7.98923841937684
Pt 10.08394284250462 6.608145642528313 6.970765137978928
