15
Energy = -66.181674 eV
Pt 9.569886190104642 5.376001100636011 6.788022222210533
Pt 7.724729234927733 3.445496471588791 6.8845088007550865
Pt 7.51399530006097 5.461239187526434 5.2016557807640655
Pt 7.293438219208093 5.808052226327438 8.020566393791892
Pt 8.294372786700215 7.667003551635998 6.4838991467686435
Pt 5.421880658646346 3.8209715914151112 5.571541717281385
Pt 7.402343172874465 7.710724731802095 3.9676349408804574
Pt 5.566257162370993 3.773127075697395 8.302029599523241
Pt 4.61254345084434 5.856393755940546 7.023080383160876
Pt 5.044266426404031 8.670146992890464 3.5145192018422353
Pt 5.131418131501672 6.138858875947441 4.400130939543258
Pt 5.17964579211984 6.072639917367352 9.556536461901555
Pt 6.459967016766676 9.372107538819174 5.787908325648087
Pt 5.901165768118499 8.013557381375955 7.930037465832616
Pt 4.149550125274388 8.097718620468891 5.8781613924507266
