17
Energy = -76.35247527 eV
Pt 7.986269604470353 7.306198253955597 9.44459358413467
Pt 5.515074527022073 6.287147367364476 9.831359016390202
Pt 5.988291248041226 8.848539330404398 10.085365136647468
Pt 7.230256271909213 5.131899779099539 8.020251224189376
Pt 5.120346126459357 7.848817568483198 7.798393476981038
Pt 7.075727735473096 9.842641929899447 7.9545355674298825
Pt 9.584948668549606 8.804473910420866 7.9289027423535865
Pt 9.727547601365062 6.059921217662265 7.898626359332822
Pt 7.555881803544495 7.474598057989765 6.850694094674858
Pt 7.576289824114869 7.604822568955977 4.192853346974603
Pt 5.52406344879707 6.50039680171147 5.481660368383187
Pt 8.38662453670242 5.362479827749708 5.4779890855101945
Pt 5.720678863234013 9.1332911431491 5.531883273145631
Pt 8.378270046464428 9.74660373779944 5.6778525827711475
Pt 9.928549592708752 7.487960503394562 5.569191041973193
Pt 4.6578753240941175 5.139167405726398 7.633683077945778
Pt 6.214162213115766 4.013161979687209 5.856232485686987
