19
Energy = -87.92270868 eV
Pt 3.607217933989243 5.327634926159595 4.164959448229178
Pt 5.719862408041297 3.7643321996658954 4.808570473982995
Pt 9.244868481829283 5.202628347519509 8.053024070192233
Pt 10.352933138991398 4.2886568349870755 6.0155485497273355
Pt 2.982355736374308 7.359816399621106 5.574526575392796
Pt 8.173311111682267 6.237197525149356 10.098256780764503
Pt 8.18664726614805 3.0640450740465743 5.198712939881321
Pt 8.597972275203807 9.790599967233241 7.082687414463711
Pt 8.382854192614106 5.615494430109376 5.055368226635005
Pt 4.701225926932725 5.496802944818853 6.549977843919354
Pt 7.871432457532701 7.451226054858642 7.858779024802543
Pt 6.014535214944914 6.34955582443921 4.402323072738968
Pt 7.06889204274787 4.397567862520595 7.0206925792322314
Pt 7.757197766175555 8.069126387804248 5.370702430373925
Pt 5.144922472885632 8.588589193841745 5.212347949112905
Pt 6.014925904280108 5.949928723740023 8.776876139050994
Pt 6.1079120869732595 9.270404386703872 7.4582697273816985
Pt 4.248712075000116 7.615451295216408 8.030223377703619
Pt 3.31863079298259 9.65735090689419 6.76456266174377
