12
Energy = -51.99812472 eV
Pt 9.181919350337814 5.835300945391517 5.669438984968543
Pt 7.968155405266064 8.039227374607286 5.380056207744735
Pt 8.086581729352607 5.396666622403608 7.919174171345442
Pt 6.535007324147287 10.060385828789173 5.170961006774856
Pt 6.5894092976098015 7.402628236619609 7.430073662312099
Pt 6.7590806182688965 5.086366652737418 9.997645358182144
Pt 4.916654538592679 5.82652843221559 8.486046090585658
Pt 7.454333460788953 4.504314311774411 4.442126330118888
Pt 5.981495761083187 6.554564290828166 4.747126312309885
Pt 6.046812256313836 4.712124946661591 6.545698201309297
Pt 4.818981044930331 8.425504196286893 5.944268021774285
Pt 3.6574303206277277 6.152249269004319 6.263246759893086
