16
Energy = -71.89659674 eV
Pt 3.9807442972069387 9.636348134136819 7.266716006422541
Pt 3.5546507247721415 7.169785271098771 7.607823185612218
Pt 5.133607219119428 7.8944555199027935 5.692607693758493
Pt 6.476520569910709 9.373991870672342 7.6625432540918155
Pt 3.322623245124825 4.677499599397923 7.326632008890588
Pt 6.0377972839438 6.877305996526388 8.10793117432007
Pt 4.893200939804941 5.214203949143837 5.37584383858038
Pt 8.465012969814145 7.620854577630624 7.542170721018849
Pt 8.102701155982535 5.310158936486146 8.628409815532537
Pt 5.725913817658123 4.399077223899123 8.068433107280585
Pt 9.746690647793981 8.565706806620664 4.31653874016069
Pt 7.566310182761887 8.911979591551237 5.3779098652667505
Pt 7.199646625855338 6.349947297257911 5.235976082442944
Pt 9.715019465488432 6.448196467789312 5.641084296861765
Pt 9.52262836488404 4.225687039776595 6.8148600239297945
Pt 7.1468133880593125 3.9758932202424693 5.966677679338917
