10
Energy = -41.12010382 eV
Pt 7.149447844578074 5.563615109575184 4.749827954204834
Pt 6.243675850410617 8.001484942277685 5.123690740356014
Pt 4.689550698628527 6.018156612904535 5.5332438397620765
Pt 8.716657883734783 7.185216031374265 5.986683496570406
Pt 8.124995600070394 9.64173859937599 6.008484167808224
Pt 6.349903931250718 4.072710098819902 6.672976373271505
Pt 3.847466629554099 4.055492844168145 7.055474775500892
Pt 6.635492512849738 8.181135978264269 7.610930292903229
Pt 7.763451548377698 5.826302661397549 7.923019651003869
Pt 5.161497631909713 6.136287253206421 8.017808839983733
