10
Energy = -41.58815929 eV
Pt 5.293390036644072 4.454462770008975 5.219753509382165
Pt 7.822015599973997 4.43695940895146 5.100844480657499
Pt 5.284441695177909 6.9921241443496465 5.253872564402017
Pt 7.7676567174316435 6.951546881698062 4.766534683570458
Pt 6.882661783093872 9.131420821666104 6.0248096179936335
Pt 5.490862619788628 4.290679723563969 7.753250738472753
Pt 8.005768248576715 4.618414334381237 7.62874743796457
Pt 5.0570831580838185 6.744352482149233 7.805799733733933
Pt 7.524797875095876 7.051413811777755 7.297659532841324
Pt 4.423825660492143 8.944850080968761 6.76495218548347
