11
Energy = -45.5817772 eV
Pt 8.260557643593689 8.580456847171353 8.517604330237779
Pt 7.600356345133963 8.320168015437691 4.073001886389957
Pt 8.055850931314772 6.002782863024889 8.60412226978197
Pt 7.1247541325012325 7.5423652239190515 6.467167553805152
Pt 7.5834401494690145 4.595973568306083 6.5558981534981
Pt 5.26454058169071 7.316919380350006 4.480769722546156
Pt 7.41904524423929 5.751505900634013 4.315940462483577
Pt 5.934528877227131 7.565328159236783 8.918019352483425
Pt 4.479579867133611 6.971141232378085 6.897719320683787
Pt 5.221773285022105 4.853778721427752 5.532689306900316
Pt 5.623088268445761 4.988287339216579 8.196515157259588
