11
Energy = -45.69533271 eV
Pt 6.748329632891471 6.748329632891471 9.316888530559059
Pt 8.053127635101333 8.049421522459294 7.422119667800821
Pt 6.748329632891471 10.320058 7.345517468425625
Pt 5.443531630681608 8.049421522459294 7.422119667800821
Pt 5.443531630681608 5.447237743323654 7.422119667800821
Pt 5.455281658486072 6.748329632891471 5.095808824973097
Pt 6.748329632891471 9.020698887136382 5.1718031510649505
Pt 8.041377607296875 6.748329632891471 5.095808824973097
Pt 8.053127635101333 5.447237743323654 7.422119667800821
Pt 6.748329632891471 4.475960378646561 5.1718031510649505
Pt 6.748329632891471 3.1766012657829426 7.345517468425625
