17
Energy = -77.59701669 eV
Pt 4.467712155868691 9.956575533935505 5.666211394254109
Pt 5.937894479876305 10.095537061695437 7.78333085274355
Pt 9.123265046215215 5.980747351913985 7.116805461561108
Pt 7.049398203092287 9.495557787009588 5.30564503423253
Pt 4.34910199204526 7.975501809101475 7.513659035464822
Pt 8.891139316136314 7.724949082851882 5.2283592358333815
Pt 7.727995822247685 8.257476913272797 7.5038067677101745
Pt 6.188836280532795 8.160853536494137 9.573336082853098
Pt 8.045580864835705 6.397009441439352 9.470707946053176
Pt 9.814859028785603 5.380075210814699 4.741993361535044
Pt 5.934785439422077 5.920999531844986 8.152300285960807
Pt 7.22409584452757 5.765252481060434 4.985910922903898
Pt 5.477705841634876 7.5085127656309965 5.304355677180882
Pt 9.095203372296645 4.15539467549998 8.874755970767593
Pt 4.165589524200869 5.6055690583373385 6.398591164778401
Pt 7.22821143606938 3.9958709309160163 7.152244532917058
Pt 5.59789725395992 3.826443225375846 5.265128524042296
