10
Energy = -41.85254789 eV
Pt 6.0454011110210635 8.12907228154381 5.171373237393835
Pt 3.6433732832927057 7.316303598501931 5.285034262527643
Pt 3.648241602489919 6.610557113690701 7.705084607173285
Pt 6.784225641302921 5.823048507306938 4.540689397484929
Pt 6.219444224996466 6.86178443556944 7.365802135792266
Pt 4.375502806151787 5.0545623322610425 4.429026360345967
Pt 8.443135451947349 5.9834359446776855 6.5569244551365395
Pt 5.076846596772548 4.68751973354893 6.860238843171979
Pt 7.231808924402247 3.735752929319389 5.987596094448879
Pt 6.14755043004366 3.4139717643239145 3.678921830289063
