12
Energy = -50.37716664 eV
Pt 6.7640856893784 5.672659574002966 4.175710500317653
Pt 6.6942159566647685 5.62513136990331 6.738941973272085
Pt 6.6352462284502325 5.496744264537268 9.240675831946387
Pt 6.802860323157887 7.836212910008428 2.942623542353099
Pt 6.725827989638321 7.828667442779503 5.5016582093634945
Pt 6.658979854968208 7.749711170349362 8.103313907315918
Pt 6.615376033166696 9.99846654201176 9.198023666305538
Pt 6.690588994317976 10.035810018521895 6.730126170345216
Pt 6.760352885777152 10.096692833220834 4.250627811753478
Pt 6.7205666314347905 3.4056259380383938 5.297565784042497
Pt 6.660704686204399 3.306097019134195 7.820661192205871
Pt 6.589478346239252 3.26646458241908 10.318354939120084
