12
Energy = -51.31258855 eV
Pt 6.854441513521791 8.327891837809112 6.7862147582477155
Pt 9.40609039072714 7.679583862158892 6.7862147582477155
Pt 7.9309412799985255 7.190595531227252 8.902683653217924
Pt 5.5262414659797505 5.902058214185519 8.113462491703443
Pt 5.5262414659797505 5.902058214185519 5.458967024791989
Pt 7.934513745376181 5.463466155020433 6.7862147582477155
Pt 7.495274946696624 4.663117348900762 4.387576471518026
Pt 7.9309412799985255 7.190595531227252 4.669745863277511
Pt 7.495274946696624 4.663117348900762 9.184853044977404
Pt 5.5211300569068475 8.336379736819383 4.502434896335852
Pt 4.29235590722257 7.779333495796277 6.7862147582477155
Pt 5.5211300569068475 8.336379736819383 9.069994620159576
