15
Energy = -67.37847813 eV
Pt 5.675091928812595 7.1891171433309715 2.396011474274764
Pt 8.102071319165095 4.459555169916098 5.757905625886821
Pt 6.232114378080516 8.38414546611499 4.480574214411281
Pt 6.425531805109572 5.772809097918378 4.290801108385403
Pt 9.790434320256127 6.092597730429615 6.650752750292864
Pt 6.252007419641128 3.243007409165768 4.558429841259292
Pt 7.602586239588642 7.452604656948809 6.561360784794853
Pt 6.8475376283834555 9.875539838683457 6.423998531149854
Pt 4.757577308299664 4.702097845301985 6.006002058697363
Pt 6.597184037658926 5.260164703655946 7.599271336998015
Pt 5.120520028427884 8.061314820340549 6.813861960024556
Pt 3.328406671709798 6.321139652997391 7.268126276304737
Pt 8.4597601649251 6.51838204185727 8.781379832141376
Pt 5.103266160169373 6.713598359206011 9.026366018952983
Pt 6.930927000576098 7.178942474937016 10.610174597229353
