17
Energy = -76.87283696 eV
Pt 4.14351449372486 3.4615590475470808 6.873860404938344
Pt 6.605887289171407 4.114258382400894 7.24296353139898
Pt 7.004957907857409 2.9015571989853175 5.031981375109389
Pt 4.5821751051756285 5.630663172186539 8.135910473211084
Pt 7.22888658113374 6.373128937022491 8.412790533797239
Pt 9.048026686933383 4.9793849176712275 7.198060638530051
Pt 7.903472733876195 5.27668173371749 4.897427282063206
Pt 4.963496314375715 4.458604060512056 4.685853640604235
Pt 5.377554675728402 6.616015884627624 5.938407033905644
Pt 4.249425555984342 7.9330386586330865 9.061637369683751
Pt 6.416714470193146 5.382233016565799 2.810015728143345
Pt 8.389957731758791 7.368498569553331 6.385956673823742
Pt 6.703208444057931 8.657407072462684 9.240704480902153
Pt 6.803054364337927 7.561936938774879 4.068617754525121
Pt 5.241006757028222 8.908107781081636 6.9402944706233916
Pt 7.8498777105852975 9.668177061173385 7.1629530511710175
Pt 6.521658344836075 9.87837282218186 4.974813423694193
