12
Energy = -52.35073906 eV
Pt 8.637155809346009 6.984573016109721 6.185267704042204
Pt 7.526523372429985 7.988159846508945 8.477803988790205
Pt 7.671755483497307 9.318844753582079 6.10892454867935
Pt 9.092778372230164 4.52146767609682 6.307908758842715
Pt 7.46676897305099 5.344015120070189 8.120811925469953
Pt 5.359925208661023 6.623571943521974 8.81485904790285
Pt 5.738027882019357 7.59581176922928 6.526017506778858
Pt 6.653569143060166 5.013393321397097 5.734295533210893
Pt 6.906643784587899 7.589622456610057 4.2940723553103535
Pt 4.21243065767299 5.756330944204372 5.786660899161967
Pt 3.2605807025454734 5.576326918889121 8.068976156221174
Pt 5.451879892255451 5.665921515136896 3.552440856946016
