19
Energy = -86.84627574 eV
Pt 4.816408603238233 3.986614366820295 4.333807339887948
Pt 7.793637580650084 5.490411464381528 4.545873464676535
Pt 5.10283346967481 8.145338628033949 7.668821336705827
Pt 7.631650951805465 8.001860578136405 4.810109207597716
Pt 8.92359177740222 4.58416587299565 6.901490716838321
Pt 6.441821419079185 9.69651983272614 9.21109585603353
Pt 7.252693216820634 4.818291585725807 9.098155350140944
Pt 9.73780730956141 6.795968539628111 5.774909512673314
Pt 7.223111186111237 10.540053190951333 4.892611655275049
Pt 6.4368656994369005 7.173877433888808 9.680356615609616
Pt 5.379155071871204 6.453338625271749 4.620658957258591
Pt 3.3241534173191942 7.436096352399118 5.981406761857314
Pt 6.680932705782502 3.5142266856898416 5.9388011970358425
Pt 7.820708792253758 2.541803222219625 7.981405623030969
Pt 8.151106015667011 6.951555962177998 7.807610456629935
Pt 7.698904602319625 9.30682212372672 7.079184689681651
Pt 5.193393579176596 9.058501625954685 5.254709574697624
Pt 5.886057207071428 5.711613483433517 7.060303703649253
Pt 3.5564618048509904 4.905022335655775 6.347228942981906
