18
Energy = -81.8039366 eV
Pt 5.732412499033553 7.910193227551882 8.932922116495451
Pt 7.5473221676668825 8.095577901118414 10.671676455800391
Pt 3.711739317966278 6.531782190609403 8.169036974611291
Pt 8.208920207124855 5.751857736876911 6.094927371021267
Pt 8.333612292169686 6.6601573253918875 8.643925141524615
Pt 8.026896295561773 4.172841317235502 8.142082934251484
Pt 5.102580536426552 7.787860890221847 6.32779999238264
Pt 4.948149129726351 4.201084880508414 5.739645193381986
Pt 2.644164364343217 5.12519604579303 6.368636234325906
Pt 6.1835375027418396 6.335801926270068 3.2123321937706266
Pt 7.077178765438907 4.273667021740692 4.396151403672475
Pt 9.667521747312101 7.0082196152527185 4.318910504350024
Pt 9.003659124359874 9.16349381352892 8.85669923360771
Pt 6.047437922010892 5.660095511032479 7.48598374705322
Pt 4.082749239506767 6.271459243751179 4.569857756850772
Pt 9.47342808468796 8.101704409079378 6.5875984092173585
Pt 7.114849143401421 9.22071121367882 7.133222859715117
Pt 7.263128930061603 7.833831195566829 4.895028496766782
