14
Energy = -61.82573491 eV
Pt 9.979698372331471 6.91501880110636 5.774831116342847
Pt 7.937880813094865 8.252525232604853 6.428306586199356
Pt 6.159210978825899 9.046824829475494 4.715850320195248
Pt 6.518954454439516 6.538270114446777 5.058519630793492
Pt 8.6362115327274 5.4281505460540345 4.240555524232034
Pt 8.581764190074413 6.249993558291015 7.867522229358316
Pt 6.050825010078696 9.060424696664331 7.896684965499998
Pt 7.615286549334966 4.45474056792584 6.351613989102214
Pt 6.174440983408149 6.640941399754655 8.651722059464788
Pt 4.064202388351037 5.685819311934921 4.866806752923427
Pt 4.580202553478941 7.775838558218667 6.286716507326908
Pt 6.828254666955745 4.1356216550233 8.78210468878984
Pt 5.1216189919145165 4.859777247243558 7.023055417192802
Pt 2.89566462661729 6.100269592888671 7.199926324211474
