11
Energy = -45.9634386 eV
Pt 7.61892088852754 7.2873049684381055 6.13789257486682
Pt 9.274609221661724 7.409003647722063 8.143677734850584
Pt 4.744640347853865 6.233864998762336 5.507007874720676
Pt 5.468921081460445 8.786752528979191 5.992151359519134
Pt 5.9347311377257626 4.737033301736737 7.26683399614127
Pt 7.074302994054288 5.0449180484631135 4.895886881318762
Pt 8.560630957748193 5.036798723862887 7.0849417482070525
Pt 7.1184134278493625 6.222750977538682 9.041081982617836
Pt 6.954125646115939 8.780817317119155 8.185348303135038
Pt 4.923996491487373 7.0900286677106 7.957142758834609
Pt 6.384518722165431 7.428537632080873 3.845845493965765
