19
Energy = -87.78400907 eV
Pt 10.61272463295931 7.9477651365488855 6.755238124331512
Pt 9.927259514177466 5.501821994778254 6.67807773799346
Pt 8.24122857772243 8.102842904092062 5.769765107486726
Pt 8.654654553205054 8.600459882220404 8.272518111748596
Pt 7.912422926856167 7.0881628335854625 3.426800833603034
Pt 7.818365926654671 5.303543074430324 5.286470618014155
Pt 5.858172944758906 8.183360196093627 4.796918739266082
Pt 8.374146538504174 6.132829477458723 8.507460953003458
Pt 7.796557405448849 3.8353471519976012 7.371544472084755
Pt 6.686757190241094 7.60098304892911 9.820866365348975
Pt 5.71291678849357 5.777953121682773 3.8229709440428854
Pt 5.925025045594472 5.397461028435969 8.405455382938744
Pt 3.5717573045948305 7.338309784219427 3.7233477928197587
Pt 5.53534744417315 4.28746876838861 6.141379474510755
Pt 6.146077554239227 8.23588190739474 7.369676981108559
Pt 4.197673051969552 7.205274705518617 8.832985351435767
Pt 3.959914064116086 7.237040845832011 6.27966000622788
Pt 3.4144520973306505 5.00961541209178 4.921617434458766
Pt 3.4117720888443697 4.971104376185798 7.574471219460324
