18
Energy = -82.37476358 eV
Pt 6.835462345439305 7.2209874604797575 2.4200138099146806
Pt 6.655187580487139 8.980164214625512 5.738389777757593
Pt 7.560088230457351 4.7885049458713995 6.884965748807417
Pt 7.581872764449431 5.753866567255149 4.485655060706336
Pt 8.277921837834265 6.325164557568462 8.832843672793825
Pt 3.80880744564144 7.337553081306714 6.463874269137327
Pt 5.474624857752392 5.010312187004314 3.0467080345066764
Pt 6.622771431785257 4.244214326499071 9.370009357899887
Pt 5.065838973012211 5.7452499065409475 8.019334708232458
Pt 6.148894316609385 6.651771677148337 10.343806602598573
Pt 5.4581350044394705 3.180088210600532 7.326644390798248
Pt 6.4607735848789645 3.4185288264927505 4.925078372282167
Pt 4.685961273636292 9.609140413346154 7.204511350051885
Pt 8.48287299515697 8.252569408926922 4.10765329440699
Pt 6.405500063665392 7.981941056730408 8.161711486090562
Pt 8.563212668257803 7.187277648727211 6.460592613869419
Pt 4.494520272176293 5.0061167889876055 5.594342954202099
Pt 5.297148394222383 7.248990844681017 4.422319419653282
