13
Energy = -85.13758295
Pt 8.509152903433984 4.600491277546491 4.412929381046993
Pt 8.188886325133986 5.941339930872 6.552437930754695
Pt 5.696046198788775 8.154707049291787 7.487028577068544
Pt 6.638335486034189 3.7747825323877873 5.928490375052504
Pt 7.70507781747272 7.131080319115283 8.733560828847203
Pt 3.7404778410004558 7.658254833149775 5.9065473991720525
Pt 5.103051953436285 5.39225592901859 4.78785924987494
Pt 3.5528470031630692 5.230369831193461 6.745067035791388
Pt 6.6487236816848805 7.4701023537414635 5.270336676179708
Pt 6.880279587392652 6.11326882568183 3.168557228531237
Pt 5.740917354572312 5.682823586983736 7.906173934509301
Pt 4.748952036107525 7.650114250180575 3.4597263449044755
Pt 4.905409909725273 3.2585673787836957 7.699443136213312
