13
Energy = -56.91590235 eV
Pt 8.274161550509051 6.138461095792815 7.918123667490027
Pt 7.69628126392915 6.641045834192676 5.453641247624489
Pt 8.250960763996016 4.199376658143147 5.836684600808079
Pt 6.948200013115567 8.29799833371658 7.132407804755411
Pt 6.2110898517839015 4.510994448971476 7.301405163307326
Pt 5.766753719614615 6.569005420154365 8.810316453492092
Pt 5.828044378874174 3.161763220760033 5.128719126352684
Pt 3.7499382851679415 5.308358355226416 7.675086091248949
Pt 4.352046397540981 7.6204260974483455 6.748320137805413
Pt 6.818956840065151 5.119967034930337 3.5380671884256985
Pt 5.451344404641834 9.504917464718424 5.450837217024142
Pt 5.95484714514483 7.55048666139344 3.8923434577256324
Pt 4.924715010062995 5.585174451608063 5.300286739124063
