19
Energy = -87.28835898 eV
Pt 5.878208736327712 5.143780562258783 9.456204064709036
Pt 5.724285679156363 3.6750017958377112 7.356863514293052
Pt 5.2072785839045865 7.758840924454494 3.5408439718315705
Pt 10.181079291487057 5.587858483644294 7.348101844917331
Pt 3.0621922427493478 7.066629138625652 4.774658389614648
Pt 8.73187368396281 9.374857841248094 8.982675291058017
Pt 6.471259919308921 5.928706023563948 4.840289323297114
Pt 9.050267433107605 6.339026900587552 4.876283760202319
Pt 7.8451548357778975 4.837737114520751 6.650362142394918
Pt 4.775510614882645 8.614073321221245 5.950750110483664
Pt 5.304345087574397 6.883285512126313 7.7776806794839235
Pt 8.588115680845469 6.8089204096254194 9.01340376860525
Pt 9.303185928176527 8.017363736332609 6.837848518111848
Pt 4.3465097021167685 5.301615013895085 6.030731123048826
Pt 6.452579144769348 9.210753159758676 7.783466187974502
Pt 8.285215535548529 4.347840766045333 9.14216594278844
Pt 7.231007710299095 8.326815025044644 5.184616676620234
Pt 6.4328334556756195 7.668304613289514 9.971950948425622
Pt 8.336041912721026 10.344309382195235 6.419411929604556
