16
Energy = -71.67625451 eV
Pt 6.271436262941894 3.600304790377905 8.425360586120485
Pt 10.21038114844796 4.861089490897023 4.685728860277355
Pt 9.42998735489581 7.295501880505513 8.457139694469195
Pt 8.810008424145567 6.17591149020628 6.247166189359072
Pt 7.76577463872447 4.904904865602648 4.313580747905261
Pt 5.955684390072564 4.59118569958188 6.1211231625013935
Pt 7.22179884664568 5.9803025262496625 8.262175608777177
Pt 4.564113749137811 5.453036723805246 8.287544605301601
Pt 3.7966687146309863 6.203961603483086 5.811686335221021
Pt 6.708267513390914 7.4340064994341875 4.471589135975846
Pt 5.479937711371193 7.950667733499959 8.784281418395375
Pt 5.252649792389648 5.470958781089584 3.8365058325235206
Pt 3.0991922125262508 7.559250373396941 7.866080913270313
Pt 7.475808710249012 8.25456322245135 7.115898754863077
Pt 6.938950539107842 9.880522067809896 5.225323048651523
Pt 5.022420616407684 8.386912876694124 6.091895731473502
