15
Energy = -66.30430511 eV
Pt 4.168914991695219 4.780824943703528 2.5450929151986004
Pt 5.090060856746073 7.278987701252673 3.2108992891141304
Pt 8.72141042847572 4.97865443520221 4.792232911824229
Pt 2.7447631650403976 6.282683912117025 4.169339792753024
Pt 6.385365106960349 4.979877101293323 3.6519167783643796
Pt 6.88190856097613 6.944738621301474 5.1597588251207105
Pt 2.744871604157712 3.7000298210407645 4.449564186646286
Pt 5.081763910367731 2.606542420172422 3.973205748915287
Pt 4.4454279927782006 7.056215910131482 5.819933271039533
Pt 4.334113211005653 3.12938635933037 6.458401861667908
Pt 6.758362679166605 3.5809106823676378 5.776857961183281
Pt 7.718408645186802 5.601232564994809 7.165640551371452
Pt 2.6537907667354745 5.145095387788868 6.65611238474737
Pt 6.161638490435908 7.68463117548338 7.668419123308799
Pt 5.147020073411139 5.288009446959411 7.5404448818840955
