16
Energy = -72.09994462 eV
Pt 4.637878165509268 7.907273199382483 9.744562207748872
Pt 6.3748093613614305 8.22971915138647 6.55067721429902
Pt 3.868078354684813 5.876765998780844 5.098364624435454
Pt 8.973751892759667 4.139154009037525 7.722176883714976
Pt 4.298951191978677 6.9194687139687385 7.4328635933436
Pt 8.85071669462324 8.357304067805224 6.046195202634108
Pt 6.247674412906216 5.414694681036152 5.9210243403159835
Pt 8.797607283533958 6.615578069975928 8.230669277012911
Pt 3.9547135170969847 8.466146977465868 5.350720172170694
Pt 6.343969600268361 6.142949630756763 8.967189392701634
Pt 6.9118016579086925 8.719491196160321 8.977915907178167
Pt 6.498184542580363 3.8759494145950506 7.904186426023087
Pt 6.004332919875077 7.277159332837537 4.185882399688437
Pt 9.349707229289196 9.128935347932748 8.38693404051825
Pt 8.481439007538038 7.247476023633357 3.787500949742423
Pt 8.750865688269549 5.5984733866619445 5.688882418965086
