19
Energy = -86.916832 eV
Pt 8.82995100421256 10.224954436282937 6.121982025366526
Pt 5.598478117573955 5.338640792723578 5.047199190101337
Pt 7.020681646459783 5.385565098851101 9.058062617817424
Pt 8.032917052657762 5.671127778579184 4.042069491318465
Pt 4.603105009678905 4.768288176423629 9.620715924828701
Pt 9.227197626467081 6.506983891238976 9.362498138220943
Pt 5.761856335083544 3.810655139659998 7.233136869274645
Pt 7.707596933105367 5.404840286271498 6.557901874305856
Pt 4.394810854185242 7.77492442485185 5.57650954784096
Pt 8.661538161099397 7.932157180208345 5.001146903331276
Pt 6.210728533588536 7.599397535696155 3.7986477533376877
Pt 4.195308450909984 5.798156325723464 7.273462280033821
Pt 10.021827374490144 6.310425745838156 6.943174901119128
Pt 6.077497146732893 7.596809406992252 8.160381884449656
Pt 6.543398343449308 9.071440995423055 5.998697712503508
Pt 3.975238844323381 7.268861370030876 9.57514087785928
Pt 2.715853235870521 7.896302129945855 7.4474338116041165
Pt 8.486073063915882 8.332515983819993 7.800476679183608
Pt 10.51093031938041 6.212831110647983 4.463669462910089
