13
Energy = -57.48509642 eV
Pt 9.519653942086487 4.901749429404973 7.644129333464061
Pt 8.800712604561088 5.910110377588948 5.449119726048968
Pt 8.050743071858617 6.8118704674606905 8.67444174728815
Pt 7.5753385783386324 7.515019299157769 3.8186499416565134
Pt 7.306724695336397 4.0622057621738366 6.777236346339041
Pt 7.4526065130169945 7.8312612444892205 6.428040093026439
Pt 5.911100472900095 8.322826147460392 8.3829490311651
Pt 5.846351722018338 5.823637661576097 7.883215542012816
Pt 5.403471112048447 8.304719719034097 4.990325476777764
Pt 6.1259310789795425 5.667815471072572 4.91722936523757
Pt 4.749871312495414 3.998291417074204 6.3409736337871525
Pt 3.843186181422648 8.911184696073724 6.872760821143709
Pt 3.9252617756522534 6.450261368148564 6.331882002767796
