18
Energy = -81.49287063 eV
Pt 10.715670529245003 8.431866600923835 7.243277320808032
Pt 8.562081317502278 9.596793095676956 6.440834699179644
Pt 9.308189250947407 4.170879500089087 9.381641518634334
Pt 4.892503551346139 7.032892994721411 3.787999299769408
Pt 4.448744782567428 9.420499793988597 4.65236493829255
Pt 7.293008554485935 7.8672069814928385 7.850156266959572
Pt 5.501760978395746 5.438048433664425 7.467179440894349
Pt 6.164432410056389 3.3941658087692064 5.921421135484221
Pt 2.831568776795149 7.156486375637969 5.346755998885742
Pt 4.892741222000465 7.885708241084897 6.72098490772403
Pt 8.913168287208743 7.034223005785914 5.88964106526411
Pt 9.64537534237174 6.527568736703238 8.457269825409382
Pt 7.25721191535729 5.695417935098862 9.417669257161744
Pt 8.184344307109967 4.659997288896209 7.091460357193131
Pt 4.197215015956202 4.974997812530905 5.292633340092578
Pt 6.8441392132799574 8.406476139900095 4.9339224110913396
Pt 6.826387550510637 5.760589899712115 5.096270858505605
Pt 5.217158608309135 7.283437867576401 9.308411753119765
