17
Energy = -76.71112803 eV
Pt 8.747562118687089 5.103911375282527 8.195280532713822
Pt 5.1543038818096445 8.540030773302934 5.926200900071365
Pt 8.574540572869957 7.50409832160492 3.8191925301357146
Pt 8.692778387671284 7.736596084975188 8.224094838636903
Pt 6.419201958339092 3.9233037940848208 3.840891955984363
Pt 4.1456255290069075 7.736596084975188 8.224094838636903
Pt 6.419201958339092 6.418934696382982 8.304747219241285
Pt 7.814595532097294 4.459680161033397 5.887721760611532
Pt 4.090841797991087 5.103911375282527 8.195280532713822
Pt 6.419201958339092 3.8198839932569864 8.087057710027421
Pt 6.419201958339092 6.336795523360845 4.679604611209831
Pt 6.419201958339092 9.069903388667488 8.134387414814343
Pt 4.263863343808231 7.50409832160492 3.8191925301357146
Pt 5.023808384580886 4.459680161033397 5.887721760611532
Pt 3.4462374166781795 6.434489253286989 5.987381671035079
Pt 9.3921665 6.434489253286989 5.987381671035079
Pt 7.684100034868523 8.540030773302934 5.926200900071365
