10
Energy = -41.64265756 eV
Pt 7.242473306117274 7.017575133937992 5.7921017860083355
Pt 8.054036436616162 8.224441513060787 7.82219351564224
Pt 6.106642132396842 9.68571501440045 7.874083821853008
Pt 5.0156258983768724 7.956795577755628 6.500164082903415
Pt 6.076221573853585 5.586923477312485 4.063160077343713
Pt 9.179101417636918 6.248074405014223 8.687507185416775
Pt 3.831886148899258 6.455628350279145 4.8792290109752345
Pt 5.197578385289474 5.338636697276339 6.758539602386701
Pt 7.763117720296713 4.954674579531493 7.1447382374290616
Pt 6.534830552079558 3.5330488229939725 5.479796251603762
