18
Energy = -81.82076784 eV
Pt 8.031471289196247 7.579453552415955 4.121080655701336
Pt 5.112595040610815 5.588924983306755 8.03162830387747
Pt 8.517703371941023 4.451570589932641 8.55075785557263
Pt 7.259043828343543 6.620157433491041 8.967839514921698
Pt 9.070508486328247 8.53709428859962 8.162491390632468
Pt 9.312022969425414 9.354458917936448 5.803621143636115
Pt 6.785429336175693 4.1512450157403995 6.705192625923415
Pt 3.5206554383871405 5.654650806329895 6.04705667046593
Pt 8.051055506014501 8.566920900395907 10.493739468869261
Pt 10.531972941622097 7.28782141925145 5.0084879594681055
Pt 7.413961332213903 6.560068081325698 6.347192614798077
Pt 6.455017843140971 9.041708480536089 8.532923840649888
Pt 5.5227000540587 6.9230594172300615 4.71907611899581
Pt 2.8112398572429838 6.662845396423272 8.31773255246813
Pt 9.768263735381813 6.205014771118042 7.162168309656017
Pt 6.755766375282399 9.012810753397229 5.966655629205856
Pt 5.242164734344309 4.37766184208421 4.6762108381045016
Pt 4.605475749101497 8.013862960311902 7.103034251072999
