11
Energy = -46.84318868 eV
Pt 4.683596180240011 6.770948490679361 5.701371689969854
Pt 3.531588635242277 5.631036025962781 7.6247588188042155
Pt 6.041869703406281 5.8249467273766715 8.141091550699258
Pt 6.657008065597344 8.242301846129303 6.550305825599384
Pt 6.351212733304631 4.786855916480732 5.632912893991482
Pt 7.77135251176526 6.056706563413589 3.9954609843434743
Pt 9.140112391678567 8.701841645941519 7.030195288192686
Pt 6.127310729427326 8.038504294384145 4.065274577954852
Pt 4.994385452833555 3.568618893187078 7.3698730989840575
Pt 8.319134659886029 6.317934819570879 6.482715926938222
Pt 7.79569270207737 7.473568542332852 8.819303109981428
