10
Energy = -41.87777739 eV
Pt 8.95922311906449 6.205273755003199 5.486287141692748
Pt 8.649038381083146 7.308098043556152 7.752635687721802
Pt 6.968416038138085 4.748635739643301 5.98725595628071
Pt 6.670606242079474 5.829909079938102 8.233636386177071
Pt 7.094105600846451 9.081645181634629 6.79982775854928
Pt 5.074710579627292 3.9821851946387175 7.507084681250545
Pt 7.422291522096423 7.992530157619934 4.531600036385193
Pt 5.121734892532769 7.572650259347366 7.211349945293955
Pt 5.435166335773526 6.505801274284671 4.960186975653203
Pt 3.5458109609473722 5.714374986523478 6.4712391031847885
