13
Energy = -56.2669787 eV
Pt 7.055790251848574 9.428751697641239 8.951740977877447
Pt 5.063378257934342 5.125239826792104 6.875272271777501
Pt 5.728699360282268 7.253154099380043 8.234532595510899
Pt 5.728699360282268 7.253154099380043 5.516011948044108
Pt 7.055790251848574 9.428751697641239 4.798803565677558
Pt 8.177702254111308 8.35425754742413 6.875272271777501
Pt 8.072488472411836 5.730382605523294 6.875272271777501
Pt 8.264614726867457 7.069993824148502 4.581661794515045
Pt 8.264614726867457 7.069993824148502 9.168882749039952
Pt 6.753981286875283 4.9300977698094375 4.799817531503454
Pt 6.954408748614273 3.28949263600169 6.875272271777501
Pt 5.504390505327447 9.51517209244669 6.875272271777501
Pt 6.753981286875283 4.9300977698094375 8.95072701205155
