13
Energy = -55.25876934 eV
Pt 6.879339640145068 6.3334739154108295 4.427794845426938
Pt 6.767715905256264 5.105454068331716 6.667217512045845
Pt 6.609310446017894 6.42351062943498 8.826722333689817
Pt 6.880705107661003 8.8319763598447 4.3397809648343335
Pt 6.745013042584417 7.657618675415275 6.6109028103048155
Pt 6.593519770050555 9.03134807075995 8.704393513054985
Pt 6.5885093844713625 11.513346705005763 8.671220236361
Pt 6.7578808482284805 10.309879988205461 6.49837022662059
Pt 6.9140874501833585 11.313099680585356 4.24629579540747
Pt 6.864635713695702 3.736311854377826 4.523276958069113
Pt 6.837836402065655 2.484295413084746 6.6867202902160505
Pt 6.823235571778613 1.3851175698981502 8.899209721343592
Pt 6.735716976247638 3.8720731914456024 8.895600914426494
