10
Energy = -41.82683247 eV
Pt 4.542535492337432 4.337883690801245 8.025585396698403
Pt 6.6405442169021835 6.089670400053382 4.32470101550306
Pt 6.870872470837563 5.439722142363492 8.343111717246266
Pt 6.150262124080284 4.325100698707827 6.061160425224842
Pt 9.108764546711043 6.418494343261676 8.626728868753538
Pt 8.024396740580094 6.68699933668693 6.414555658062396
Pt 5.0128645774598874 6.535579143950159 6.799432176431487
Pt 4.089292171116182 8.82457169781936 6.714448176027543
Pt 8.372952765176983 7.936508691381858 4.194064608980215
Pt 6.196995103446455 8.414950063622053 5.505692165720484
