13
Energy = -56.30893189 eV
Pt 5.6897198723061475 8.472272073791165 5.0724980911940465
Pt 8.015418691993224 8.0783805887758 5.991459354009971
Pt 4.119960391940524 6.490995294137793 4.31485532801401
Pt 10.35349207699553 7.287220035231398 6.740466219042724
Pt 6.632237707541688 6.036896817716843 4.554742900562464
Pt 3.5466958670158863 7.7206238788043455 6.579736691623683
Pt 8.31945730913024 6.065470773943436 7.789209227153148
Pt 6.024097706957822 7.430585131652321 7.532812158485591
Pt 4.889019912545582 5.308557784757441 6.488922765551938
Pt 3.924913869008197 6.33715839991272 8.731869580486196
Pt 9.073035287329986 5.670011319321021 5.212887147742619
Pt 7.216153894992548 4.154214945740729 6.292714032909139
Pt 6.193588207749553 4.9755699397579125 8.731031301179323
