13
Energy = -57.20539463 eV
Pt 7.143301908456352 4.45021587439111 3.4473071229553782
Pt 5.0670836646121185 5.822566666920621 4.101890860472237
Pt 8.231600435171545 4.341276423978094 5.770939318913766
Pt 4.623188885332635 5.969837558661909 6.651082252896238
Pt 3.690239787384716 7.756874307824121 4.928490528565382
Pt 4.912800666247412 6.120129709143949 9.190318535759857
Pt 6.7109357348102785 4.9886280708174136 7.7612193532661875
Pt 9.367244878737624 5.1266486815749985 7.867383840280214
Pt 7.3023964853337215 6.496305102398778 4.949498829372905
Pt 5.793169641834342 8.19124034224908 6.312034556059309
Pt 7.926193383748645 7.186425329198037 7.4493794162189255
Pt 6.125831256755685 8.319032850642447 8.82724041442595
Pt 7.6286330010319965 9.753438811656645 7.265834700270594
