14
Energy = -61.77139656 eV
Pt 6.38364851105869 6.435321949600813 4.898913068220324
Pt 9.002962212286578 6.3756577884853725 5.130820047924421
Pt 3.7779170099397974 6.3849857858062045 5.192085669874336
Pt 7.678680017330418 8.709128960113494 5.162951474077611
Pt 5.1046034980711354 8.709293085726646 5.2019103943356235
Pt 7.7192836471410216 4.1635014528943675 5.130488238881752
Pt 5.056227067912166 4.164966707089959 5.158979268228671
Pt 6.422054396455986 8.194288263255523 7.42225125216305
Pt 8.94741537054946 7.796345466423948 7.3667426049478
Pt 3.8974187262329076 7.794007515147684 7.434287514002542
Pt 7.769714310137448 5.519758033294678 7.435016290681836
Pt 5.055179963387942 5.510307522318077 7.458777902881525
Pt 6.415785395873841 3.3244237453408854 7.276618392766632
Pt 6.416840454763293 6.565744341801904 9.377888462153926
