13
Energy = -56.43530342 eV
Pt 3.276070218723895 3.726008118405289 6.1646386843932
Pt 7.427812563996422 5.482302617154224 8.396086432103555
Pt 2.8553507166175778 6.28474659579026 6.303293988435237
Pt 5.458111429609586 3.8263161095637863 7.565941380878878
Pt 5.141101745022367 6.339898692698706 7.502288798944453
Pt 5.06710216853086 6.872813852842721 5.033261810588725
Pt 4.854726834751722 6.874680722144079 2.4410282628612
Pt 7.372821203405377 7.36196921360125 6.203256031282716
Pt 7.422535661541585 4.761391409967767 5.937084866030492
Pt 5.581784187293499 3.4529816676141682 4.954877508469285
Pt 3.600202781853491 5.133028623996647 3.9630095825943936
Pt 5.721828738617396 4.3795263213693465 2.6021622217248264
Pt 7.139603027865166 6.174118277318555 3.819747539131809
