18
Energy = -81.65036559 eV
Pt 9.85820179554155 7.642138867833054 6.966394266027648
Pt 9.821688698324795 5.1681384037562195 7.822594722369501
Pt 8.286147831597813 6.853741336546867 9.027006295227377
Pt 8.851410187013917 5.616275033435899 5.454119813148346
Pt 7.744696891776609 6.210761918556642 3.232768009784373
Pt 7.759942083351568 8.139424375928588 4.939014077447675
Pt 6.292588489017648 10.225614627224873 5.55725091934224
Pt 7.54505086668497 3.998693728153102 7.316226440195468
Pt 6.816341580575311 6.509679223658849 6.857992263722479
Pt 5.960478039534259 5.25340458797291 4.787556610430623
Pt 7.638139987794046 8.927772151500674 7.497134005044079
Pt 6.220994843363586 5.256139052909497 9.16644025610625
Pt 5.907440696359575 7.861107962738246 9.715512253489804
Pt 4.37971071807997 6.726207485215624 7.862850617360118
Pt 3.4984323241575117 5.865246895297899 5.530143033800355
Pt 5.070536813713103 7.907325559543111 5.350694956099632
Pt 5.067724414573266 9.27133378725761 7.65168325743768
Pt 4.929303659579877 4.20597526382514 7.0104235131520785
