12
Energy = -51.54090621 eV
Pt 5.386109525048121 8.265201283300575 6.319786786020556
Pt 5.386109525048121 5.547955138908127 6.319786786020556
Pt 4.624566431268958 6.906578211104349 8.39171058126483
Pt 6.906578211104349 5.46871148032697 8.349667329056762
Pt 8.427046897160574 5.547955138908127 6.319786786020556
Pt 8.427046897160574 8.265201283300575 6.319786786020556
Pt 9.188589990939736 6.906578211104349 8.39171058126483
Pt 6.906578211104349 8.344444941881719 8.349667329056762
Pt 6.906578211104349 9.42626367093063 4.646739917611267
Pt 6.906578211104349 6.906578211104349 10.391662134067046
Pt 6.906578211104349 6.906578211104349 4.431893556275738
Pt 6.906578211104349 4.386892751278062 4.646739917611267
