19
Energy = -87.53127366 eV
Pt 7.3681205407287536 3.8234950231133236 6.848770521869509
Pt 8.260679145611496 5.919420428732487 5.328080303103361
Pt 4.883303579719649 2.8452565611758813 6.180166729688725
Pt 5.9441288374353975 4.898926091581573 5.024139648613417
Pt 10.462819124481001 6.74933474097339 6.752733838599321
Pt 8.34852825650218 5.905941485868264 7.907389592664875
Pt 5.372134615261889 6.837742553876988 3.568948804246468
Pt 7.851706751940342 7.401565418005964 3.248026101028522
Pt 5.43448263518426 4.075893872665038 8.482129655641078
Pt 8.900568232765469 8.433840459734043 5.511941306279863
Pt 6.420194558991156 6.215898562727436 9.486220338800665
Pt 3.4609703122234445 4.909378591935938 5.705717279371252
Pt 4.796871317339112 6.22977777496037 7.4018297203464725
Pt 6.389593971776962 8.446029603175875 5.238789928683291
Pt 8.84979387421167 8.380893347911162 8.10053712382237
Pt 2.9914751302488285 6.995985995002313 4.404503941435699
Pt 6.243469898655815 8.41511128013693 7.7867273914008175
Pt 7.3270467385396385 8.551059154150638 10.122725542039165
Pt 4.084055530983609 8.35439210687276 6.290565284965485
