10
Energy = -41.749799 eV
Pt 4.008644778693273 6.059591066936823 4.024724992260792
Pt 4.973285618536954 3.659496393402957 3.800763161032384
Pt 6.043710272940538 7.541198204641232 3.6499708699871003
Pt 6.659948169763156 5.323582190822216 4.8756295715691715
Pt 4.785251313612182 6.159474567138694 6.4785257604750806
Pt 6.283748248296876 8.197611378783575 6.081429319432222
Pt 3.282748917481208 4.163872233752103 5.7503439945824715
Pt 7.932873464138818 6.443662287537047 6.802016079586159
Pt 6.366124295596339 5.052179824635305 8.217323139751688
Pt 5.704359715716278 3.4400266471253995 6.35996790609841
