15
Energy = -65.55678925 eV
Pt 7.7659502372369635 7.13107753024304 9.531064641632852
Pt 5.5497465571258155 5.801965687272387 9.890776806165574
Pt 5.557985538291645 8.445225943162148 9.98951427924049
Pt 6.8004989549896395 4.828951795857778 7.8259202912024985
Pt 4.907511305152375 7.208835319283694 7.792813481884927
Pt 6.803904875288645 9.578432201239883 8.008668230233104
Pt 9.37910054038747 8.55284749329747 8.030036673501975
Pt 9.377401252244802 5.837015160434558 7.916070069611925
Pt 7.40763179391804 7.242172571438799 6.914679834307042
Pt 7.504873747836014 7.347848873003255 4.2202007762152345
Pt 5.560128744441639 5.935925738283769 5.596792103024095
Pt 8.1846783692734 5.071698562892216 5.54273522001763
Pt 5.561997926568396 8.655240195960676 5.707199413203202
Pt 8.191001000961117 9.510800364635958 5.719353860086004
Pt 9.75823502840909 7.292866372622332 5.59172381486092
