19
Energy = -86.95840538 eV
Pt 8.53583753064676 5.597465044038299 3.938039744022439
Pt 5.395063271044447 9.219548712336636 5.1014099197206395
Pt 4.011870853648889 7.082975636314643 5.359762339746789
Pt 8.671247108455267 9.050499492947987 6.322360357984218
Pt 9.27925338595884 6.485766531328957 6.39620977201351
Pt 9.929546264004554 4.1361522824434696 5.535027534853465
Pt 5.753803151987778 9.309772593373419 7.589536304264925
Pt 6.405569234973101 8.889462837858662 9.993666809389202
Pt 6.003876738877974 6.015052558155357 9.44140171044648
Pt 7.630717956185824 7.537235169596205 8.120357834453161
Pt 7.314913871323159 3.9234600926563705 5.7114014050647866
Pt 7.931357867268604 4.907614745144254 8.21431196734594
Pt 6.972357888120829 10.977578696224914 6.084772524999579
Pt 5.841892316955212 5.557118367019092 4.200144565347768
Pt 7.22884910164032 7.543650319833584 4.972827856314003
Pt 4.127464201471882 7.385841333248503 7.918931827025424
Pt 5.787355583680699 5.696537289049301 6.814395790996819
Pt 8.901602325776606 2.71078098531721 7.373533160709862
Pt 4.232072379947101 7.691267886587402 10.434021150741087
