17
Energy = -77.43105461 eV
Pt 9.423901183913657 7.943410889814122 8.13473507926565
Pt 8.162454380804679 9.113761661864244 6.2665836877060626
Pt 9.278297675626586 5.690938721440342 7.059516654742922
Pt 7.475926899083783 11.018360876308597 4.824638815693698
Pt 7.185110127311537 6.5928380989822575 6.000874665664254
Pt 8.666207927623512 3.4561978485205573 6.0433690259082
Pt 6.868664986432708 7.946220674612226 8.18910724218753
Pt 7.015694091981766 4.553527283743083 4.512371130419818
Pt 6.02319104359747 5.979752898901126 9.55767986754912
Pt 5.694891742254643 9.470351711373883 5.5213345529051585
Pt 7.0822907595560025 4.507316101508123 7.755671023049384
Pt 4.638507594947565 4.339166911422344 5.504624100040569
Pt 4.3642598513931965 5.86309686351502 7.658104699225537
Pt 5.020999503204714 5.567440627312245 3.292168031008871
Pt 4.449837750861316 8.387005943132218 7.4834320636066
Pt 4.774594576047808 7.10390517531055 5.266036852814826
Pt 4.792307885041214 3.383845691921201 7.846890487893648
