16
Energy = -71.594038 eV
Pt 7.816190945354754 2.778328641207079 5.521503106095146
Pt 4.189492815974301 5.717079922797364 7.026344444998872
Pt 3.219900585074819 8.145506099756783 7.480675197750868
Pt 6.491816823608534 6.093547248160906 8.262877331212376
Pt 6.906663901375144 5.12529610379868 4.809642189848688
Pt 8.154200016063973 8.225668840030501 8.5561574049587
Pt 7.1102321738358025 9.639653488522336 6.61501068394126
Pt 4.511780698749122 5.87437638059584 4.49308260310044
Pt 8.713452807157491 6.293761113093318 3.337216275196553
Pt 7.616166912286826 7.725196679759618 5.03961207740143
Pt 5.206437654833191 7.952013924633345 5.79134308648054
Pt 8.650951638019732 6.338694923164473 6.928302793404705
Pt 6.065789693104086 3.975078357759557 6.896695097862721
Pt 9.46826687002271 4.733976586464933 5.203411253989254
Pt 5.581814183037202 8.533340513182157 8.400087499815964
Pt 4.170954034351829 6.604985270660557 9.449417811274069
