12
Energy = -51.57841901 eV
Pt 6.992636475592949 9.470131 6.847095055374351
Pt 7.943041712812993 7.497365453354334 8.235592954825698
Pt 5.743413523842698 8.716858872783193 9.027257590671603
Pt 7.950776586906006 4.977331237965505 4.666932520077101
Pt 5.743413523842698 8.716858872783193 4.666932520077102
Pt 5.751148397935714 6.196824657394363 5.458597155923007
Pt 6.7015536351557525 4.2240591107487 6.847095055374351
Pt 7.950776586906006 4.977331237965505 9.027257590671603
Pt 4.483084354761154 7.978748829610307 6.847095055374351
Pt 5.751148397935714 6.196824657394363 8.235592954825698
Pt 7.943041712812993 7.497365453354334 5.458597155923007
Pt 9.211105755987548 5.715441281138389 6.847095055374351
