18
Energy = -81.57765879 eV
Pt 5.556088955115302 5.1491510415020825 4.681410420696684
Pt 6.6247389040033156 6.971610291730039 6.826501517819243
Pt 7.1310229357863095 9.484184265287146 6.292928310051473
Pt 6.886242185173959 4.281152777312098 6.945003396126398
Pt 5.103132605708638 5.3045211467781375 8.764880204267262
Pt 7.7911611836989465 5.9291873234452375 8.978288080792863
Pt 4.322581987342793 4.066463202855293 6.656440230179781
Pt 7.376025939556951 8.551092485624096 9.118686389743493
Pt 9.400391189005614 5.021920697996501 7.215202765754008
Pt 9.183581809443057 7.614111987911089 6.770436829112973
Pt 8.250834454379056 5.719775693038121 5.029681762734362
Pt 4.779477396985814 7.888787913522806 8.459230737438286
Pt 6.913968641400358 6.412323717572668 2.9162638023809837
Pt 5.63488730008142 8.06364222646134 4.680958058730108
Pt 6.029535220267983 6.903349054849989 10.579066226660077
Pt 4.069191478643791 6.733474538106016 6.253100570043957
Pt 9.082704863541542 9.913579265415935 7.921808119510191
Pt 8.233889960223465 8.263618793106646 4.246905522492242
