14
Energy = -61.60296399 eV
Pt 5.954382031117158 6.825594913358003 8.468254369569093
Pt 8.579131614614974 6.942968534469564 8.751441015887478
Pt 4.950905613760566 4.369703653047263 8.778437082149729
Pt 7.504341605272052 4.577321241774373 8.50259253153783
Pt 3.7533904603551003 6.003960378972338 7.190653302366055
Pt 5.962659515460263 4.651136300590561 6.320744365717351
Pt 8.162044391871039 6.040658489551836 6.381243264425935
Pt 5.439005931732492 7.7400661703496665 6.081949907554383
Pt 9.632762566739533 8.220393698070717 6.666963657249831
Pt 7.23483547730244 8.91227681671726 7.583841474280354
Pt 7.7431358579868705 8.176602479310427 4.93738777295234
Pt 5.679317604018646 7.875951841722263 3.4496277196439533
Pt 4.345865354033642 5.904652616709702 4.649181497729531
Pt 6.932486224882997 5.632977102181751 4.111946294245508
