16
Energy = -71.07458195 eV
Pt 10.756399026061029 7.784955846746094 6.295959795395825
Pt 6.437386728921972 6.5547749764144285 5.438247469908041
Pt 4.260887194948955 5.175547896489688 5.760206539032472
Pt 2.7154659234780323 7.1191226539764125 6.211438958769231
Pt 4.613929242531978 6.47481747710312 7.941075835037237
Pt 5.928292663531662 4.513269818525147 8.94774772580272
Pt 5.471200924508635 3.2135772819450614 6.720869827996284
Pt 9.016846042726195 6.087579530262727 5.108252675240869
Pt 7.031735816322657 6.898542013600049 8.604767050368233
Pt 8.267261449471572 8.49594501102658 5.917043434577
Pt 6.728515408059507 9.294330320696085 7.769544284689619
Pt 4.843480670599577 8.483191503300699 6.307493615802641
Pt 6.390719496952581 8.856840394298269 4.2819209497537525
Pt 9.42909425551327 6.041529612046272 7.690800713500286
Pt 7.482911934439591 4.706120120964896 6.866331143112392
Pt 9.187160830554047 8.529655896647759 8.393945966514947
