13
Energy = -55.95184558 eV
Pt 6.801045463091672 8.51456834901554 8.598686382497913
Pt 8.216808803014994 8.085454006625138 6.478715866049262
Pt 8.762447285550618 6.801045463091672 8.764242742870568
Pt 4.587801205042132 6.801045463091672 4.303916651678356
Pt 4.83964364063273 6.801045463091672 8.764242742870568
Pt 5.3852821231683485 5.516636919558205 6.478715866049262
Pt 6.801045463091672 5.429555328729917 4.273231628374306
Pt 9.014289721141212 6.801045463091672 4.303916651678356
Pt 6.801045463091672 5.087522577167812 8.598686382497913
Pt 8.216808803014994 5.516636919558205 6.478715866049262
Pt 5.3852821231683485 8.085454006625138 6.478715866049262
Pt 6.801045463091672 8.17253559745343 4.273231628374306
Pt 6.801045463091672 6.801045463091672 10.61857270219096
