16
Energy = -71.19972992 eV
Pt 4.472797112009621 9.58865016794667 8.251602513076728
Pt 5.373755226742277 5.369495698151874 4.586934247818199
Pt 8.27815488088455 4.615457090479347 3.2471800967972775
Pt 4.80583180510965 8.597850078316501 6.044572955417509
Pt 8.659284262740885 5.173650726241703 5.701009683015064
Pt 9.475719341983616 7.016654559154378 7.166263299175726
Pt 7.02360746922271 4.41604484503686 7.578830046970145
Pt 4.9827538804618 7.751164893251048 3.720455156552637
Pt 8.090164366309136 6.131754751866252 9.073577575695424
Pt 6.240705252162973 7.7940504432365145 8.898399020634363
Pt 4.629101318709712 3.7582247870403176 6.546119534159074
Pt 5.424178280381287 6.280780146092354 6.957133920228984
Pt 7.255736985763249 8.063939104387353 6.470658975879746
Pt 5.193776784064217 9.242878916517139 10.604288666941653
Pt 6.820924947011326 3.404087870679346 5.069097935380859
Pt 7.354193550386562 6.876001385546354 4.164561836199872
