13
Energy = -56.76754205 eV
Pt 4.777625166687812 8.349306580899672 7.48276665002872
Pt 6.933061901475729 5.585843785314704 5.786566554572181
Pt 4.737349104935384 6.933061901475729 5.24680564997575
Pt 9.088498636263644 5.5168172220517935 7.48276665002872
Pt 6.933061901475729 8.280280017636752 5.7865665545721825
Pt 9.128774698016077 6.933061901475729 5.24680564997575
Pt 6.933061901475729 6.933061901475729 8.224748692186688
Pt 9.088498636263644 8.349306580899672 7.48276665002872
Pt 6.933061901475729 9.615974605659009 8.09016229916984
Pt 6.933061901475729 4.250149197292454 8.090162299169835
Pt 4.777625166687812 5.5168172220517935 7.48276665002872
Pt 2.719948802951451 6.933061901475729 6.863460209724004
Pt 11.146174999999994 6.933061901475729 6.863460209724004
