16
Energy = -71.1744262 eV
Pt 10.070781336401286 8.043150887540973 5.514915073822893
Pt 8.477755364826235 3.816641598845743 7.032546711341601
Pt 7.455697102285703 4.773986977927482 9.154521550484917
Pt 8.454172450413077 9.153932672347919 7.083377448977803
Pt 8.474414610021205 5.970878190841889 5.721398572497569
Pt 8.02535697867036 7.990775950634489 4.02777338685364
Pt 7.731181723803846 6.976124599288205 8.003126595268796
Pt 5.18411234641524 4.720480071092323 8.093315620411015
Pt 6.509699515191854 9.498268702886298 5.514077968040095
Pt 5.960019600921334 7.072743993629864 5.237087554046669
Pt 6.338336561661536 4.482675922837658 5.792536707389564
Pt 6.659393532856614 9.174260981799117 8.935179723042518
Pt 5.059038462311548 7.241094738521304 7.728487802410682
Pt 4.1709263035753725 3.088735969732896 6.349002985875688
Pt 3.9396461700890413 5.605273501570392 5.923002158190794
Pt 4.781718037894687 9.726030756327258 7.316161017189762
