16
Energy = -71.77632415 eV
Pt 7.616578519109311 8.687085661435594 4.366806099328077
Pt 5.585198310060594 7.226264654201354 3.9052217669971303
Pt 7.19627771586851 5.8783091400402 5.4411192273904545
Pt 8.068421967479043 8.422008619127965 7.967596267708697
Pt 6.157969578446788 8.093878830982195 6.372115904272946
Pt 9.202392678641127 7.418425372064578 5.9256957088004665
Pt 3.4884165393128916 5.839125006204131 3.599437993162059
Pt 6.555757159722436 8.17997729590556 10.000016810558446
Pt 4.960012975600338 7.028679755373648 8.391990146667544
Pt 8.507042814232943 4.503308010417654 7.104137308849403
Pt 9.932269852567929 6.295378136260083 8.182889581676688
Pt 5.2187706101418 4.396109463246231 4.755185346389053
Pt 7.352980458657996 6.089140705545853 8.742189978838258
Pt 7.467809020915107 3.344094004910894 5.098272111524379
Pt 2.6437934267209626 6.251231797480255 8.087736288129296
Pt 4.039832089796959 6.340507264078971 6.053113176982127
