19
Energy = -87.20425704 eV
Pt 9.734362916638798 7.846142901045494 9.121047814190703
Pt 9.249510909494273 3.949183855358475 6.105054518792296
Pt 9.436949045356158 5.549100296771421 8.148163786383087
Pt 8.860313241425427 6.560703562258935 5.862545009366394
Pt 8.654533912867711 8.870450280285327 6.979388975598586
Pt 7.219811406837354 7.266831411959395 3.98155017507394
Pt 7.128271595647712 4.628758168146371 7.4694359803394335
Pt 7.2158713189073085 7.772639001440611 8.899046225421847
Pt 6.90731143644434 9.49525637241582 5.251116393177714
Pt 7.2592471225344415 5.459276597161518 9.973799903388183
Pt 7.064334102136875 4.72438950394051 4.840752562465874
Pt 6.330733810771872 7.1477846239364915 6.53753414462683
Pt 4.688207380630837 8.163694395917984 8.508084625942196
Pt 5.04490213248797 5.550102743607673 8.613456389577259
Pt 4.984775864321884 8.617668159047057 3.4863419697333553
Pt 4.435548610659273 8.829915481199219 6.005347621994273
Pt 4.83188218739305 6.2174070279766624 4.5191610895534025
Pt 3.4604189568811714 6.495313312095666 6.7642513869185885
Pt 4.834233569983821 4.253828332909354 6.229699066259888
