11
Energy = -46.17373818 eV
Pt 8.985070439017747 9.066514932031412 5.859558538196303
Pt 8.797631548167162 7.2430753899490785 7.818041027622175
Pt 6.390281405473713 9.27957256709158 6.131102011721729
Pt 7.526411615377639 6.948597430728183 5.595058051136282
Pt 4.893409872343219 4.564167922855916 6.494222861756144
Pt 7.883771449785389 9.570982513100201 8.304533350969445
Pt 7.386999567542448 4.450915825759912 6.105335553324295
Pt 4.957356767646278 7.092978971359742 6.2833728289068835
Pt 8.708316726738458 4.762402513760536 8.257304094849898
Pt 5.5752492224916566 8.48626998624958 8.517384064661757
Pt 6.420580766102709 6.084752908891746 8.158517610578777
