14
Energy = -61.12221247 eV
Pt 8.434100107531103 7.877581389107737 6.792080891372894
Pt 5.29056063541835 5.614191755819324 8.371746540821835
Pt 6.6589739217751465 7.835914773685294 8.792416063928485
Pt 4.880073623821105 7.5111229209921575 6.792080891372894
Pt 9.151262421727175 3.8568644517361377 6.792080891372894
Pt 6.608510286222762 3.7310637713184835 6.792080891372894
Pt 7.982320827877656 5.710918163601934 5.464791343088651
Pt 8.086460155501575 10.040128988572693 5.453160992359937
Pt 5.869227227798683 9.769563716580624 6.792080891372894
Pt 5.29056063541835 5.614191755819324 5.212415241923946
Pt 6.6589739217751465 7.835914773685294 4.791745718817302
Pt 7.982320827877656 5.710918163601934 8.119370439657144
Pt 8.086460155501575 10.040128988572693 8.131000790385858
Pt 4.109327688012626 3.9406289090884936 6.792080891372894
