17
Energy = -77.35956877 eV
Pt 4.8850029479620005 2.9173688926017194 5.566560297781703
Pt 9.532201223623096 4.694968197689258 4.763397864310754
Pt 7.175964962586577 3.9153216308550816 5.235274108887643
Pt 5.074160107436258 5.4059484488028975 4.936992617862425
Pt 7.040855080376116 5.13569082131152 7.46708636054316
Pt 9.280912218773656 6.162953906543148 6.8266395360272085
Pt 7.699012833054857 6.533220078133495 4.70253216839885
Pt 4.635118164675291 4.390583436454581 7.625221788555984
Pt 7.389766675889152 9.031809439422679 4.071408293543015
Pt 7.811021477595811 8.52868780012537 6.542963288328045
Pt 5.5424858078611985 7.916054764025164 5.424991127094509
Pt 5.534627975280978 6.173173544197038 9.302919265203604
Pt 8.013543722699161 7.259603152672707 8.793323148124497
Pt 3.1531107181317557 7.111654501864568 4.9515593362247845
Pt 4.089155025118002 6.9011793982943015 7.2929006880182525
Pt 5.742023016295551 8.613892447972171 8.271470776610078
Pt 7.938895995210762 9.845747491604373 8.76261728705571
