15
Energy = -66.48204816 eV
Pt 3.866010941875673 5.106819012750272 3.9209477815791316
Pt 2.0796442225585174 6.899230535859925 4.696896895475087
Pt 7.451798714660967 5.151953765449165 5.863810286757478
Pt 4.074852896424583 3.27395486470493 5.678648322217565
Pt 5.648929520566788 4.420423651498293 7.605017653350599
Pt 3.7536172497919 5.7441127897488045 6.428670414245112
Pt 5.999878816922201 6.997277524136962 7.207614566563986
Pt 6.3104695488851545 7.0412320509905095 2.1208478083959688
Pt 7.874717124849135 2.99363424143126 7.218880675344184
Pt 6.310694068552683 4.758730172454212 3.32982912993995
Pt 6.271495781898082 7.069922466146821 4.673098749764614
Pt 6.498178243959622 2.8381037791555026 4.9704866749489325
Pt 4.1366129107618494 8.223813050825207 5.727409645440252
Pt 4.056466754070114 7.53097194900488 3.127725061382535
Pt 5.540538307385561 1.8237252490057891 7.304021437757263
