15
Energy = -67.45757651 eV
Pt 4.056835155696905 5.3743707183314395 7.770323297568416
Pt 5.9340724097729565 7.54783800700607 4.697714828146333
Pt 6.503134287120478 5.501347392987214 9.020152617793515
Pt 8.364502793538906 8.100953283985064 4.860453934791464
Pt 8.699589428326902 5.410880987647528 5.3228303344201455
Pt 6.426361550531075 5.277635142590513 3.78118810735702
Pt 8.515664466220116 4.611135432057668 7.735603869784865
Pt 5.996955683399533 8.198771297271826 8.851519442450611
Pt 7.828644687094396 7.072305501686101 7.267207099738805
Pt 6.292429354790329 4.830174182859003 6.410874506918897
Pt 6.813169502475081 9.319193563101893 6.609759149127012
Pt 4.176265426215322 5.477057623369723 5.1403259289818
Pt 4.670035213507036 7.602093289155533 6.821448779879306
Pt 8.600578447585962 6.387834821196318 2.9473349055601097
Pt 4.3940692773235 6.560716440352613 10.035570881080332
