18
Energy = -82.29960273 eV
Pt 10.4064113170236 4.629309713779641 7.98087370631293
Pt 9.569059410392484 4.796076514052741 5.501653703328916
Pt 6.7466901820215845 10.359087202869816 8.379461076330243
Pt 5.56631171338019 6.044121402027334 3.729898015192363
Pt 5.872974589212617 10.49754673482271 5.913280300410148
Pt 5.795982527044799 8.204230790186825 4.947720338272024
Pt 5.544370552292092 5.846177351727713 6.403886977366563
Pt 8.155237504471094 8.241034016418714 8.9420796036385
Pt 9.525923670200394 6.98733910421499 7.055898352809885
Pt 6.076721441129487 6.179843400715219 8.898806531635405
Pt 7.308048341504144 6.821419881244551 11.187395084503937
Pt 7.933579471084659 6.763081645771969 5.009144516531317
Pt 8.780308767046316 5.79779253806816 9.459121755060707
Pt 7.084064941326968 4.250508089779402 4.889984201441443
Pt 7.690545089143665 4.737892059934776 7.378372944121949
Pt 8.013725332978854 8.979603485210527 6.448878293174922
Pt 5.758980298600789 8.594552802341449 10.04158232916399
Pt 5.384865204000532 8.255030124708412 7.487261578059471
