16
Energy = -71.29878641 eV
Pt 7.724426391337504 3.1739040230390327 6.794763421080754
Pt 6.97569868954408 4.623241949666316 8.743369855414286
Pt 5.66124145106542 4.056692461910508 5.594732665447312
Pt 4.8789159888038425 5.453317811925343 7.54790271081092
Pt 8.87813101427608 5.163903103870027 5.69490818694595
Pt 8.484143367691352 6.448838846262421 7.891476998430539
Pt 6.764043192579775 6.953505890232676 9.86362034971477
Pt 3.565401791244586 5.528899991318605 5.1859912296366275
Pt 4.516605737937948 7.683500925301948 8.754866044353461
Pt 6.714034909955179 6.462377233160514 5.950984466792858
Pt 9.489294235935057 6.8027358664617585 3.9481296174936733
Pt 5.309269451290825 6.949734914031455 3.86834441576526
Pt 4.5093016214048705 7.861614329122998 6.108783219323341
Pt 6.790053087814597 8.556292364733142 7.780317622712952
Pt 7.529958519363065 8.26378830304311 4.3773172755909755
Pt 6.043006997254956 9.851178433419268 5.7280183679851895
