17
Energy = -76.78308731 eV
Pt 8.573118452530988 5.1767363480328115 3.9541521417862113
Pt 5.022523162133214 5.784762371944319 7.889072735468724
Pt 7.036545653185567 9.086204269042328 9.74655433126594
Pt 6.6953236011943185 6.6804612073990315 6.120487227478997
Pt 6.49300407709326 6.555218846234097 9.847143616129982
Pt 4.562393500930853 7.878005019977937 5.5851038272961295
Pt 7.45941385958099 4.663921933994768 8.313623739542516
Pt 7.338651669975537 8.948368210253282 7.144341956964456
Pt 6.214744651315889 4.658235395638972 4.771560678903441
Pt 9.589555090116662 8.136434182920144 6.213598504402077
Pt 5.037056964789078 8.355088242508529 8.148779104906053
Pt 8.666724676705634 7.1787459707918915 8.560229006413522
Pt 8.96435254115614 5.596051832425807 6.4733733705167955
Pt 6.376077480358565 9.584399083806225 4.898926350133911
Pt 7.9132094459892075 7.655823972352505 4.170149284344685
Pt 3.8680782213580853 5.372452604337201 5.667411531945181
Pt 5.612430345601039 3.441358539812892 6.977940192845463
