15
Energy = -66.07331194 eV
Pt 6.189851496305315 5.229144682118045 7.596374890381694
Pt 8.812347649023415 5.2062228445476855 7.275055499583647
Pt 3.565349580098867 5.209420808361908 7.2737645412504754
Pt 7.559229735524678 7.471345608763669 7.217621723741229
Pt 4.821645334408895 7.470500552701434 7.219984653105393
Pt 6.189312514011451 9.671212566983945 7.034954541714915
Pt 7.498314769131922 2.9071242233110395 7.211911299645378
Pt 4.8828234748970845 2.911925091010638 7.211374901237381
Pt 6.189687124546921 6.677823525942174 4.7498518059754264
Pt 8.829089823546765 6.685877064796134 4.936187747612508
Pt 3.550724587003317 6.686664675769475 4.934474078806742
Pt 7.576249496862749 8.93322506077934 4.935395111536734
Pt 4.798502657339948 8.936264434826066 4.935098115738035
Pt 7.500800325976414 4.423396926102854 5.155797663307108
Pt 4.88003122562841 4.4238119845856 5.156113476963763
