11
Energy = -45.27684161 eV
Pt 8.860713913281412 7.328749818771869 6.235665987220069
Pt 8.26380502333073 5.1818994229729505 7.797113710656393
Pt 8.090314759181128 5.007736550391445 5.089170583115511
Pt 6.74349125067876 8.995811159101699 6.245827308375722
Pt 6.159026130712494 3.879626185747931 6.643547171996589
Pt 6.44074156185113 6.43644680946058 6.4782152745568835
Pt 7.418698176965023 7.665318140480856 8.518577455600314
Pt 5.4906738978358325 5.247444836657521 4.390655410841385
Pt 4.658091643600764 7.711507954471277 5.103485404953724
Pt 4.8010482539933035 7.911981456215542 7.813745108322875
Pt 4.020390634548656 5.571434104069305 6.655677760851158
