12
Energy = -51.06484602 eV
Pt 5.512677343363023 9.07279744160197 6.645884711167174
Pt 5.501291462345556 3.833485526812431 6.7644475080604405
Pt 5.19801113798269 6.4261083418947225 6.995185554778896
Pt 7.737903533145007 5.074899837852639 5.855038174216185
Pt 7.572442275710179 7.768758569349138 5.848933755284291
Pt 4.000643853271273 5.201524049093826 5.00508449143599
Pt 4.094678744635131 7.80541153764093 4.966841946290562
Pt 6.9397116885051435 5.109926035414731 8.450399610658916
Pt 6.914737819775278 7.793939312422575 8.437296203003125
Pt 6.1775848453671856 6.518337273125017 4.197712216623228
Pt 6.193208867627334 3.8726288347113624 4.1844945283626815
Pt 9.07950506768206 6.444579623196943 7.571077811381416
