10
Energy = -40.88249913 eV
Pt 3.8759879490927083 4.888592649786854 6.746838767376072
Pt 4.572687647391167 7.303146881297316 6.676548922602918
Pt 5.262131649409933 9.719930666033552 6.604861602198092
Pt 7.046261523320537 7.922061047302974 6.657971401464937
Pt 6.343053487479543 5.467413811764801 6.728413933270428
Pt 8.816559640932184 6.086161035874271 6.710524837957284
Pt 9.512633640292387 8.50096775891738 6.641979670957911
Pt 7.753973976693151 10.386635087002647 6.582644340497192
Pt 5.63502968066447 3.002010255337116 6.815301588446773
Pt 8.127781600868074 3.66918155729874 6.781015822428969
