12
Energy = -50.9021105 eV
Pt 6.66494055403926 6.66494055403926 8.146918884877756
Pt 4.621855267591457 10.419117 6.66494055403926
Pt 8.708025840487062 2.910764108078522 6.66494055403926
Pt 6.66494055403926 6.66494055403926 5.182962223200764
Pt 6.796506544133518 4.075355889394511 5.347715584970686
Pt 4.831262863813761 5.328530652001626 6.66494055403926
Pt 8.656154568911916 5.485612867428274 6.66494055403926
Pt 6.796506544133518 4.075355889394511 7.982165523107832
Pt 6.533374563945004 9.254525218684009 5.347715584970686
Pt 4.673726539166604 7.844268240650248 6.66494055403926
Pt 8.49861824426476 8.001350456076892 6.66494055403926
Pt 6.533374563945004 9.254525218684009 7.982165523107832
