10
Energy = -41.25741932 eV
Pt 5.98928026246197 3.516889531430868 3.241416308492916
Pt 6.93530236856592 5.413971686194722 6.368158972533945
Pt 4.860358843582727 3.7993405424362647 6.728557073770562
Pt 6.784776468289031 7.877044030906253 5.609239643591624
Pt 4.890584343201279 6.211096515573164 7.709980144904923
Pt 4.214836252086389 6.984093319035573 5.356992463807833
Pt 6.991525328544537 2.993259359556202 5.516329441400461
Pt 3.963158959867138 4.578816745842999 4.49506250610149
Pt 4.901855110760393 8.747106992026659 7.120529599574321
Pt 6.216007638358884 5.948333073226908 3.9686631367683285
