15
Energy = -66.40247794 eV
Pt 9.176194252787784 6.352228129242832 7.996519223016046
Pt 7.1441615827760865 7.89028262747111 7.827703199452648
Pt 6.795096005384544 5.31746511263078 8.099282526778953
Pt 8.89421699217452 4.199650739110544 6.500486305292944
Pt 8.062418075559565 6.563608519669983 5.634488302486774
Pt 6.938869398680183 2.7536147015802634 7.26390752450625
Pt 7.332113981146014 10.32764293435527 6.99460458733822
Pt 6.5146607015502065 4.433846651577939 5.326096678142174
Pt 4.9876260087648 9.25698135435404 7.087592573208539
Pt 4.765536951891985 6.663828909614455 7.146698777910836
Pt 6.6933342203023685 8.693621188029574 5.126153750137881
Pt 4.645426776934922 4.046321065815623 7.326454600206435
Pt 6.116648666074965 6.519693474296655 3.8548339898595563
Pt 4.110888992116295 7.894856483696599 4.9824029146208915
Pt 4.0637710905554805 5.2596750795228155 5.048042465393438
