18
Energy = -80.84200805 eV
Pt 8.619297064572082 4.525163388710866 2.8283919559835278
Pt 4.4136671677544825 6.175285520582237 8.173637427046826
Pt 5.0947711632564205 6.140954301618903 5.660013682710386
Pt 5.4643362108446745 8.38021844127802 7.033769397033834
Pt 7.270227934801155 7.8181314144837515 5.253800330984023
Pt 11.34970448978972 6.6039732301832155 7.464224606362104
Pt 9.312109217607492 6.645762789762343 3.9505711183620473
Pt 9.008816911174168 6.9346825367083325 8.531537838543585
Pt 6.1120373974630775 10.214867165170975 8.855832146330183
Pt 9.778903621641662 8.074399179283958 6.034903896510679
Pt 5.908534598470688 9.008232414306436 11.157618713707894
Pt 7.951422674754892 9.240413996785799 7.362337966212736
Pt 6.959331685937385 5.506753810090186 7.417916183214712
Pt 6.546450408659467 7.200492343238344 9.336280590479213
Pt 8.310302496744386 8.980825450950764 9.96965290957485
Pt 4.108720464585719 8.442339412904241 9.37844891065889
Pt 9.32933206891509 5.4802033863731605 6.351103590616803
Pt 7.220566377592955 5.136560961739009 4.767426396609648
