15
Energy = -66.92206771 eV
Pt 5.764623644503797 6.3960955087611495 6.313487527024576
Pt 8.31019255505059 6.089604109700292 6.312396601573666
Pt 3.316283106297565 6.703068944797864 6.312658089875032
Pt 7.8181007622721435 8.690883140395782 6.311933966331812
Pt 3.993002702185464 9.133015679735724 6.312415128744394
Pt 7.497650138264004 3.536638687028484 6.313803673298129
Pt 3.3699139373142444 4.178802905250942 6.312922883287459
Pt 5.845179097455534 8.394512638323349 7.904001464253773
Pt 8.15515113023245 7.404939686142224 8.593600710337515
Pt 7.847237378503821 4.853177243069049 8.586378251733935
Pt 5.465769931704741 4.332718247390348 7.771537235963117
Pt 5.844370474883155 8.392696757364936 4.721055743514933
Pt 8.15381716953516 7.403118772989792 4.031272788732653
Pt 7.8460884965951445 4.85164984822659 4.039921518433057
Pt 5.4657444772779264 4.332202885518854 4.855739418971287
