10
Energy = -41.80427051 eV
Pt 8.77220176696707 5.599867133890955 8.494868299640359
Pt 8.338717647487014 5.850509933918396 6.012594095692174
Pt 6.764688076758344 4.302107632258569 7.446993151155269
Pt 7.601264020672318 6.206052288425893 3.640320238304478
Pt 7.1543512808489265 7.423375638467826 7.659711371908112
Pt 5.782202716052046 5.404590831812407 5.308151947140261
Pt 5.399946417212474 7.443053927680908 3.825684932410526
Pt 4.945446076634049 6.071582082818295 7.67951786037254
Pt 5.034274505539867 8.465651134419694 8.710058991853927
Pt 5.185117126900877 8.211419031380046 6.200308746595078
