18
Energy = -81.09857944 eV
Pt 6.457331234749182 6.08451243985782 4.959537489984275
Pt 10.015482952235294 5.3965898318512835 8.735737746586624
Pt 5.32939685092458 7.629454130720671 6.897234911366659
Pt 8.46013470658469 5.597548077121752 6.668352404145741
Pt 5.637368587328579 9.700216519562677 5.459472001082647
Pt 6.324150555856173 4.00268321661687 6.500678554039962
Pt 8.090384077836681 10.523231065464651 5.849590116423121
Pt 5.056752686980114 5.419078735658702 8.194427438182366
Pt 4.479497769578241 4.431417272116197 4.750803148657054
Pt 6.565447977115558 8.230835252954687 3.6172023798373867
Pt 8.463099419854442 6.062429116077411 10.677477247628405
Pt 9.14881789346995 10.287709322190848 8.122589958789082
Pt 3.4086359685371406 6.04919063112951 6.347424858581851
Pt 8.122119654089323 7.9882992295385655 5.647838187742648
Pt 9.319272904840636 7.769816964946946 7.9224682761908385
Pt 6.993639220435379 7.1580833306508795 8.914561417556351
Pt 6.705333479177187 9.514680982306643 7.944713591622782
Pt 7.4257644840636035 4.53494880598718 8.841126612240846
