10
Energy = -41.7868222 eV
Pt 8.223100447179752 6.364612946464883 5.270921375788768
Pt 9.510729887916424 6.346708365557893 7.482566896750608
Pt 5.976813602447941 6.772042793423274 3.941549220399844
Pt 6.46434968873684 7.895854948663256 6.222266416302401
Pt 7.572286888546386 7.738274226772381 8.475585429665461
Pt 7.1741269768416025 5.334972201911287 7.791993396198153
Pt 6.27209870985006 4.642391978436544 5.486164678223838
Pt 5.093038757105446 8.335885606978158 8.40713472914665
Pt 4.802020312794757 6.151340025552726 7.102175039660952
Pt 3.904279965571632 5.41076214323017 4.8124880548546995
