18
Energy = -80.64159184 eV
Pt 9.479355165566249 3.888175480399506 5.687747948640562
Pt 10.189673976073204 6.204589663032087 6.763013966077003
Pt 7.9123527514857726 4.951246176709265 7.470204860687038
Pt 4.339837615035975 4.918974221764144 8.964853226247394
Pt 8.583619622233112 7.470178822196819 8.414618935600378
Pt 6.586423755516394 6.0252278293689985 9.33285751700057
Pt 7.103636981588722 4.812563852119049 4.9979200599410225
Pt 9.33762625676184 6.022740439981796 4.195358595463339
Pt 5.416942091174685 5.737508353491893 6.755534669335115
Pt 3.455411259991571 7.188885139391656 8.328083807221448
Pt 7.314227987093927 5.958528594981437 2.651507980767223
Pt 8.08168229771185 7.5110864373618105 5.885848269924445
Pt 5.57872371769143 8.346095630107635 8.945850028648781
Pt 7.764943002119704 9.449541280670191 9.664688699288984
Pt 5.876074991461019 7.09676148121358 4.446475377868104
Pt 3.79205365048352 7.670398590720619 5.860568256843556
Pt 6.006044840612017 8.884276742751675 6.418551652781845
Pt 6.193429751943947 10.737660961981867 8.134949926889345
