17
Energy = -77.55039124 eV
Pt 9.845439709760527 6.279110119341892 6.259551599950166
Pt 8.777254291022105 7.370586449822025 8.450986698240513
Pt 9.296848664463733 7.28178178207094 3.8730776259080195
Pt 7.89137743358712 8.026323747112153 6.019818971929936
Pt 6.7224929784611085 6.327131840573061 9.732422130607494
Pt 6.3125854286270595 8.153264528293601 8.040574286060922
Pt 7.717973853715261 5.286890283555525 7.411804801830693
Pt 7.85214265627012 5.345792193532805 4.742177435687606
Pt 6.813012780362523 7.719436041892305 3.663361314599866
Pt 5.7807228060882965 4.0203904502292485 8.619505009766689
Pt 5.218785842819705 5.559018105075809 4.360724171029451
Pt 3.766102671479359 7.903010757915141 7.936598955440872
Pt 4.693716973639693 5.727210516861081 6.901694261529824
Pt 4.190115068513423 5.9335768540419105 9.516521500582364
Pt 5.131692007520689 8.07934051020835 5.718143136826525
Pt 6.173612186718167 3.8173160839959657 5.975375427137291
Pt 4.324325403576162 7.678020492102819 3.2858634294969513
