19
Energy = -86.82965507 eV
Pt 9.478310365285559 7.103677033531895 7.169831592590271
Pt 9.609481906675533 5.228857621147669 5.431021506990482
Pt 4.888809896410277 6.6291395958402655 6.1520241628589725
Pt 7.7528946431128025 5.116205393113369 7.298021368508789
Pt 7.055909425411455 7.6245540426047755 8.336286213618635
Pt 4.810560818885858 8.755782640325215 7.6857763882661905
Pt 8.99063363162289 7.520460709249435 4.476130305499493
Pt 8.033734440706958 9.797717112949734 3.919750239231478
Pt 7.354940943453845 3.694539502297159 9.411159521949166
Pt 5.683992441535096 3.5955806079512156 7.450531684889113
Pt 3.5339851791660473 6.683548334566125 8.421618180314008
Pt 9.246886803120038 9.105471158269255 8.724992330801784
Pt 6.679853019956749 8.492066144979043 5.729734923411822
Pt 5.708651010606648 5.602659752213007 9.08883423603048
Pt 7.048657299923462 5.881035643248919 4.9125871587542225
Pt 9.071231741831737 9.636957938491483 6.218040198185302
Pt 5.0734681137225675 4.278338088905299 5.049837533118049
Pt 3.3026987567481787 4.540716061603204 6.9353536889529845
Pt 6.967705153180662 10.194693876685909 7.762289907969863
