13
Energy = -55.83408252 eV
Pt 6.713360223093967 9.266524734892705 9.472408086383494
Pt 5.402688379032812 5.386584377197281 7.592542592171396
Pt 5.402688379032812 8.040136068990657 7.592542592171396
Pt 5.380385017152592 6.713360223093967 5.319711319240159
Pt 6.713360223093967 9.100559769614838 5.567432037481445
Pt 8.024032067155122 8.040136068990657 7.592542592171396
Pt 8.024032067155122 5.386584377197281 7.592542592171396
Pt 8.04633542903534 6.713360223093967 5.319711319240159
Pt 6.713360223093967 6.713360223093967 9.567748903329647
Pt 6.713360223093967 4.1601957112952315 9.472408086383494
Pt 6.713360223093967 5.422981620991888 3.3083303495175813
Pt 6.713360223093967 4.3261606765730996 5.567432037481445
Pt 6.713360223093967 8.003738825196049 3.3083303495175813
