14
Energy = -61.25230115 eV
Pt 5.0328696338538546 6.605385476575453 5.800239897747408
Pt 6.5559601726255305 8.563907040693367 6.690676837219684
Pt 6.6118342757749495 7.98582498290616 4.115160449256228
Pt 4.727644842822872 7.456867423854515 8.278409250450059
Pt 8.63458545089976 5.905362869868116 8.278409250450059
Pt 7.187287190454974 7.932068746757595 9.1239843510108
Pt 6.174943103267655 5.43016154696503 9.1239843510108
Pt 8.556054686946252 9.355547000000003 5.17785297400591
Pt 8.32936065986878 6.7568448171471776 5.800239897747408
Pt 6.750396017947687 5.3764053108164696 4.115160449256228
Pt 9.226058687634314 8.442411772028217 7.581482225377808
Pt 6.8062701210971035 4.798323253029263 6.690676837219684
Pt 4.136171606088317 4.919818521694422 7.581482225377808
Pt 4.806175606776382 4.006683293722631 5.17785297400591
