14
Energy = -61.3593169 eV
Pt 6.7444716224525205 9.356533000000002 7.87972365396961
Pt 6.7444716224525205 6.7444716224525205 8.096064957033196
Pt 9.352459614475663 6.7444716224525205 5.607138344595752
Pt 6.7444716224525205 4.132410244905041 7.87972365396961
Pt 4.136483630429383 6.7444716224525205 5.607138344595752
Pt 6.7444716224525205 6.7444716224525205 5.388506869467462
Pt 8.073275812903807 9.00201578716443 5.5822541379106525
Pt 4.490033762010599 5.415936306452248 7.908822574025131
Pt 5.4156674320012375 4.486927457740611 5.5822541379106525
Pt 4.490033762010599 8.073006938452803 7.908822574025131
Pt 8.998909482894446 8.073006938452803 7.908822574025131
Pt 8.998909482894446 5.415936306452248 7.908822574025131
Pt 8.073275812903807 4.486927457740611 5.5822541379106525
Pt 5.4156674320012375 9.00201578716443 5.5822541379106525
