19
Energy = -87.09281868 eV
Pt 4.512548510448534 7.952476837102832 3.4160375168299772
Pt 4.296642752392985 3.367320884201221 4.874088557467382
Pt 6.78464581362221 8.847109133191841 4.094252468232213
Pt 4.697305299051704 4.998881009233962 6.795124818769602
Pt 8.941979553517085 5.015710234482379 6.509262620197357
Pt 6.796081004578049 3.9833304148298048 5.348451141338588
Pt 6.8855187824035395 6.9204256238926005 7.348160919648036
Pt 7.526229345229989 6.516382332716034 4.7735955256692275
Pt 8.424268101033173 9.852881299095653 5.720274670776052
Pt 5.152218218146394 8.333033960529066 5.923689240203959
Pt 7.651130884757027 7.676864147048844 9.604462505983257
Pt 6.821520506324277 9.49675887471343 7.660618118543957
Pt 5.136770111502761 5.706374758321975 4.280062101021117
Pt 4.454999222287566 7.13702427923357 8.100611033933712
Pt 9.214578632181835 7.608907158509293 6.484732115425116
Pt 8.146621918892684 5.182705372789664 10.133299457948178
Pt 5.4150548247823895 8.905521087862867 9.68862151062926
Pt 9.80411616759646 6.473896479732149 8.69437724766844
Pt 6.953238163563064 4.422233664543092 8.027165030929641
