13
Energy = -57.32280474 eV
Pt 4.915024340761315 9.060810922648411 5.121226975368422
Pt 4.674477299842743 8.07269700713157 7.408884128621415
Pt 4.213676254409935 6.699208168681978 9.479924645196904
Pt 7.351203420081805 8.484481856366688 5.08260714989818
Pt 7.008689295853334 7.1765576869476355 7.196827958155654
Pt 9.661345831656579 7.520861156023678 4.7201568669590825
Pt 5.107111278354672 6.4634144357146015 4.907311367024353
Pt 4.305737565588653 5.473531280601011 7.174110654199929
Pt 6.313056780567917 5.416505460993983 8.844721612076293
Pt 6.3026574327633815 4.405065364109347 5.925028863136732
Pt 7.59050161179169 5.973609309180303 4.328394432628394
Pt 8.035956823335024 3.914941387284658 7.798254473947876
Pt 9.016307253574276 5.834061152897193 6.508296061368351
