12
Energy = -50.6082641 eV
Pt 8.18404957823904 10.476749727450834 6.848121211673171
Pt 5.512192845107301 10.476749727450834 6.848121211673171
Pt 6.848121211673171 8.291447274604934 6.848121211673171
Pt 4.269649835807958 8.3298022704985 6.848121211673171
Pt 5.5417141478900245 6.128185105620509 6.848121211673171
Pt 3.0015664233463446 6.1831948300345845 6.848121211673171
Pt 4.377494249909409 3.8702899335765224 6.848121211673171
Pt 6.848121211673171 3.9095634881504457 6.848121211673171
Pt 9.318748173437083 3.8702899335765224 6.848121211673171
Pt 10.694676 6.1831948300345845 6.848121211673171
Pt 8.154528275456318 6.128185105620509 6.848121211673171
Pt 9.426592587538385 8.3298022704985 6.848121211673171
