18
Energy = -81.89031156 eV
Pt 9.32195755665393 9.483555028338964 7.221241549229327
Pt 8.350471464261918 8.247435748412327 5.233662079498924
Pt 8.569741111483212 7.282253747026262 8.368093348665248
Pt 8.60268848126656 5.85474602706046 6.337419342198804
Pt 8.726093116490768 3.9999530175631874 4.583750064607617
Pt 7.075143738401944 9.54163864586662 8.357972716246806
Pt 6.206684390855096 7.890776997652097 6.581358307008784
Pt 6.712712958193752 3.850791527628489 6.202601882327844
Pt 6.347013733172006 3.8460252411362497 3.5356477528715344
Pt 4.80922279490104 3.8021819588682844 7.817554675539572
Pt 5.978800028784719 8.164693373183894 3.940365321774799
Pt 5.52059687058186 5.857873274524373 5.1189623265088455
Pt 6.480680796374145 7.523938458376153 9.976430133740008
Pt 4.844269928295539 9.473487244383442 9.575500217654483
Pt 7.636653405246277 6.201024945714074 3.7439918517978077
Pt 4.351148423520928 7.386328735180785 8.240783056854669
Pt 6.5937481823936945 5.60097863927879 8.241475213886142
Pt 3.5499336859239587 5.626968201261477 6.672869153611642
