15
Energy = -67.27339476 eV
Pt 10.157943211605266 5.493962084208654 7.531144763159605
Pt 8.49723267845754 6.531149770809331 9.12553833002475
Pt 7.334207767360893 8.138768210474609 7.516344841329633
Pt 5.5008102190866035 7.154468897125105 9.074163810044857
Pt 8.431403790745076 6.371340367561217 5.7592680045928715
Pt 8.544002675730534 8.886290975949217 5.410968852283433
Pt 6.733784776431703 5.245316923133304 7.907861049184262
Pt 8.34908654123947 3.943168402698688 6.487685275371941
Pt 4.860889849425996 8.1889871337855 6.7767593360171
Pt 6.423971834923761 7.6604714865644565 4.691665596880224
Pt 4.270914765829583 5.590793503116553 7.31058399494351
Pt 6.236812177198428 4.899578488588763 5.298689383230137
Pt 4.157805978737456 8.924838318326419 4.468474261865486
Pt 4.079795563709862 6.418815128864823 4.699082985387019
Pt 3.8568523987223218 3.987564537997846 5.3772837448894
