17
Energy = -76.26550261 eV
Pt 9.54285982891236 5.675349017584021 8.123331756728886
Pt 5.687631346396584 8.02435473857983 9.50835320700173
Pt 8.932986220577487 6.870429364544804 5.74625018723505
Pt 8.566662132778564 9.335006413419661 5.283267795812273
Pt 6.45961638716088 9.094414423470662 6.700261637257876
Pt 7.583120822298699 7.235397226150463 7.992424476671085
Pt 4.202247302046157 8.147676557163788 7.423551534083905
Pt 9.269482543151371 4.293093816379481 5.972652749088956
Pt 4.253977893934998 10.002087681508119 5.672490368835725
Pt 5.365589429658201 5.844358076139828 8.164914468067058
Pt 9.14736812614774 3.169520339667059 8.333916258646665
Pt 6.702528512835915 7.588591664926078 4.627617999265366
Pt 6.848960013972015 5.158387705803161 5.7072629259710554
Pt 6.758300746774491 3.638735471085533 7.753954077581598
Pt 4.456905680753796 6.367151969663117 5.525139938042069
Pt 4.389153432994791 8.267941558998917 3.8390267002560337
Pt 4.596403249160467 3.9712601376107974 6.476484272337191
