19
Energy = -87.86283293 eV
Pt 8.393697522276605 8.939701522075612 3.732749560528447
Pt 5.909200339527137 8.743897231354678 4.0330203588927285
Pt 8.836350841724737 8.776791889400503 6.217489977813804
Pt 8.320383886529473 6.6392251068938215 4.957093245632063
Pt 9.756247628029325 6.68142391801385 7.565061844702004
Pt 5.7861685797632845 6.223123491984227 4.37378272813277
Pt 6.303719524369157 8.506707941770529 6.520902848491037
Pt 3.582142406888065 7.691617610741815 4.092970598805283
Pt 7.580603111647949 4.294775585911184 4.210315018461119
Pt 8.12128330333671 4.8245210051844305 6.724065359900493
Pt 7.88773245113023 8.377348280501128 8.612858413439596
Pt 5.754272565209825 4.201789333781739 6.026873830187162
Pt 7.849532910213537 5.768485359285142 9.070055802624287
Pt 3.888119811930077 7.56611322095581 6.681506917564502
Pt 5.651045746934899 7.060357897995029 8.50006421067375
Pt 3.465472322394491 5.375531248681797 5.440683584903131
Pt 6.492204433108995 3.516938588151719 8.464839750301719
Pt 4.234146807028654 5.036330119702027 7.912308695865347
Pt 5.5440067094891905 5.131651549146996 10.219688154613072
