18
Energy = -81.81186919 eV
Pt 6.655928510209246 3.835547734641768 4.764589374813566
Pt 8.95430606496081 6.303768953073844 6.720299852633438
Pt 9.158034588196834 4.09980851308641 5.277136511644657
Pt 5.89194445399062 6.3568376502411725 9.063565128061377
Pt 5.033191826500724 6.853684048983008 6.68781474817957
Pt 7.21110094843464 8.178573237118675 10.427956805415771
Pt 6.156374348678475 4.601349643426756 7.1504889572705075
Pt 7.744262859655213 10.668298152983818 6.8035960113532425
Pt 5.337121393295183 7.197558655736609 4.198167209071241
Pt 4.368155253356283 4.894591056937794 5.111528667296426
Pt 6.2339720706652395 9.45636087150036 4.917423056762237
Pt 5.602623360953769 9.19395009671439 7.3761862579638615
Pt 8.507360994198812 8.495155821638253 5.464787299369828
Pt 7.593449358613626 6.168240067328534 4.599084385274474
Pt 4.752107846917595 8.581972465831667 9.642149207100372
Pt 8.032403411522136 8.396755788961132 8.033834094436518
Pt 8.514287245324363 4.022895843393634 7.8370990474843465
Pt 8.394810537821142 6.118562052878937 9.346416450160955
