14
Energy = -62.07594936 eV
Pt 3.5759528702081003 8.03041807071992 5.584811712866372
Pt 6.123202528339018 7.664389066912635 5.20230400373331
Pt 8.068965387258359 9.322294990540643 5.473744226654805
Pt 4.499939070818072 5.698909451272319 5.346470780889482
Pt 8.577279176762454 6.876105406468739 5.164535587319266
Pt 5.57557159203038 3.445729462855225 4.934076383312244
Pt 4.760141788297768 7.064453970066419 7.594232460299878
Pt 7.0363813862898255 8.796302890337564 7.702001758796768
Pt 5.529670117120389 8.354414861557478 9.656838940634415
Pt 7.828724654824529 4.366695271416169 5.642594384265843
Pt 6.101945241754042 5.820820064506757 9.397696353012043
Pt 7.58434774679696 6.3579996224075055 7.4153805842566625
Pt 5.784350604734134 4.352696877963893 7.317972457351533
Pt 10.007269471642598 4.9025116298516425 4.621082003483858
