11
Energy = -46.88279448 eV
Pt 9.33381765198726 6.652944188628718 7.409803224694787
Pt 5.921321396360785 6.534010905259697 8.004863683201188
Pt 7.315961214762453 4.7253934317007165 6.909011778841725
Pt 7.2585682932302165 9.267530671796084 6.356605165990787
Pt 5.143786926581719 7.497195303497508 5.798818057888241
Pt 4.841799297186223 4.975536820810345 6.253249880548231
Pt 9.589588783388603 8.454495610563566 5.533825671328509
Pt 7.604100359040224 6.852058801173275 5.516556171283285
Pt 5.310909245226008 9.129889789921675 8.128216052072661
Pt 7.6814817757689795 8.164684285048391 8.595130965803335
Pt 7.986534293201122 5.734129839180421 9.481787968810645
