15
Energy = -66.88633995 eV
Pt 10.01484927265629 7.141155974326627 8.243774599196936
Pt 8.351204493542824 5.314701153054593 7.68753866979582
Pt 8.724481489667456 7.463763913759352 6.014835879639421
Pt 8.876230329169479 3.260946329224888 6.260748496890016
Pt 6.811729956924908 7.427648554676526 4.324782019408553
Pt 7.543276977362868 7.798306674642441 8.291067722430135
Pt 7.88075703043505 5.223325666238538 4.996271855228596
Pt 6.440567749279292 3.710022365278114 6.80788444125365
Pt 5.7047224859996115 6.007926332750524 8.102968583544397
Pt 5.210563810365607 5.863289898474998 5.581351413873025
Pt 5.133497494803382 8.477504785074697 8.079412999911703
Pt 4.761244042762881 8.342435396865667 5.594279941702138
Pt 4.3961951487516995 7.0230023185730595 3.4215041854560972
Pt 3.9955187926899254 4.339125638527375 7.211706670064147
Pt 3.667902872567425 10.1195869455113 6.8946144685843445
