11
Energy = -46.94114141 eV
Pt 8.570996706788115 4.072751631893718 5.039752727166083
Pt 7.494752693024184 6.270288333886933 4.608296663347623
Pt 6.879350909616321 4.831369292874968 6.650783639959798
Pt 6.387897038241225 4.5827531462084155 9.180226301760248
Pt 6.3695555282921035 8.46468726114343 3.84912737647178
Pt 6.883185815247893 6.878978557499792 8.118117468911201
Pt 7.53399294480549 8.391314534667018 6.128540581610714
Pt 4.641045024004559 5.6292286230943835 7.670210067933301
Pt 5.234925760362741 7.173326128771648 5.69206915579341
Pt 2.896646157459601 6.5690620194060845 6.193835084808699
Pt 8.597321125069636 8.625910173465476 8.358710635148752
