12
Energy = -50.64192725 eV
Pt 7.885664802096849 5.676238902104889 8.09985070458404
Pt 7.915029099489478 8.414183336286397 8.112153298621424
Pt 5.665121622699503 7.023594550841935 8.114925441035506
Pt 5.9355703889438605 9.463292651973735 6.812140318621602
Pt 7.915029099489478 8.414183336286397 5.512127338621778
Pt 7.885664802096849 5.676238902104889 5.524429932659165
Pt 5.665121622699503 7.023594550841935 5.509355196207701
Pt 9.769221414088468 6.985339776199357 6.812140318621602
Pt 9.820063622019127 4.4247438749341175 6.812140318621602
Pt 3.720829155392646 5.770276169986016 6.812140318621602
Pt 5.904281978142326 4.505749870192206 6.812140318621602
Pt 3.6640862592623282 8.368247815785796 6.812140318621602
