15
Energy = -64.6915757 eV
Pt 5.416357963865007 4.764362499893635 3.2432455338084623
Pt 6.100990797257937 7.519843828549931 3.5517272811170875
Pt 3.684744434188774 6.895596146894215 4.025239972237219
Pt 7.955585426110879 5.838290690835524 3.9891096389744236
Pt 3.117313940094545 4.589225527062242 4.927156112752151
Pt 7.393903889885425 3.5314858958113184 4.89978779268859
Pt 4.973152487174279 2.908616079863439 5.368790668761329
Pt 5.655892433102958 5.6558231504063174 5.656771334085238
Pt 6.324583603755607 8.403997405981217 5.941265971573162
Pt 8.189304059058928 6.733359839445104 6.376767097331775
Pt 3.9113206851908657 7.770223722153919 6.417634179755166
Pt 7.637529845666324 4.423957732360092 7.288326025040095
Pt 3.3586691035190115 5.461320304741345 7.320122383263579
Pt 5.220353232647165 3.7889140405396518 7.761044553322915
Pt 5.8925338924949235 6.547218929474675 8.065247249301578
