19
Energy = -86.54531988 eV
Pt 8.870111542644663 5.393119365250517 3.31906276888063
Pt 5.406320042614082 8.876985589254538 4.793828544731403
Pt 6.616050621252666 7.7937490728628385 9.596426909832736
Pt 8.703742989456352 7.740296176086817 7.723885151073058
Pt 6.3815176263049835 5.021520294424352 5.865672210139447
Pt 8.672212579298543 4.083454914788473 5.506644465124191
Pt 8.59746882661736 6.185475549056761 10.042872325784737
Pt 9.659704396625548 6.494701622386934 5.563294003098527
Pt 4.782400125678766 9.600970598558991 9.128652084099206
Pt 9.052210080840606 8.818361656571993 10.030778614249845
Pt 9.15106525935991 5.084352363063431 7.800663273686139
Pt 4.422056396349156 6.550219623064694 5.331874582601519
Pt 7.2272620663565625 10.446131912443532 9.377222346717938
Pt 6.6323077353030016 6.469679710805963 3.717338225251186
Pt 7.6680515188078076 7.992131224567053 5.411177366893424
Pt 6.672290966057744 5.430142153877204 8.37757296052426
Pt 4.27706222965382 4.965198844803787 7.469832625588666
Pt 4.890146221297721 7.478914372201243 7.656439360756568
Pt 6.492311443522325 9.483591812505717 7.121498402049951
