14
Energy = -62.97925663 eV
Pt 8.927182898996035 4.439208266293477 5.049588265242407
Pt 6.5819680903458 4.985977086362207 4.257323756214966
Pt 4.739977941361538 6.520460512421637 3.5144935516550455
Pt 8.181559782447254 4.433851014323862 7.432860243656747
Pt 7.932607263605833 9.21405824538411 6.320616491937508
Pt 6.024286879947024 8.3590089803793 4.758859784238239
Pt 5.913709883578807 5.304312972881835 6.679579060996662
Pt 8.037641212481493 6.902965560089705 5.049668791292085
Pt 3.9618050550287722 6.675928578364873 5.899043272166701
Pt 5.78355580395689 8.223895533206809 7.40173645503538
Pt 8.120536750759769 6.965068103551886 7.620336566205777
Pt 5.498618023312357 6.119213008688897 9.030366766974106
Pt 7.801402167753008 5.438617372491985 9.73036873968384
Pt 3.4880611122668093 7.410347631400528 8.24807112054152
