10
Energy = -41.33542541 eV
Pt 3.9775619640782685 6.653453274920422 3.644234845062016
Pt 3.259961254917063 5.680049867174714 6.021746712341524
Pt 5.311252590148662 4.871695161229073 2.2186874994524426
Pt 4.921997524269215 7.724346693906067 5.867358712738308
Pt 3.472047733489552 4.049792218922543 3.935256812514272
Pt 7.158609857015173 3.6759161284455533 6.298878250907003
Pt 5.640808970852806 5.602558660219483 7.2482307791705844
Pt 5.953479626483813 3.0735077734362397 4.0450611122963265
Pt 6.045183349706222 5.561232191377566 4.7111426122481035
Pt 4.527305313374541 3.3756562147033815 6.277610847604707
