16
Energy = -71.33692701 eV
Pt 9.13814327346844 5.291182066217275 6.7450165363053705
Pt 10.44242105145332 7.52861229022296 6.583351085087781
Pt 8.520934303044186 7.439068128040647 8.225401566422718
Pt 6.933831064815304 4.882684680938232 8.263491001119272
Pt 8.475655369251243 7.184850741468968 4.9894584467812475
Pt 6.998807438741946 4.396315211873614 5.644852110137867
Pt 6.60092696768217 7.012506588514114 9.826563351733189
Pt 6.522696617483453 6.7807846930838505 6.583999258022063
Pt 6.369683489683563 8.968430687901517 7.8141343567661234
Pt 6.545811592198867 6.37886759404312 3.522137636016773
Pt 4.59593334296919 4.715859183008083 6.758565421107678
Pt 6.2612321288680866 8.812429978112242 5.044060639874877
Pt 4.5835711773714385 6.847609898372135 8.296976339200718
Pt 4.4583827163006795 6.927622917583692 4.907420279358831
Pt 4.8720686672210585 4.41800585495923 4.142530906933133
Pt 2.6870641893449076 6.422332875557726 6.65920445503021
