14
Energy = -60.77378838 eV
Pt 5.290485917410909 6.741033734920986 8.504896917241243
Pt 5.353649488745643 8.032073116951716 6.13091022537341
Pt 6.741033734920986 8.925632811472031 8.074478532404703
Pt 6.741033734920986 5.364275408628998 3.879714494369639
Pt 6.741033734920986 4.556434658369941 8.074478532404703
Pt 8.128417981096328 5.449994352890259 6.13091022537341
Pt 8.960033910156453 6.741033734920986 4.0154226821958705
Pt 6.741033734920986 8.117792061212976 3.879714494369639
Pt 8.191581552431062 6.741033734920986 8.504896917241243
Pt 8.128417981096328 8.032073116951716 6.13091022537341
Pt 5.353649488745643 5.449994352890259 6.13091022537341
Pt 4.522033559685517 6.741033734920986 4.0154226821958705
Pt 6.741033734920986 5.465718115143121 10.450903024527666
Pt 6.741033734920986 8.016349354698848 10.450903024527666
