16
Energy = -72.04302846 eV
Pt 8.462594429348663 7.727664197695147 4.0247565566779855
Pt 5.0893543555565 4.895407545471237 3.4668835199122148
Pt 6.029077478631654 7.094409333481789 4.468475940839233
Pt 5.583229193537216 9.60181614908387 4.821714899004309
Pt 7.295975289548892 4.956527619782428 4.824503759421168
Pt 7.301568315358818 8.385099221159303 6.291630293901201
Pt 9.11455484809187 6.2837248151522775 6.003127480669164
Pt 4.047656855304689 5.66479724987012 5.620241393767543
Pt 4.291450541861845 8.184895577099923 6.471742523901589
Pt 6.031326117544578 4.85454721476566 6.995805240098392
Pt 8.573425289372608 7.472385797514529 8.347696334227706
Pt 3.359115211195698 6.332862850537924 7.982392136079092
Pt 5.959013342294918 7.173903774889802 8.207873047451512
Pt 10.076910517926448 5.383073285322501 8.16998498869196
Pt 7.679936125295276 5.065213193443561 8.93245432265936
Pt 5.156117884488488 4.974977970088797 9.422023358056157
