19
Energy = -87.82927533 eV
Pt 10.387818586293324 6.146090731958073 5.041040876771139
Pt 9.599349448863684 7.174130883943305 7.225874955292547
Pt 7.931125305697049 7.074170388284628 4.733660621117292
Pt 6.81665377394052 9.38558464751795 4.467631199951213
Pt 8.388219926574937 4.578030356748941 4.638859984346367
Pt 7.454277297713641 8.654003397529335 6.879733568122204
Pt 8.217202775035153 7.959162697321487 9.234578663084529
Pt 6.14106633583764 3.721582357879967 6.161044288303864
Pt 7.761170135981974 5.496460730981817 6.931901910271863
Pt 5.417909387861485 7.108232176471856 4.454161730102622
Pt 5.881290123112895 4.6175304808295605 3.741725233061619
Pt 6.979317255413314 3.720398613151719 8.684655507966884
Pt 6.304267417977009 6.214976719726223 8.939850600269523
Pt 5.6891616793436 8.748274712710135 8.878034092047862
Pt 4.949212712767541 8.83078872349474 6.250026922562866
Pt 4.111869827421233 6.943123278261123 7.706327564792497
Pt 4.209506713524471 5.305646726014511 5.746519422642405
Pt 4.488498161817402 4.399637735380626 8.294998452626663
Pt 2.8015649941900906 7.4516565011609766 5.518856266032416
