14
Energy = -61.04360381 eV
Pt 6.802363819739104 8.658717692431766 6.802363819739104
Pt 4.946009947046441 6.802363819739104 6.802363819739104
Pt 5.4707096843528635 8.134017955125351 8.994326326244018
Pt 5.4707096843528635 5.4707096843528635 8.994326326244018
Pt 5.4707096843528635 8.134017955125351 4.610401313234185
Pt 6.802363819739104 4.946009947046441 6.802363819739104
Pt 8.658717692431766 6.802363819739104 6.802363819739104
Pt 8.134017955125351 5.4707096843528635 8.994326326244018
Pt 8.134017955125351 5.4707096843528635 4.610401313234185
Pt 5.4707096843528635 5.4707096843528635 4.610401313234185
Pt 8.134017955125351 8.134017955125351 4.610401313234185
Pt 8.134017955125351 8.134017955125351 8.994326326244018
Pt 6.802363819739104 6.802363819739104 10.831734000000003
Pt 6.802363819739104 6.802363819739104 2.7729936394782095
