15
Energy = -66.63180021 eV
Pt 7.291924174178579 8.323160376166122 4.8012442269888265
Pt 5.850343042751062 8.118238454625951 6.915326139338301
Pt 4.934974538248506 9.391039461424425 4.776123088765428
Pt 8.377942698790314 7.891012691462932 7.529750587654022
Pt 9.41222232777253 7.017701440581108 5.30965002936402
Pt 10.523891641065532 6.4156027051413185 7.564635101955773
Pt 5.168086140765317 6.842284742226212 4.099742032501566
Pt 3.458248334482081 7.5070506808656114 5.969010328659382
Pt 7.156218704298328 5.71254425488537 5.394252153374856
Pt 4.703297248981001 5.2142379055604815 6.100683019877617
Pt 8.579348211587144 4.818674142531882 7.345667295527189
Pt 4.0884332948835045 6.664370394356554 8.34804476790439
Pt 6.670067165387623 6.149638522672091 8.38371092366784
Pt 6.538100356046144 3.426809185494763 6.683808365129256
Pt 4.983288529608227 4.219995805101391 8.563062226041692
