13
Energy = -56.02466364 eV
Pt 6.869858736342386 9.381296057476352 9.19425321267226
Pt 5.57364866492681 5.547598070675473 7.138016968242107
Pt 5.57364866492681 8.192119402009292 7.138016968242107
Pt 5.539420836779804 6.869858736342386 4.867124348458378
Pt 6.869858736342386 9.13509589853053 4.843711596355946
Pt 8.166068807757961 8.192119402009292 7.138016968242107
Pt 8.166068807757961 5.547598070675473 7.138016968242107
Pt 8.200296635904973 6.869858736342386 4.867124348458378
Pt 6.869858736342386 6.869858736342386 9.16847987749412
Pt 6.869858736342386 4.604621574154248 4.843711596355946
Pt 6.869858736342386 3.1641424726847722 6.888718710546246
Pt 6.869858736342386 10.575575000000002 6.888718710546246
Pt 6.869858736342386 4.358421415208416 9.19425321267226
