11
Energy = -47.07758845 eV
Pt 8.947428986369381 7.050445184452704 4.868741998232003
Pt 8.077587067368743 6.356271609848843 7.144070715753268
Pt 7.127821234953442 8.49160841471434 5.914809698395056
Pt 4.663262000205506 9.259106509427603 6.049437367770983
Pt 8.091234112280867 3.8281222228604226 7.506027094673225
Pt 7.109345333616166 5.656397191444916 3.6771121070390014
Pt 6.328621023703921 4.907546911362594 5.968241215199952
Pt 6.190098144139467 5.123804855393047 8.570310663795073
Pt 5.31648600371844 7.057299685254379 4.8103436011830025
Pt 4.247670813401753 6.405323114679122 9.463328646983202
Pt 5.331968557384805 7.295597577704244 7.459100168117593
