13
Energy = -57.87179829 eV
Pt 4.86562465805713 4.511967775012522 4.277258861823641
Pt 6.564828131650647 4.575118705313279 6.1985679677025844
Pt 7.36643998015638 5.0604238615760355 8.522935687487221
Pt 4.1674721951534055 5.192153127218344 6.664629060140379
Pt 5.071127679049104 6.135700302219783 8.885403994868659
Pt 9.062170111790223 4.26936103600784 6.752187973539625
Pt 7.4682698901180045 7.409055547480765 7.653350468309681
Pt 8.555973644363444 6.456798241522758 5.587848022721003
Pt 5.427239516483812 8.74826968105789 8.632393109808433
Pt 5.179924057114623 7.456848815949968 6.340333386400423
Pt 6.204308145515368 6.65155265082468 4.202326297618983
Pt 7.864847175111092 8.56831835666161 4.348918346182216
Pt 6.694611800239484 9.457268883958017 6.426683808199997
