18
Energy = -81.12791847 eV
Pt 5.775948520316244 2.8416975261722506 8.694277177371491
Pt 7.998703150178707 5.989793659003641 7.819276634286548
Pt 6.635810968708008 7.735417678297365 9.771224586587955
Pt 7.607335611730153 9.657594522352152 8.089272113271253
Pt 3.7730726130372645 4.358633136668504 8.75175533704164
Pt 5.157852387266304 8.510767180430443 7.8571543296342785
Pt 8.005785345144899 9.353262645275253 4.5972811271653065
Pt 5.972848670809115 7.810351067649876 5.5324780132133276
Pt 5.6035384836468305 5.437245599698831 4.633250965899974
Pt 4.8845234312256895 6.012442190518835 7.160250789778559
Pt 6.109209986383251 5.323370495295742 9.384243658431293
Pt 8.151865416139923 5.564458095783249 5.2579263981251
Pt 9.739780792519191 7.391040547496336 4.268871957827141
Pt 6.613187489323571 4.069202132108674 6.668586736132843
Pt 6.149010729848962 10.336264273743724 6.106273966018709
Pt 7.199522504323563 7.082350881520263 3.360717977001195
Pt 8.908136474420823 8.117343727979337 6.597924705422747
Pt 9.17240958051945 7.860218992020695 9.163706193135939
