11
Energy = -46.03536911 eV
Pt 5.8492962754676645 5.947128342150544 4.421692657229899
Pt 7.278224878236202 5.092675112266188 6.687517879219958
Pt 5.7830227553300855 6.051413860667191 8.68604211993172
Pt 3.5717253859373512 6.827939148343247 5.1552441979507195
Pt 8.289620386198697 5.212958149483404 4.269774611149845
Pt 3.363980695555644 6.64002843674503 7.821823374188814
Pt 7.858033477224523 7.362297915123412 7.914162042975544
Pt 4.693462312370304 4.826174908364839 6.503604770105468
Pt 7.709810768345205 7.644763699447901 5.1955867427758164
Pt 9.649473019340409 6.300901547048282 6.306024325050325
Pt 5.543902362511446 7.684271196877495 6.629079401272115
