14
Energy = -61.7150362 eV
Pt 9.275867389643063 8.399105498734944 7.886742508319909
Pt 4.846000987569928 7.071211739150223 9.55747342674075
Pt 6.959782542937656 8.314194605841218 8.974265694605878
Pt 7.608552644366334 6.472190808545959 7.348431568178844
Pt 8.153108781676936 8.160266105802021 5.604560957732934
Pt 5.009382568693429 8.22956594182876 7.291674218604629
Pt 5.765635785641493 4.96058648654222 8.488540419363197
Pt 4.660755520518166 8.964066399156822 4.986015577615388
Pt 8.151138169434853 5.594426918490722 4.973746588406856
Pt 5.383461197266819 5.968462618976545 6.206805458378337
Pt 6.203334803568456 7.2168798887275765 4.1586499942904815
Pt 6.1536463284170315 2.7804318202409837 7.397444391583053
Pt 6.306987971053596 3.85341462394416 5.192576734532966
Pt 6.526457054172206 5.019308288977942 2.9371842066071645
