18
Energy = -80.91647771 eV
Pt 5.886787809163228 6.961066562075781 8.275527750343278
Pt 8.869531408716478 4.742916618093731 5.884380369896295
Pt 6.303740585598934 4.483540515522831 5.841536656802027
Pt 4.933997487038984 7.14795018750592 5.664640787445694
Pt 9.748525022123694 6.9847574272568185 6.5185417521388525
Pt 4.703286749134012 9.093543158247051 7.249903077492177
Pt 7.474999295429771 4.843083504329706 8.101769052097808
Pt 4.634570752273434 3.5928821572120166 4.046556117363323
Pt 3.6322404624935825 4.894251633576391 5.9791555744856355
Pt 10.59633783688734 9.328785747965183 6.988535879883389
Pt 8.443427804939335 7.1018135557831465 8.67920925629799
Pt 9.3586653422358 9.400831226118273 9.176532976993858
Pt 3.3164761680789314 6.747481376347997 7.769330623358874
Pt 7.449191444758061 7.017375738832449 5.032778150582107
Pt 7.078615201868612 9.343166721830274 8.028057451828738
Pt 8.340727632276929 9.19027277333078 5.828546135723046
Pt 5.7330375393519 5.8514114752158966 3.6016549905729964
Pt 4.895290547240252 4.5697690426089705 8.243102615225304
