10
Energy = -43.23667929 eV
Pt 4.606516223162244 4.898077649060722 5.220407346624842
Pt 5.810023873797466 5.051637584138924 7.691155452131247
Pt 7.344864707683208 4.713653768186784 5.430431001930191
Pt 5.773972312193916 2.928440810667181 6.306983880276892
Pt 8.697622343970671 6.7100934066255995 4.64621427266055
Pt 3.66379245620345 7.047033696415976 4.260658000245251
Pt 6.197017576754032 6.955977063466931 4.316212634405454
Pt 4.662900941315164 7.293415028036202 6.577515240553738
Pt 7.401220059456572 7.109223185677112 6.787165614700687
Pt 5.879500066627041 7.329878368888694 8.800687117634789
