10
Energy = -42.28506297 eV
Pt 3.8923786814979184 8.395242288593074 5.247145728235254
Pt 4.677295915161844 6.198861171058623 6.028184601922585
Pt 5.776885915779451 8.540669649559149 6.8533667038498916
Pt 7.920780589230627 7.3164897430648645 6.245346359522003
Pt 6.777306014071434 5.728394749799423 4.646791942286135
Pt 7.749145019380052 8.57132921203344 8.466933443351971
Pt 9.318975094351748 5.4420813312223215 5.204735410776848
Pt 6.511894565387631 6.345720914183175 8.266888227040733
Pt 7.477203402632324 4.442249486976275 6.665736459065953
Pt 5.160131107898366 4.280957758901044 7.636867429339893
