19
Energy = -87.68041622 eV
Pt 8.180708632981595 9.385929967980076 8.612756097371877
Pt 8.947782151105931 7.353175502921566 7.329950699392227
Pt 9.985029732782932 6.464731564560434 5.171041117028759
Pt 8.160044239797678 8.60712659188391 4.892534866064177
Pt 6.14978829631511 8.238995996765539 9.465744235798347
Pt 6.47064239063446 8.667979667784715 6.763805721949346
Pt 8.413549287574712 4.887871725139726 6.4915353272330325
Pt 6.923030128704645 6.125956761609414 8.350392434067976
Pt 4.025073072904334 7.149981653592105 10.265076761442115
Pt 6.360353442994145 3.6106108461399007 7.663240036227394
Pt 4.700050799442199 5.073850665872135 8.97672570419286
Pt 4.213478453446452 7.554907210926386 7.672885831301381
Pt 7.465924610433329 6.171384251694054 4.537904078070883
Pt 7.236143550020708 2.806268073578519 5.411649380743987
Pt 4.951856195758917 5.319996722600598 6.376946733314142
Pt 4.795735107161159 7.532461274429003 5.198130579478118
Pt 6.359980713918438 7.91957653922317 3.1544912505687814
Pt 5.744771200812642 4.42096446675257 4.172118736301132
Pt 4.420530603485639 6.212703126822222 2.9975430197287882
