10
Energy = -43.21376068 eV
Pt 6.93338104362347 9.559854689187457 6.620387091038868
Pt 6.3942205070014735 7.712345423288653 4.971145451407827
Pt 8.132138487895629 7.380362433102286 7.083730761361374
Pt 5.853504641393398 5.654437391166676 3.590623242995579
Pt 5.440719845764673 7.745601243101503 7.56893097206565
Pt 4.858902212231404 5.632564389713226 5.921632855799382
Pt 7.542344196675301 5.2575483413682775 5.433558426413474
Pt 9.078298727643915 5.056212227389633 7.437174539585608
Pt 6.622515196608634 5.293616722980565 8.022333056448154
Pt 4.146625030367464 5.710107027907217 8.353133492089322
