18
Energy = -80.87861536 eV
Pt 6.741919766835952 10.233130080766061 4.562334943808632
Pt 7.7930167242770585 3.9751036804390063 7.862356671785685
Pt 7.820141208207911 3.951497880257201 5.295435749236761
Pt 7.695723178155266 8.097736746453817 5.622061573894384
Pt 4.539934688551249 7.359402938178962 7.05843507807948
Pt 7.798901836984492 10.376393161074818 6.982860967118565
Pt 5.277358426919037 9.429334269854735 2.69455912601335
Pt 8.856779684004302 5.994951730810902 6.455508116796662
Pt 6.4330118868167565 8.602390476351191 8.42945384242253
Pt 6.268409842775966 5.995217793530801 8.429644434879298
Pt 9.459939670756473 5.973433205238264 11.52720411870015
Pt 5.178455408948933 9.87689063674179 6.562761383671721
Pt 9.070939878752519 8.208604344460195 7.85766775488718
Pt 5.217938165248456 7.861827576126123 4.607672148901128
Pt 6.160170109068747 5.812473204949748 5.794458542107525
Pt 7.858375602700042 7.498428938202324 10.192351211603187
Pt 9.49222731552978 5.8607036235294085 8.938004383338182
Pt 7.5684493145572285 4.725710457704814 10.335118977182907
