15
Energy = -67.0596957 eV
Pt 6.980225364816744 7.514030465939137 7.922961764539635
Pt 5.34022761122964 7.902660692355747 9.949886539164485
Pt 9.395074155207844 7.157124836461522 5.6374392788387775
Pt 6.593904160163286 3.5191507682342187 7.816684609273604
Pt 8.138589678398748 5.176409955936425 4.250520616241299
Pt 5.362323083810597 5.2154173534452966 6.387761669193982
Pt 10.284741079973656 4.780461440202675 5.553321826112549
Pt 4.424931765477709 7.560930195887194 7.621866069362126
Pt 5.6166455616523345 5.378626524279586 3.850288323491746
Pt 5.670073024108183 5.5742786359244905 8.98008762287007
Pt 8.012488840609642 9.155958182734976 6.275256330582424
Pt 2.560543253875041 8.550143852231775 6.333630370065627
Pt 4.229517451458839 7.212521434454541 5.0867740972630955
Pt 8.078364165258497 5.341863702677976 6.845347801345491
Pt 6.767567077052393 7.4156382323262875 4.94338935474738
