18
Energy = -81.15899173 eV
Pt 10.067664600014393 5.676137895269388 7.765458771121174
Pt 4.945407780977253 6.5102867269384355 6.692399886473092
Pt 8.80691402148535 6.993997344452066 9.676043942791233
Pt 7.608397442721677 9.110105859842351 10.508715454853785
Pt 8.071399000175738 7.900555793735081 3.9298190390652192
Pt 7.59434401059112 5.102172030599189 8.340697537019578
Pt 6.080756057303081 8.408726477961254 5.552611742965221
Pt 6.064638887103186 3.88170972618287 6.5511574763565585
Pt 7.502270377001465 7.708599254978915 7.602690535239129
Pt 7.998094753086818 10.058420308367776 8.199812635911947
Pt 6.118395503859284 7.171486571385901 9.687291237180277
Pt 5.045183954410868 4.955307782680701 8.734666156616079
Pt 6.897383618935669 10.24699999912438 3.92033237700334
Pt 3.6947325006684597 7.148869138441452 8.880933840665323
Pt 7.279463524946078 5.9273944568861 5.451646128554486
Pt 8.68602796169473 3.9235340011218414 6.281902164364616
Pt 9.521272196895392 7.4694291202435865 6.091577543403378
Pt 8.58538787265461 9.860126895413423 5.780569369718228
