11
Energy = -46.34281295 eV
Pt 6.228167232517834 3.79978155494555 5.31341006253424
Pt 8.006238884402277 5.839399807208681 5.396744107902997
Pt 5.934366828277147 5.913967687585865 3.7193679091918335
Pt 8.027082041873188 7.34095446303087 3.286960189443835
Pt 6.914202961740166 4.875772474181279 7.531970773497928
Pt 6.6963085118860795 5.986148258773989 9.824145038130373
Pt 6.656610873602766 8.090412134263696 5.284495072971566
Pt 4.941107462364137 5.913020805699206 6.119170129154808
Pt 7.183759355612807 7.470560102935177 7.774633693698092
Pt 4.46788983698586 6.330052701022038 8.622036536447174
Pt 4.843031153136632 8.351378445422943 7.0419531259465655
