14
Energy = -61.18052545 eV
Pt 8.109925018213238 4.501332569538501 4.079326872714819
Pt 7.185607367380202 5.731178540107525 8.86931383180197
Pt 5.899156905560486 5.67963974975054 3.4828938560711618
Pt 8.824548788210235 7.3485098049991935 7.30337435296902
Pt 6.813838278754861 8.324139140600806 8.744568652511505
Pt 7.636379915794898 5.178919107543092 6.511449643887311
Pt 5.195525064920289 7.369542218564593 6.977047841235655
Pt 7.11293345073597 9.05315524762756 6.204010347893813
Pt 5.7880230098688195 3.8072598504149253 5.519607322061044
Pt 7.820040205451277 7.0381038883215075 4.766055087532092
Pt 5.325685649294813 8.04784343673942 4.522714126047736
Pt 4.859609720591023 4.909681750050859 7.696930548127722
Pt 4.830116794096722 6.741570079596532 9.51863728263784
Pt 4.065277740924212 5.735792630177907 5.270738144305328
