13
Energy = -57.81281032 eV
Pt 9.280099918610926 6.81324987975712 8.569665026398809
Pt 8.677606356827901 7.603540030229286 6.242865558866819
Pt 8.061465139899743 5.034358586461353 7.234912249337028
Pt 8.114812003827929 7.967374823079527 3.805497622928004
Pt 6.854067912193038 7.4108207494955645 8.117421780779235
Pt 7.429620287848658 5.667970156840563 4.6295291417287325
Pt 6.462755837482439 3.614467127523052 5.818633084124414
Pt 6.208543038841093 8.064863367628485 5.476126997077151
Pt 5.533527118025188 4.938074745602327 7.817881860822765
Pt 4.929207843453807 6.661110144206723 9.588510571658567
Pt 4.909272978633105 5.571017601772384 5.216402904446646
Pt 4.377666131667936 7.448909545228206 7.2551154134204054
Pt 3.7664048048879257 7.809292614374827 4.832487160611376
