18
Energy = -82.13581593 eV
Pt 10.303971303032876 7.223768071082439 5.185937204292862
Pt 10.347870261422289 9.457390281530435 6.652732034252344
Pt 9.171273695580474 9.63389649781788 8.931827812662272
Pt 9.377044961674757 7.218399316393922 7.639267202861112
Pt 8.061266676891794 6.051908818505087 5.5686779741024885
Pt 8.215739690377895 8.78290366723774 5.454021758471599
Pt 7.507376184229871 5.505667178087724 8.172284998011556
Pt 6.948267299837813 9.045476028520612 7.787193075634305
Pt 7.813774631577305 7.5800471900862 9.737025070863647
Pt 5.057986533410168 7.93652108163843 9.300966481384112
Pt 7.254844753029076 3.739236752773378 6.386756711681027
Pt 6.073387461839651 5.762692297421146 10.430994701825398
Pt 5.95187336597214 10.085911523791646 5.6265066318689545
Pt 6.1237119125207595 7.727680957657353 4.39546990119218
Pt 4.939362511390087 7.948241866446976 6.699293819406567
Pt 4.924866550188654 5.661365099732367 8.075150408405623
Pt 5.469340624796889 5.512201888501557 5.480456475240248
Pt 4.748426824962876 3.4402840037578666 6.8506615867933975
