10
Energy = -41.48733806 eV
Pt 5.184103059522435 6.597897659692388 6.773166150336997
Pt 6.533131486021217 8.476263396301162 7.860177993634459
Pt 5.997198011590475 5.031458741961521 8.612819243546372
Pt 5.149817049714213 7.984676530765815 4.6333862108486965
Pt 6.088055354645306 5.820021305474986 3.7331108326307665
Pt 7.432197176506039 8.621964367646624 5.505897360000646
Pt 6.71092799172907 3.698933517066966 6.590341174277786
Pt 4.662773771177998 4.528442116351277 5.368530228201983
Pt 8.03027228733501 6.510037360833903 8.374911455546998
Pt 7.535059582934226 6.05384075100732 5.871195074002965
