16
Energy = -71.91761219 eV
Pt 7.515929150256477 3.6020905346207646 4.430140594635943
Pt 5.592011743207739 5.183150025114582 4.937799020861421
Pt 8.946884443821736 5.055899517325948 5.941762505537606
Pt 10.194998006469497 6.663181156039498 7.491736495647054
Pt 6.67489581231072 3.8357423831026978 6.8881334482319785
Pt 7.227371138911322 6.883960883309421 5.845329657991768
Pt 8.313430587863454 5.112299991194358 8.551934323834445
Pt 8.923871142708498 8.64601085482938 6.530043157729802
Pt 5.921703064025464 5.923624742985569 8.106579830539683
Pt 3.848333442403629 6.857733965922487 5.546381689251436
Pt 7.943062921948536 7.6723041562046985 8.71117806343145
Pt 5.487465669853913 8.726350552901579 5.845469234537802
Pt 7.226934234791382 10.492237958948559 6.141057641761769
Pt 3.546526537184483 6.774446762075683 8.049646504317945
Pt 5.3390241163001795 8.49772465386575 8.395866277152669
Pt 7.200714302348177 10.14911247734135 8.655835351937078
