17
Energy = -76.52229458 eV
Pt 10.625092684899183 7.829383513058472 6.631296814972196
Pt 10.353421270693072 5.8513299609412694 8.347127901520594
Pt 10.681014631605745 5.379464420182689 5.830712689586951
Pt 8.147196865621199 7.949233121953817 6.052291484478064
Pt 8.97217653452517 8.062207335593985 8.651443199743648
Pt 7.622296339229262 10.014060540950561 7.5313908010971815
Pt 8.186174728914144 5.463265882525135 5.470703195447751
Pt 7.8546080648232515 5.572712104672933 8.072229903830287
Pt 5.797072163908133 9.199429545411975 5.93629385071055
Pt 5.95338873532831 8.262129651042605 8.43187206222679
Pt 7.227698864075293 6.928447007437008 10.175253591255514
Pt 6.318702586445588 6.915884545765266 4.356239052372565
Pt 5.778212893472177 5.8356949938352765 6.558664434697122
Pt 4.083435482483673 8.219011472325564 4.335024992566017
Pt 5.497501148188947 5.072234228473519 8.995873905920744
Pt 3.8492129049545505 7.481624260583793 6.7337447264705075
Pt 3.898836610307376 7.000286359407972 9.211488267541204
