16
Energy = -71.02269334 eV
Pt 7.321147328765367 8.69949244540842 4.605059766937162
Pt 4.2108206914577835 4.176377835735524 7.479442411364505
Pt 5.0198471083598815 8.350488902684477 5.644203619397877
Pt 6.679243039235788 4.781355133477686 7.99134371322765
Pt 4.966402670461473 6.588743632122641 7.609822330912377
Pt 6.218501169295702 6.309778800262611 4.651789175556566
Pt 8.56958797213284 4.595841397004877 5.364321972289221
Pt 6.9985460890288405 4.238039561903774 3.3645071411838097
Pt 8.174084679667093 6.9434802475997435 6.306665233922671
Pt 5.0517042833569015 4.14881275734442 5.089122329857436
Pt 6.914237673679345 2.9447225031697792 6.270319294947759
Pt 3.294746984953823 8.514665922306213 7.525556701150278
Pt 5.777165707727776 9.0285644355589 7.953338244359934
Pt 7.564538618921795 10.156776806151532 9.302551383421383
Pt 9.166837827855664 5.2027973256561335 7.80976960785696
Pt 8.073549480647724 9.321023619161073 7.033148399162355
