11
Energy = -46.31145844 eV
Pt 4.729670486494588 4.664125282530564 7.856528914240753
Pt 4.496570240059941 7.95902596736096 6.545485934960358
Pt 6.253196169650206 8.050746153093694 4.571060591628358
Pt 6.464100120399551 6.52741937375942 7.466847525874014
Pt 5.686545248933576 5.573420716909596 5.157588537459581
Pt 8.110895577000166 6.343091644223675 4.642403460578618
Pt 8.925677120543861 7.182335727511953 6.930383597798224
Pt 6.894128985455165 9.029103075913923 6.860377868847843
Pt 6.058654214314549 3.2646124501079945 6.219454254181846
Pt 8.11660289723131 4.675209345391437 6.702972747751401
Pt 3.2980304979842097 5.76498187388413 6.08096801950611
