17
Energy = -77.11151897 eV
Pt 7.379423601227566 10.657612963547983 6.920266927302708
Pt 8.841871103487058 9.849476956775263 5.078956758412762
Pt 9.091400938398149 7.684535863234558 6.40567646752567
Pt 8.255795836487383 8.896285556023686 8.478383012015351
Pt 9.314103973433431 6.959622399344203 9.651299504825921
Pt 5.468162287532863 9.07257946708896 6.255078376614938
Pt 8.504556361104447 5.539585601492193 7.613238115672434
Pt 7.151121237649401 7.899339852083726 4.769690850444828
Pt 7.00857359584688 5.7898369698882455 9.716995523473965
Pt 8.524074818783822 5.525916969507259 4.955972139906215
Pt 6.281637529998231 7.418197356596911 7.951394198887189
Pt 4.16778284917669 6.905132469267365 6.375801247083367
Pt 5.811299439123112 5.859789809794113 4.741300434172794
Pt 5.096590716868634 5.019529868881907 8.267729113664949
Pt 6.699433508349545 4.21069494155811 6.481910706945447
Pt 3.157999016399923 4.566312349055956 6.698626069462097
Pt 4.692763184743513 3.5623240711633715 5.034880606991714
