15
Energy = -65.41550592 eV
Pt 6.542673576480105 6.542673576480105 6.542673576480105
Pt 5.061271863806807 5.061271863806807 8.024075289153403
Pt 5.061271863806807 5.061271863806807 5.061271863806807
Pt 8.024075289153403 5.061271863806807 5.061271863806807
Pt 8.024075289153403 5.061271863806807 8.024075289153403
Pt 8.024075289153403 8.024075289153403 8.024075289153403
Pt 5.061271863806807 8.024075289153403 8.024075289153403
Pt 5.061271863806807 8.024075289153403 5.061271863806807
Pt 8.024075289153403 8.024075289153403 5.061271863806807
Pt 6.542673576480105 6.542673576480105 9.667406760000002
Pt 3.417940392960209 6.542673576480105 6.542673576480105
Pt 6.542673576480105 6.542673576480105 3.417940392960209
Pt 9.667406760000002 6.542673576480105 6.542673576480105
Pt 6.542673576480105 3.417940392960209 6.542673576480105
Pt 6.542673576480105 9.667406760000002 6.542673576480105
