12
Energy = -51.40248792 eV
Pt 5.530685619714865 8.158368805370888 7.904846555134117
Pt 8.23707523502274 8.158368805370888 7.904846555134117
Pt 6.883880427368805 8.17999018917276 5.647781148839673
Pt 9.433253604306566 6.883880427368805 6.014796497426909
Pt 8.23707523502274 5.609392049366726 7.904846555134117
Pt 5.530685619714865 5.609392049366726 7.904846555134117
Pt 6.883880427368805 5.587770665564851 5.647781148839673
Pt 6.883880427368805 8.166009835526063 10.089034997950732
Pt 5.601917359457949 6.883880427368805 3.741976852688341
Pt 4.334507250431046 6.883880427368805 6.014796497426909
Pt 8.165843495279663 6.883880427368805 3.741976852688341
Pt 6.883880427368805 5.601751019211546 10.089034997950732
