10
Energy = -41.18476765 eV
Pt 7.443002156138939 6.23461023048226 4.062817520241279
Pt 5.218640702783676 5.236741166202149 4.944149928993449
Pt 7.383726283516967 4.9719594542584336 6.434725349094881
Pt 5.729585640458499 7.967939341421116 4.919012003749798
Pt 3.5593749831246972 6.993105005349987 6.015075475514619
Pt 7.845530178978467 7.492175572459424 6.404067904223429
Pt 5.4996345935736635 7.90410882884602 7.5875245391110155
Pt 5.029998809467618 5.414002009288127 7.592748674813394
Pt 9.484121438266266 5.9214634775736155 7.651439994685172
Pt 7.235780106894309 6.293289807322664 8.817833502776347
