14
Energy = -60.25179939 eV
Pt 7.0503237749309475 9.268056354176457 4.689215729292061
Pt 8.653193131732632 5.116270726781432 6.779755498989352
Pt 7.0503237749309475 4.832591195685438 4.689215729292059
Pt 7.0503237749309475 7.0503237749309475 10.471490179430168
Pt 5.447454418129262 5.116270726781432 6.779755498989352
Pt 7.0503237749309475 4.901756287863703 8.888541285342885
Pt 7.0503237749309475 7.0503237749309475 6.941011015670129
Pt 5.14761393010221 7.0503237749309475 8.652239096501503
Pt 5.581042769687004 7.0503237749309475 4.856508674890514
Pt 8.953033619759688 7.0503237749309475 8.652239096501503
Pt 8.519604780174898 7.0503237749309475 4.856508674890514
Pt 5.447454418129262 8.98437682308046 6.779755498989352
Pt 7.0503237749309475 9.198891261998199 8.888541285342885
Pt 8.653193131732632 8.98437682308046 6.779755498989352
