15
Energy = -67.53297244 eV
Pt 3.5638722750047616 4.881257472569993 7.270386334979875
Pt 5.428698315176854 7.056926345348852 4.197053960000727
Pt 6.008093583810775 4.998563637346569 8.531019287653354
Pt 7.861071312960002 7.600336921787312 4.364316994846713
Pt 8.208109404793413 4.908369847003698 4.824402848489175
Pt 5.927708288587868 4.7851350372989785 3.2862872333348636
Pt 8.023513036832297 4.109082171818318 7.24117281209967
Pt 5.498827007246463 7.69823181709911 8.349282621487014
Pt 7.329277901445339 6.567273824821372 6.7687037281887354
Pt 5.800074213697197 4.341959313979462 5.91670958629775
Pt 6.324944693855945 8.823255079762511 6.117612515359287
Pt 3.6788880201839866 4.970115343470161 4.642508090028773
Pt 4.165722253369525 7.110476507269502 6.318453849537548
Pt 8.098958525253535 5.893084857299208 2.4499459336008935
Pt 3.893134164404718 6.066824819746961 9.533037200717908
