15
Energy = -65.73804812 eV
Pt 6.7112218815447795 5.586486809067948 3.65812193483108
Pt 5.0441322983225705 5.147300704159092 1.6877575793319666
Pt 7.409632384168468 3.7449588488917662 2.0077771570425313
Pt 4.70663767289756 7.139515599862177 3.494909247305765
Pt 5.23475852279379 2.707126782411211 3.0550205919955373
Pt 7.280182544992375 3.234462400255725 4.652190617200448
Pt 3.8182364132534077 4.666150455798101 3.911181307293772
Pt 2.61506041537218 6.640084391201448 5.100325886619939
Pt 2.621964369561358 4.21794957629917 6.153585064140532
Pt 4.859686435622365 2.884360610895349 5.6227284022813215
Pt 6.349941438949802 5.213515465861244 6.123401907586198
Pt 5.010940879545856 7.389554645849995 6.022729572606741
Pt 4.6491934815233895 4.082276246010795 7.8834508349685795
Pt 3.247333099244237 6.292032449032992 7.637926226533508
Pt 5.804575011118469 6.417721863313717 8.352390519173229
