14
Energy = -63.08497973 eV
Pt 3.472746379863737 8.489586755123545 5.244273000874939
Pt 5.985923696251035 8.52816665296383 5.115302968141917
Pt 8.492264034869386 8.551948956674515 5.339436404683646
Pt 3.503267489608426 5.981809751022363 5.0339292967652245
Pt 6.022046488730682 6.016141715545834 4.865325464165698
Pt 8.532868941953499 6.044284462604423 5.129748634501951
Pt 3.537172087635126 3.469495158663478 5.1775491582626545
Pt 6.050291313635231 3.4979993270562457 5.0484609537137
Pt 8.55639306423805 3.5321088512664924 5.273345644329702
Pt 4.620856612312384 4.592475812352604 7.18477168586378
Pt 4.585696080428235 7.3416772965293084 7.221568626183647
Pt 7.334495010062069 7.375816796520276 7.273554102081565
Pt 7.369413891990037 4.626798165117699 7.237271718436296
Pt 5.947081117801419 5.962206507939413 8.865978551374843
