14
Energy = -62.58280134 eV
Pt 9.661965878777883 7.390091830107322 5.466261265897589
Pt 8.670926342132857 5.507980659510609 6.813201208899288
Pt 7.561615767791554 3.8279337926890293 8.358222486389016
Pt 7.161409101369979 6.216070637141799 9.130837834502001
Pt 7.875097602214363 7.280614511136975 3.748115644012691
Pt 7.920441160379686 8.089707475034444 7.164333762407171
Pt 6.818455066511514 5.4403881218860635 5.105247663985486
Pt 6.211259286796114 8.590039479720843 8.956918407860659
Pt 5.570448589378505 4.069439238633797 6.822115445254296
Pt 6.179710021281045 8.228458153771534 5.352113362228369
Pt 5.287044974649432 6.462421396756006 7.5366950363219125
Pt 4.415005375391467 4.633104209904241 4.625850754882875
Pt 4.401380262118407 8.972223801544963 7.026134544413655
Pt 3.899610998975915 6.925897119931506 5.528323010713712
