11
Energy = -47.33608561 eV
Pt 8.222926728021925 6.638991229969671 6.601104333154271
Pt 4.1450424153793515 6.037851465733774 5.297763791023226
Pt 4.4354928592208775 8.56476065290494 5.236078357945527
Pt 4.467710388095106 3.6516284335883116 6.154775372018775
Pt 6.398142408731514 4.582486059343949 4.754332104330254
Pt 7.006477424335613 4.509029353782255 7.212702744705782
Pt 8.50151099283022 5.894076807790054 4.1624104720793875
Pt 7.207390806195128 6.687392868399517 8.969875520804182
Pt 5.9852353341186495 8.089529953033752 7.202517770410174
Pt 4.957841505701052 5.83924280144667 7.6709815395601755
Pt 6.498458845549885 7.33123991102776 4.563687702147691
