15
Energy = -68.02466146 eV
Pt 9.559249812019544 7.894758617590977 5.10938327251854
Pt 8.914369798938154 7.745408319459234 7.525414814444268
Pt 7.129527801737133 8.242190379910896 4.498329991986479
Pt 8.111987229898501 5.811460272818952 4.780000093289269
Pt 4.729593585321744 8.056279775076623 3.8075451683435375
Pt 8.231039208516165 6.522032435401976 9.626039422504782
Pt 6.467489263677302 7.900588478379523 6.8861657545759
Pt 6.480687985825731 3.92805024304192 4.513484605162264
Pt 7.932859142080724 5.425855215238521 7.268722064104658
Pt 5.817637689557682 6.938386516262524 9.101836384071436
Pt 5.1192721035599735 5.914534424606931 5.265900844866587
Pt 4.022858902215376 7.987916689864575 6.22740796003211
Pt 6.653337898475395 3.288031149976091 6.904468626478771
Pt 3.3954313353377947 6.868024171068316 8.378012153579306
Pt 4.925152199772223 4.966977268236382 7.597782800975663
