17
Energy = -77.79604549 eV
Pt 4.282821873222973 8.476511929435842 8.556974700050025
Pt 4.564172749408713 5.981193651626144 8.960370995390592
Pt 3.9117171593150992 7.862675909655736 6.116239798855149
Pt 4.694376035708265 3.550915881461204 8.209948950109853
Pt 6.910925983547149 6.253679309415061 8.020223501708731
Pt 4.660403467844961 7.4887633075843665 3.719621747088472
Pt 6.749263481700859 8.780873720303862 8.05367512154338
Pt 7.12191246229229 3.7749201130717966 7.668946073102779
Pt 6.315233209693311 8.242946901439538 5.642676497420408
Pt 9.215851114743817 8.845914257322258 7.556756512463491
Pt 4.70197428884353 5.485943257229993 6.47836840815248
Pt 7.578692237205046 4.666651304024847 5.289435518232518
Pt 7.305144706864133 6.785085102974246 3.7414838471002922
Pt 9.499401443531195 4.155458709645996 6.942291347744608
Pt 8.723924032100177 8.579849449038552 4.985852832793106
Pt 8.918004265272 6.553934348357061 6.472639279139722
Pt 5.349613510467532 5.018114869174675 4.087926890865571
