12
Energy = -52.08781358 eV
Pt 5.239077323317289 4.20237253964268 3.8466138861326775
Pt 2.7453942163239917 4.303790753892522 4.494370256883007
Pt 6.4164394825018105 6.60843738028927 4.492603112457564
Pt 7.8144781241141255 4.578287777295056 3.8072478175597357
Pt 3.929990167058203 6.639740621363196 3.778905793084443
Pt 8.410134188620997 6.4057662893951575 6.036238035773558
Pt 4.485174222357711 3.274906425664016 6.31777900270432
Pt 4.03847833209755 5.7904052522426595 6.189258881013973
Pt 6.76938180247998 4.4765739194297 6.139093360967597
Pt 4.936092307668559 8.108097388640784 5.906479487433931
Pt 6.633845072337718 7.309777992410717 7.641011687430404
Pt 5.4078186662780015 5.128147564890159 8.176702583715276
