17
Energy = -76.70781777 eV
Pt 9.624954223726105 5.365316227674429 5.6384246075743825
Pt 7.507155157360877 5.437330030020455 4.113859276410817
Pt 7.289829083505141 6.939815242206948 2.190409456654782
Pt 6.608654105505564 8.249912261150484 4.159365710561589
Pt 5.297672752865071 6.461273231199698 5.54889852371823
Pt 7.4208608920482355 8.252133132955265 8.350063964254739
Pt 4.836999756287043 8.92016319145497 6.034564339510437
Pt 5.280006430443105 5.616533214077057 9.885174827748173
Pt 5.004115329587921 7.345887185818516 8.021850738458044
Pt 7.433259885449609 4.724545708272591 6.780628901687697
Pt 7.680473158934439 6.478497241141491 10.17833904360235
Pt 5.007144293958515 4.687022295540343 7.524688807346708
Pt 8.31300210741732 7.5364336467519 5.961494045259778
Pt 9.09823099863102 6.116170523248942 8.075157933227967
Pt 5.650170584852665 3.924452556325308 5.143192290103313
Pt 7.237475876908538 9.806573790390342 6.318128310382644
Pt 5.7400128472307115 8.251701397483753 10.346919442287788
