14
Energy = -61.52720648 eV
Pt 6.290375351795592 8.659641476200727 5.794551136837295
Pt 5.187306489476062 7.500625713581241 9.696935114527626
Pt 8.413553017169216 7.583652327878699 4.8561651471081335
Pt 4.128224117017323 5.216397677122297 8.881370739878948
Pt 5.994865886523651 3.8049143212751466 4.326450555300451
Pt 4.969291819066805 4.402526863295178 6.588334953164858
Pt 7.772372979689644 5.669542456261464 3.362587018754627
Pt 8.761694643507365 6.871681462236079 7.358569544167685
Pt 7.608371692666026 5.031392289599466 5.949121891200478
Pt 5.676636690610142 6.361902329852887 4.766616009540363
Pt 6.623294750827188 5.735343193993766 8.283181459291505
Pt 4.698889562362837 7.074986802171773 7.107692108953729
Pt 7.01279213783557 8.52762280200892 8.299739398818408
Pt 8.752492099984998 9.44993170516794 6.618846297573681
