10
Energy = -42.07951134 eV
Pt 5.730979591987291 5.166225642278893 7.852990689919112
Pt 7.109024041452353 4.776274524315148 4.584002966952928
Pt 4.888068074942321 5.619624252243216 5.477284501520439
Pt 7.960523149775756 4.321084487084323 6.995303841875017
Pt 3.269626520031077 5.914864107402345 7.4909950839329165
Pt 5.0520692662593865 7.671576304382422 7.2070533406880735
Pt 7.799059267757493 6.80381594759596 7.498841013805769
Pt 6.967317887314507 7.247853301555084 5.128024568573237
Pt 9.202170845475981 8.245320805952161 5.897690339078403
Pt 7.013192602667907 9.225391874854656 6.859844901318453
