12
Energy = -48.80652481 eV
Pt 8.35092753 6.520193564369112 8.35092753
Pt 8.35092753 8.35092753 6.520193564369112
Pt 6.520193564369112 8.35092753 4.6894595987382255
Pt 4.6894595987382255 6.520193564369112 4.6894595987382255
Pt 6.520193564369112 4.6894595987382255 8.35092753
Pt 4.6894595987382255 4.6894595987382255 6.520193564369112
Pt 4.6894595987382255 8.35092753 6.520193564369112
Pt 6.520193564369112 8.35092753 8.35092753
Pt 4.6894595987382255 6.520193564369112 8.35092753
Pt 6.520193564369112 4.6894595987382255 4.6894595987382255
Pt 8.35092753 4.6894595987382255 6.520193564369112
Pt 8.35092753 6.520193564369112 4.6894595987382255
