12
Energy = -52.15097728 eV
Pt 8.418021713111393 7.507365394203068 5.470464188047957
Pt 5.946899492426066 4.672924921769641 5.10063950353771
Pt 9.177838576303097 8.978158472431486 7.368419812804067
Pt 6.6821196120189015 8.817532338230798 7.022870348861482
Pt 7.79833436516992 4.922304510067338 9.525169896219879
Pt 4.249406976849585 3.5238223250579592 6.557140726539558
Pt 4.245088552688556 8.558373105524863 6.458293917937934
Pt 7.500345408481882 6.025347541504054 3.649324660564555
Pt 6.212506865541127 4.9040532593007775 7.637374778415147
Pt 4.17564796278836 6.0418985153667215 6.583113162770247
Pt 7.901697543668132 6.740978051317424 7.861167432920376
Pt 5.775837926951041 7.390986561223931 4.84976656737889
