15
Energy = -66.76579056 eV
Pt 4.768333194396897 6.798980715822583 4.70064372956401
Pt 5.350412765096368 5.218767218690885 6.784331952331396
Pt 7.900594247174629 5.2366038001627 6.8129650007573
Pt 8.50685972784872 6.825804733064315 4.7430297909530825
Pt 3.0448056833104493 6.5953987257950875 6.5736615439046115
Pt 10.19225527359833 6.641664481584789 6.6518370159980735
Pt 5.328910060855805 7.934917177244319 7.060540992474413
Pt 7.878602765373224 7.953535927432917 7.089145940497056
Pt 6.620820555626272 8.750914272921712 4.956985901219232
Pt 6.580419997376317 7.668765491844591 9.4213907141533
Pt 6.652677566022059 4.862338769303743 4.563495223566331
Pt 8.848640296399799 6.400944577021094 8.927504084434991
Pt 4.34179607809416 6.3698188942272544 8.878358352873915
Pt 6.656050302929487 6.988159384439038 2.954734603047545
Pt 6.601502104266901 5.02606644881396 9.154055681537558
