11
Energy = -46.86127762 eV
Pt 9.180714174197295 8.294271667663313 5.78660300969314
Pt 8.748098227808642 5.833340317036875 6.433366824114426
Pt 7.3444468774415945 6.867805850879134 4.571573497953866
Pt 7.406020670095652 3.653746635126003 6.391363442032605
Pt 6.235010275567486 4.565442733728815 4.3196521048980525
Pt 6.835549203252354 8.458696554505103 6.620603834775804
Pt 6.5462076825597535 5.61650673770462 7.720203907103604
Pt 5.05264120219063 6.263684433037061 5.729540191929416
Pt 4.276268329458181 8.31987980738845 6.978050278287602
Pt 5.952123457229393 7.754418617879981 8.905346114062299
Pt 4.001178261487987 5.950465006339334 8.12195515643776
