17
Energy = -76.038441 eV
Pt 6.556384128816215 6.556384128816215 6.553956662249553
Pt 6.556384128816215 9.82872 7.028992019788172
Pt 4.243547258132202 8.869220999500225 6.084336790172118
Pt 3.2840482576324286 6.556384128816215 7.028992019788172
Pt 4.243547258132202 4.243547258132202 6.084336790172118
Pt 6.556384128816215 3.2840482576324286 7.028992019788172
Pt 8.869220999500225 4.243547258132202 6.084336790172118
Pt 8.457298294058113 6.556384128816215 4.781974695318472
Pt 6.556384128816215 4.655469963574317 4.781974695318472
Pt 4.655469963574317 6.556384128816215 4.781974695318472
Pt 9.82872 6.556384128816215 7.028992019788172
Pt 6.556384128816215 8.457298294058113 4.781974695318472
Pt 8.869220999500225 8.869220999500225 6.084336790172118
Pt 7.8994835018388985 7.8994835018388985 8.330839876627767
Pt 7.8994835018388985 5.213284755793528 8.330839876627767
Pt 5.213284755793528 5.213284755793528 8.330839876627767
Pt 5.213284755793528 7.8994835018388985 8.330839876627767
