14
Energy = -61.48843098 eV
Pt 6.122172106233849 4.932144581444897 7.634670096464757
Pt 8.704105345520361 5.040962629865798 7.542183010875035
Pt 3.558879004975815 5.183562306586929 7.432793911871271
Pt 7.5102111864050345 7.252567025659823 7.352428827694259
Pt 4.84258698361863 7.340991716556561 7.266729574363125
Pt 6.25684062666446 9.440885765520937 6.999773534641315
Pt 5.965221138774236 2.4899721095799996 6.731977657872906
Pt 6.207307444373983 6.38270383507392 4.741542668713317
Pt 8.852834313577628 6.258777645537222 5.15523327505352
Pt 3.5281882815347556 6.500976572328585 5.044167221642576
Pt 7.653479623189707 8.522892749937466 4.927661956984749
Pt 4.953194467908334 8.634436353843034 4.8414500949227195
Pt 7.418137728844004 4.123157442341916 5.381910681633205
Pt 4.777731669380792 4.246858930430558 5.298366767533699
