14
Energy = -62.65134975 eV
Pt 7.707864915771698 7.879612451376946 4.166536749042691
Pt 7.452287324740196 5.9167867263244265 2.5183850348916423
Pt 7.81750444306219 5.532186011847494 5.070127123800771
Pt 8.324284749887372 8.729967088784537 6.509742907337026
Pt 5.913989377979175 7.891505208331032 6.124827878327519
Pt 8.165429229821132 6.303265527726444 7.4155807471331
Pt 5.41597078688007 6.264542870634858 4.001075350337883
Pt 6.886713926866304 8.236504406548656 8.599451744112809
Pt 7.582855921067318 3.7288224423723357 6.963774470921126
Pt 5.427910363780717 4.972344139201109 6.341380537040351
Pt 3.6270370955975535 6.700638214127799 5.7908022684482825
Pt 6.412484225580659 5.053033370046039 8.847797313742502
Pt 5.704140287946151 6.906626558475196 10.447958697568243
Pt 4.537802939994957 6.86044057317833 8.178834766271251
