10
Energy = -41.79059008 eV
Pt 9.223117927599207 6.965587616439398 5.833814994753894
Pt 7.229013905354488 5.793650810449661 4.977353789974052
Pt 7.062196373972518 7.970404064082005 6.775871897072301
Pt 8.858705828373399 9.395412082770601 5.79915895621486
Pt 6.574417903409983 4.3316186725298635 9.141453883129346
Pt 6.052293394675404 4.396500110390098 6.766878372464163
Pt 4.714101847815022 8.661409917527008 7.403831365984656
Pt 5.694236238271581 6.522914308471598 8.388154298760002
Pt 5.088168882620278 4.582527506921317 4.430329981723662
Pt 4.829197747588154 6.705424960098104 5.808602509602971
