10
Energy = -41.21262297 eV
Pt 5.357916738695409 6.365848683611909 7.73151966525407
Pt 5.358098005576486 6.346555097065346 4.98096946752671
Pt 4.886529493226626 8.557815881736179 6.339438414033452
Pt 7.359865650213599 4.827359440377707 6.34885494547304
Pt 7.357569964613196 7.887668746651028 6.3636946178859946
Pt 3.20182410918123 6.35077102091656 6.356246151461313
Pt 4.889621803153495 4.153999297834557 6.373642859125711
Pt 7.829757450761643 6.3398208411239745 8.425627536255973
Pt 7.829928439517808 6.375007719148125 4.286967297447317
Pt 9.492247298938809 6.358512420080653 6.356397804746992
