20
Energy = -90.99370038 eV
Pt 6.107759418449599 8.036790621595506 3.9565609967448445
Pt 9.994695294009608 6.147311411113804 5.101009802138632
Pt 8.581816287679105 8.332521957025202 4.960151797448823
Pt 4.895603523278225 5.685722734184757 4.254968425550764
Pt 8.805581548816253 3.8416501644855585 5.394718412098641
Pt 7.38848097654489 6.00228445749477 5.013238732895877
Pt 4.152532195646685 9.115597027879204 5.305789534165484
Pt 6.2084350516031686 3.725654119203312 5.54650184907254
Pt 3.019423420370943 6.920042063007886 5.581547298329775
Pt 6.435113604678241 8.542207132464153 6.464904574188505
Pt 4.932969076116148 5.633215716741012 6.8330751982831135
Pt 4.375349136384633 9.32659482080825 7.886987513867456
Pt 3.2404710926113243 7.131949034472214 8.162971065987428
Pt 8.81068900644808 8.54961124136364 7.590593290997544
Pt 6.434576923943495 3.9443572740365886 8.176366100489325
Pt 7.657863173759789 6.259876329742124 8.1255744946647
Pt 10.208741170923059 6.3511184219410435 7.56449365226925
Pt 9.019177899223624 4.046509340631999 7.858125842998955
Pt 6.547433775825465 8.454050072905705 9.03811212672108
Pt 5.333578665411173 6.10322730062677 9.334600532810343
