25
Energy = -119.12875125 eV
Pt 8.70324586760116 8.276952970955392 4.866302615429443
Pt 8.382302097214842 7.078332877384823 2.660260206500256
Pt 10.700422727101298 7.000774007323151 5.934055421002897
Pt 7.8401929166622635 10.503923857335481 5.969087015879097
Pt 6.200653547748259 6.3742398111380885 3.7462781508469494
Pt 8.643329266796808 5.680759288005167 4.877162721368296
Pt 6.336903253731925 8.94164662683999 4.3278389915784645
Pt 9.228431188607406 8.644252749132951 7.339305401241819
Pt 4.633727696132396 7.361734822912888 5.469210669371069
Pt 6.877364756579263 3.8824637568351004 4.077954548432895
Pt 8.952962494940445 6.007269146971094 7.554459997082695
Pt 5.703956065944564 9.297945850473814 6.827808250303913
Pt 7.71026735806347 3.945887225959281 6.557490830930581
Pt 7.517186832176583 10.160617144526642 8.596189645689126
Pt 4.519230662427763 4.753617904130528 4.782303950723688
Pt 7.233571714690626 7.553121064559592 8.721784298946393
Pt 5.514608892699173 2.6068416882210044 5.981337116972726
Pt 3.4367522612529635 8.228867285290814 7.608023434527166
Pt 6.996666572172616 4.9965835819373305 8.870683302428013
Pt 3.09045987018982 5.775499018719173 6.820716686364739
Pt 6.571156319035473 2.4229149744607086 8.415885827669797
Pt 5.221667280526663 9.101344560362506 9.393905304071215
Pt 2.902730299523901 3.283598527657951 6.264692984074248
Pt 4.866129390093207 6.495682353614034 8.910061785675046
Pt 4.722752475480238 4.131800712645182 7.9338726502818515
