26
Energy = -123.8520697 eV
Pt 8.957782359541374 2.6509851786761396 7.548900485997832
Pt 8.726843392509343 4.4309947846443665 9.260838987818612
Pt 7.828530951752169 6.044408293829293 10.945133773933717
Pt 6.959366965592237 4.115368802124626 6.7439151504034385
Pt 9.657454940188748 4.293977616206694 5.811885779056802
Pt 6.20518921171857 4.925158814483265 9.209055693137268
Pt 4.414079425828824 4.509323082950694 7.422337191192826
Pt 8.689282286872569 6.167761988388843 7.336342391030747
Pt 4.247100596994455 6.620376153435617 9.019372152020166
Pt 7.02795765815091 7.356757921573343 8.938873221831626
Pt 10.113107352719663 5.806490736419984 3.877318494727323
Pt 7.650155942425992 5.111412472680856 4.301351219953919
Pt 5.226841084622438 4.873198491793318 5.007725067604447
Pt 7.261819112434859 9.859868536272678 8.569867277628028
Pt 8.612522726181817 7.440433231124542 5.069955839993607
Pt 5.215076198980433 8.873866187958438 10.095068841308926
Pt 9.241306083027913 8.713443984171445 7.274101289207649
Pt 2.602245664512831 4.665822673315506 5.471207504135291
Pt 5.13110552026011 8.576181558905965 7.526982266815791
Pt 3.501907805611848 6.860695912304334 6.534515645560837
Pt 5.8928680455357165 6.317511868728919 2.92521100535771
Pt 7.106407915127181 9.34066637924926 5.948931410432337
Pt 3.4086128391813864 6.52260305534232 3.9163713950430843
Pt 6.836012292651818 8.604304937990726 3.4742649253739235
Pt 4.786087983165203 8.591889454362196 5.018337487653585
Pt 4.369134186919255 8.395296425574564 2.420934045288617
