28
Energy = -135.07339087 eV
Pt 4.743059660301267 9.293651048515349 5.378476855569914
Pt 6.376145678396704 10.156214481711594 3.3955535995046726
Pt 3.2677697059175306 7.0614369991168475 4.712359830760104
Pt 5.516499563170475 7.673191413091562 3.497292586141543
Pt 5.865746546470729 9.436033649372252 7.718139177357376
Pt 4.474071486129945 7.273393640224242 7.070894647280334
Pt 4.996712630591273 5.227321494182422 4.046195868190135
Pt 7.305910760129159 9.017837526900996 5.569900406942995
Pt 6.6343959342279355 6.342778186882435 5.895843912986134
Pt 7.272774890850093 9.419468497390962 9.884721144727981
Pt 3.57001908462281 4.93600935044907 6.176907704128368
Pt 5.6179417828952785 7.384096762226373 9.373918766144385
Pt 8.069477154124638 8.059754574379697 3.278200739728457
Pt 8.657952175092124 8.811667633317827 7.7958192059297895
Pt 4.667970166899797 2.75368936003509 4.890197562947934
Pt 7.001662908960381 5.734997371751215 2.37866472250578
Pt 6.8279521930067775 7.591968559152782 11.75440094492339
Pt 9.733843957272155 8.100601928184808 5.494300004849823
Pt 8.710324039433665 5.822342725320605 4.46751502399598
Pt 7.096109344946734 3.75736432306586 4.177784157183658
Pt 4.036211205907712 2.7882991046025842 7.505001227558356
Pt 6.414792097388857 5.2292927182874305 10.59871857559717
Pt 6.353522953602544 3.558847388368891 6.7302662814286025
Pt 8.957221846244789 6.298189743701369 7.193555060239149
Pt 8.236532960721053 6.902335584174815 9.619664150705525
Pt 4.863462925391244 5.054408333349843 8.503459576639557
Pt 7.844691421340153 4.433430756289649 8.604090643329037
Pt 8.869893217802696 3.864045137791803 6.27082591454192
