25
Energy = -117.08556104 eV
Pt 7.607829539722757 9.63187721741133 3.504210478302686
Pt 7.162560591577452 2.884976515436731 5.666386887519788
Pt 9.710277661323683 9.304008981444763 4.9138926060574
Pt 6.800350905473167 5.193965461857783 3.843482572180938
Pt 6.133034657257138 7.659675494896954 4.4912087161250955
Pt 4.985056384257647 3.3435651927302428 4.495895959245076
Pt 8.590581102347853 7.144627991931337 3.662154056160014
Pt 6.277046380537525 10.02489924641188 5.638251363106077
Pt 8.814255814553457 7.18077385635464 6.226106661689173
Pt 9.54588369638542 2.525176483366466 5.1731335226300565
Pt 5.06239708933247 5.694668732753971 5.721342817389023
Pt 9.167676558896272 4.960801995508056 4.956944829281669
Pt 5.821140176016349 5.3838991935696345 9.164424498764513
Pt 8.36096724219935 9.599459360717805 7.069620529706187
Pt 5.008101725330082 8.003085086907193 6.812507940690278
Pt 7.47759370839127 5.136939719426575 7.071796981727611
Pt 3.8413610070527464 3.652010632158809 6.837067627031166
Pt 4.972063320110795 10.39970051621747 7.830795548828715
Pt 7.483891576955154 7.429767018709896 8.38448101255501
Pt 3.6523777341633985 5.9664094329038 7.946891552175444
Pt 5.992152454498146 3.1240636280681215 7.952866033926616
Pt 6.959456244740448 9.893736344295396 9.227748422482124
Pt 3.643708387959057 8.366103805567361 8.977128359633936
Pt 7.718617656508152 6.229750345627108 10.655139588799724
Pt 5.698676901249401 7.753116262566747 10.263579950831732
