24
Energy = -113.94437009 eV
Pt 6.832703124008172 10.18390762966117 5.536356238437913
Pt 6.9101410515878126 8.715456142278555 3.360637630003617
Pt 7.56259488267875 10.605940726124532 8.060011634960377
Pt 9.3653072580886 10.813931723774184 6.291224357513409
Pt 5.499560013161566 9.061452683334316 7.560837881561864
Pt 5.075264997679647 8.253061033535845 5.1325208887439135
Pt 3.9872760753767262 6.978664711522436 7.192351075434129
Pt 4.464806451361069 5.7326290445777 4.805815275752235
Pt 5.917076464410611 4.573849793396863 9.408474400172455
Pt 5.283322290463163 7.140994577173555 9.488152658140917
Pt 5.874437837282741 5.273876475240413 6.940896450416899
Pt 7.007418072592788 6.52887355756679 4.90522733224052
Pt 7.36271521449678 7.171255462622796 7.922149576869817
Pt 6.147694858775274 9.664836958864349 10.014838497084506
Pt 8.677527294163868 8.45902730519404 5.261718983188313
Pt 10.064450854195144 8.574678653708236 7.414797134738568
Pt 10.649109554963351 6.86785734181363 5.269426333397232
Pt 8.585897944513647 8.758371379392706 9.546610819539922
Pt 9.726241006907438 5.948890666077772 7.489337193112066
Pt 8.868154823860872 4.880417853281089 5.353266597692958
Pt 10.38646868835403 6.977462386351806 9.7617298482602
Pt 7.1766552657101546 7.349746168896227 11.203201173979153
Pt 8.26863724421786 5.492133086494107 9.716815965055288
Pt 7.913997632068202 3.8901783500025284 7.569738298158045
