21
Energy = -96.57225591 eV
Pt 8.470935723036426 9.264574189743964 4.301980319041976
Pt 8.858412320570201 5.224435142659096 6.562245701229265
Pt 10.172922016592686 7.292988373243325 4.276324155549757
Pt 7.767702610770866 5.828096984228468 8.94600435587084
Pt 6.757753571395471 7.846102796042002 7.706012299424397
Pt 2.226071546124451 7.515204423938433 8.3025776833936
Pt 3.506946603525675 7.584580641581378 10.49575258171379
Pt 3.516283628129863 5.518261802462351 7.267754967026713
Pt 6.160456714524767 8.611670341798515 5.3172216603091815
Pt 3.410320886719143 4.433864135615201 5.024725792849913
Pt 5.861652431235479 3.742034177230376 4.865087146288309
Pt 5.214532879681508 6.272426149664022 4.6703484925755
Pt 8.205844900581004 4.28720670967615 4.258299015487258
Pt 3.9187311103387135 7.8667112914537345 6.282428638924035
Pt 9.005179743561548 7.90514030136671 6.487821765583601
Pt 7.700536401948575 6.7425410794644 4.108790847908964
Pt 5.201540487591037 6.165442611783493 9.208949027392068
Pt 10.129998695511473 6.550650190991395 8.32971262690379
Pt 6.166265265595943 5.264886915629405 6.93470894718065
Pt 4.589102266175075 8.868161798630158 8.547484393354445
Pt 10.655133432900847 4.883241262582472 4.781947183788089
