20
Energy = -92.30920828 eV
Pt 5.019598289586496 3.2783277708008836 7.560451496220699
Pt 5.274998755336912 3.992389056880611 3.056058252119996
Pt 5.041105984271873 5.609509371181285 8.627220079504447
Pt 6.3513442171227545 3.7960098481691 5.410206839865517
Pt 7.444874811975597 4.240384092364996 7.649190418269426
Pt 4.155768720797471 6.225774565611678 3.7115798284853083
Pt 7.480878478811026 5.939849775271846 9.601340715844236
Pt 6.723266551629368 6.012759356754854 3.5053386108010414
Pt 6.349922166432448 7.872346497230311 8.247126172839806
Pt 8.555525692848454 4.4920164556365485 4.282535406641818
Pt 4.864035468887509 5.75313491313979 6.092537068511425
Pt 4.456133850751089 8.323780810458574 5.082475637061332
Pt 3.8639023939538015 7.677703859185095 7.673063998043525
Pt 9.781309829538822 5.177789230007152 8.598153333973062
Pt 8.841664185461566 5.969166824956871 6.271718477466315
Pt 8.884589837061872 7.654855559526305 8.171269842571025
Pt 6.983077552566713 7.524468757668612 5.456851707751264
Pt 8.68925562065662 9.276670628385396 6.255763984850516
Pt 3.704277646977057 10.063191516470267 6.823655432881513
Pt 6.231251497083421 9.81665266205111 6.6202442480483095
