23
Energy = -108.44509155 eV
Pt 5.692999782999425 6.725826266060423 9.781878545250649
Pt 8.070909908552007 4.777613998195284 8.404365945701693
Pt 5.510747652531875 4.761886341464142 7.903986662276894
Pt 8.367835021821657 6.818439823136969 9.890537517086543
Pt 3.7600771317432913 6.952416101552798 8.003621164101032
Pt 4.799786241311388 9.16912945901956 8.887956074358682
Pt 7.064752902998872 9.07419612532446 10.17672101840144
Pt 6.971232738584683 7.058421522571318 7.6189762189908015
Pt 7.24601386605469 3.2368625470049603 6.504106233457236
Pt 3.282956593763006 5.283726779877085 6.192969228732943
Pt 10.232535797497382 6.345887776514838 8.051601683126155
Pt 9.49466050855579 8.874476948435335 8.773651733256214
Pt 5.60086000839998 4.802857902957688 5.260918439596039
Pt 7.758077770553021 4.106430683040305 4.070708599300067
Pt 5.09813276509927 8.398611614575026 6.399030856317885
Pt 9.104230246793101 5.176113066581435 5.996259975443549
Pt 7.232495360638831 9.6099195771835 7.5963472064245545
Pt 9.028388434047635 7.860038597922328 6.303044993432463
Pt 4.358604803852064 6.904913897602708 4.500999458085664
Pt 7.153749160815167 9.179767866135727 5.005159257943021
Pt 7.698792558438733 6.713568520914286 4.357804443715732
Pt 5.945812344837313 5.458796188866618 2.7273009787290468
Pt 5.953823315301768 8.135200086137521 2.981878924205893
