22
Energy = -102.87617024 eV
Pt 3.298972588874088 8.788604793722975 7.747743087563477
Pt 4.1990914955107 7.997214647780761 9.956663607551192
Pt 4.930063861863749 4.965757292961885 5.902300670034606
Pt 5.580126474383669 8.263896547646688 6.829131019064225
Pt 4.135186313507878 5.62205789210746 9.009834325560238
Pt 3.0951040665621137 6.393631554776085 6.874954928349094
Pt 8.871295215338888 5.904691822548457 3.0618771129946474
Pt 9.139181367306719 7.582880936696681 9.304591259851378
Pt 8.154317822052874 8.10906542916259 7.049777693858315
Pt 5.182841623066117 3.491237263735188 7.964551348676612
Pt 11.24895738474216 6.736380519603856 8.090859036327528
Pt 2.35011332844453 8.353821755634613 5.386960078992347
Pt 6.830540945228713 5.876815769359542 4.545736276544832
Pt 6.562684599810775 5.634383067239344 8.411925407321675
Pt 10.390894055244491 7.711740009705111 5.940630009843502
Pt 9.331821384978529 5.44304897574257 5.519484741551538
Pt 6.610694199175142 8.069302949123795 9.214328257393468
Pt 9.412171211377276 8.271368533243908 3.702891507716968
Pt 9.087100453811313 5.346393224212346 8.005066077489507
Pt 7.366458517308904 4.005334748002354 6.478780512024725
Pt 4.604944236486272 7.305835960920907 4.663715802393112
Pt 7.1070311359359435 8.412254840036441 4.72444445751148
