25
Energy = -117.49537874 eV
Pt 6.914142570223317 5.10394978084549 2.9810453230498943
Pt 5.715992264000231 7.265914532765776 3.67381422664565
Pt 9.068537971468286 6.200673091418693 3.515910880082869
Pt 7.915841443120593 8.406288423409197 4.224213083285659
Pt 3.1563985362582576 7.352102383403589 3.842996542455665
Pt 6.744119322248224 10.604539307943078 4.91350449682387
Pt 4.5718456255121 9.397298178303778 4.422974339279749
Pt 7.434251235453551 3.2508987593252905 4.845776653213165
Pt 9.628037455637683 4.313499131682087 5.363919270789764
Pt 5.979282693246164 5.306804271024564 5.456794291131222
Pt 8.323475765386085 6.480175919538938 6.022190593356913
Pt 4.306692407706531 7.252003306146929 6.1241392589941555
Pt 6.708922671660354 3.498631511452549 7.320170978933781
Pt 9.893951630192332 7.8998884645151 7.44759071980004
Pt 7.5919898046500895 8.932570935637733 6.842076041235081
Pt 5.281115404575488 5.626955664880147 7.90797874652595
Pt 8.931034867983612 4.6215912378879125 7.846250749313607
Pt 5.195604384372749 9.763668713262293 6.955245245442766
Pt 7.71594243733858 6.892557969502611 8.515404234566232
Pt 5.980318696163492 3.9000762091743977 9.757863425200016
Pt 4.300940375185055 7.945936340437902 8.585781895087608
Pt 8.160261085571799 4.983884954524742 10.283125850957054
Pt 6.4536517302532985 9.123282966930999 9.225351018122323
Pt 4.647825101501385 6.122271305326994 10.41256182738408
Pt 6.820753831085321 7.195465951454409 10.954249619117649
