20
Energy = -92.56850549 eV
Pt 8.767369325162056 4.8795168479249815 8.637581129476304
Pt 8.24837345372361 7.643904684488389 9.862508256099831
Pt 9.560449427583421 7.054948523698263 7.693502569867014
Pt 6.501576057184977 5.930119372803624 9.149681298474025
Pt 8.159836655694646 4.61172750170444 6.156223356193667
Pt 9.697831220595416 6.443005635016607 5.252632641819291
Pt 7.679276087329487 8.83272510539393 7.666150004050853
Pt 6.680771350931214 6.663007639551207 6.724941295258263
Pt 6.363112305661314 2.865358155608441 6.4745760308909315
Pt 5.010572027057588 4.069824538715261 8.298369667216667
Pt 3.949506356691366 6.258646007487848 9.098068635452215
Pt 7.533741911315179 7.485173226348805 4.454932188260158
Pt 7.137108259372682 9.863129026570775 5.360962303446802
Pt 5.172885539292929 8.735743283876923 6.727006779298304
Pt 7.631241695662753 5.0638039710548455 3.673827794782466
Pt 4.952267254561651 4.934798598881044 5.935957277773586
Pt 3.460112107337438 6.860951876304955 6.678395064357496
Pt 5.2179607173165605 5.948995404163426 3.649941338454453
Pt 5.143279944171064 8.584180651535647 4.207510860369975
Pt 3.022892505467527 7.1606041509835885 4.1873957105708595
