27
Energy = -129.88795078 eV
Pt 9.785278135327843 4.259533275038651 5.51493660482742
Pt 10.18247497642501 6.32235121207258 4.089655612145138
Pt 8.270448313850439 7.499667862039048 2.922827673028257
Pt 7.262010304841507 8.43158757434936 5.063755465196797
Pt 9.124620637285167 7.046683964607628 6.319671216533036
Pt 6.413003043430178 9.172763319071212 2.459896400136932
Pt 8.028621290451035 9.147802997371477 7.5196423967022685
Pt 8.305254934381619 4.833016665696228 7.594352764516926
Pt 7.717936929444808 5.215642221707471 4.198315641962054
Pt 7.149101074468645 3.22349180197668 5.9003107540773945
Pt 9.263454957938352 2.3990714799099435 7.200956936339917
Pt 5.712065761509185 6.843053343834166 3.4580601901606163
Pt 8.614718432079236 7.022754325944888 8.926463828317884
Pt 6.893590514834639 2.8766889437008385 8.590749286092516
Pt 6.403988582793674 6.620765235552976 6.919861987003332
Pt 5.357448129247905 4.906388095831969 5.090802698973215
Pt 6.3085312809856156 8.19935880840358 9.221979322273583
Pt 3.8445064412634635 7.069348207182845 5.316001794126552
Pt 4.720582178994791 9.33871925891316 4.4208596606204225
Pt 5.508933939437154 9.248676590620686 6.89535510192797
Pt 6.42112275316512 5.405938062818385 9.319163640595745
Pt 4.811784957613154 3.7172828889046183 7.368656704821275
Pt 2.880848091254672 4.827241736809396 6.109115578719017
Pt 3.947102726818038 6.0428702696052055 8.109947061064084
Pt 2.951710558236029 9.243652220222899 6.356332062960043
Pt 4.540556396418749 6.831430169961388 10.511530252222226
Pt 3.6851962899542805 8.516714713207325 8.72391759881801
