21
Energy = -97.50102312 eV
Pt 3.376166572973864 7.318459771775605 4.410726832643762
Pt 6.472977283166217 8.506002944054458 9.534158543097337
Pt 8.532474209925457 8.241722227040867 11.062136211802608
Pt 5.796594734924475 7.936140503005989 4.240839602825529
Pt 9.593093359894635 4.621091820169336 6.639845233061249
Pt 5.802662176803647 8.598647589297588 6.9103127828579
Pt 8.064878971572998 7.570138754165615 3.2073859955294752
Pt 4.781945298131317 4.064242530531113 7.995589687878124
Pt 4.803365678635192 6.588615969599347 8.59942992416562
Pt 7.293535985600144 6.328531837507067 8.563650145044653
Pt 6.480464222389048 6.06388078276911 5.801470644186155
Pt 9.854862243823122 6.818084179286973 7.938553030193202
Pt 10.258368309824846 9.116752831469888 6.523562687820066
Pt 10.097097770453164 9.01222605759835 9.183885372137798
Pt 8.06514767665451 9.44283797890889 7.7883393014802
Pt 7.201268016319262 4.148248570781873 7.276844798020797
Pt 7.895194139004 9.158272508241536 5.230981645533362
Pt 4.02244526804817 5.490225047192236 6.0695170270342205
Pt 3.3815273453231938 7.916424842378361 6.886179534890612
Pt 8.907802735210211 6.8141579300623825 5.534341356776721
Pt 9.17304601710142 5.935449439199606 10.230614692424991
