27
Energy = -129.97357565 eV
Pt 6.66885810708575 3.915131184869186 9.058961124201435
Pt 5.343568273637875 6.0476720042740535 9.7525228730095
Pt 8.647059129927335 4.304184030128756 7.315492708644773
Pt 7.477745105452076 6.426581535591284 8.338713372431235
Pt 9.184386303900537 6.785548888713005 6.370151838503604
Pt 6.351147325933164 3.5453047287156036 6.51706945762842
Pt 4.3392580417112 4.7426069129919695 7.758385837739358
Pt 5.932593393052581 8.556662252332211 9.128510115735999
Pt 3.5159801075591233 7.551363794872181 8.80623230473261
Pt 10.061821088405974 4.579289499555416 5.198015483908662
Pt 1.8906179736694033 5.711737833967461 8.160173755851485
Pt 4.727800264579413 8.558183479834641 6.800699923635673
Pt 8.436235609363997 2.4344162913670795 5.367951513618897
Pt 6.2222413485078185 3.4812625785624567 3.986222119915585
Pt 8.592006649146672 3.8359220034006998 3.118472514046243
Pt 6.080275024122499 6.1630393747679975 6.172183497311558
Pt 2.1447726026071288 8.081019384798408 6.586318087769129
Pt 3.9997162716581642 3.473586657353437 5.396503064698469
Pt 8.234855016872316 6.156892158627012 4.062708090270129
Pt 5.9644673978722915 9.698532900218497 4.8275359828829965
Pt 8.407684723090728 8.656894705393677 4.630159725177614
Pt 2.953001506721556 5.813016850238317 5.811608750474844
Pt 7.33496788371895 8.68058732797934 6.9384530810617395
Pt 6.7025046462388005 5.414153627359403 2.0830943444185506
Pt 4.735859413543795 5.600649285206938 3.9690210543833264
Pt 3.8354686202415795 8.060857725344494 4.475853625778544
Pt 6.217423117408311 7.65935257510935 3.328579336573915
