23
Energy = -108.75167987 eV
Pt 7.454313880976541 9.88436641640511 5.6641110347925325
Pt 7.456696009756629 8.129538578055474 3.6665238988782964
Pt 7.904946686863473 10.661674034119478 8.1427933784337
Pt 9.87800820426547 10.663709074300725 6.480117885918107
Pt 5.650542106611331 9.464767018850807 7.617339942990568
Pt 5.6194375922456 7.972259302373282 5.450705888397956
Pt 3.965165199036969 7.3341944059853 7.282460023699192
Pt 5.524491493328047 5.543316374493217 4.645880334198784
Pt 5.756014879237273 4.876716035838006 9.697199701372348
Pt 5.549055805423964 7.402938982099815 9.305115775940976
Pt 5.731036811327396 5.414729864157417 7.181685640333348
Pt 7.970051123705167 6.080829476508287 5.131686993311422
Pt 8.745278862106916 8.560214301803148 9.864271029630206
Pt 6.483357395109119 9.778154050860666 10.130097317639677
Pt 7.6586911272459295 7.6976633407841 7.488611798793213
Pt 10.582767749221665 8.540751715164848 7.7429832828800365
Pt 9.492239818033495 8.255219802818669 5.358510542508141
Pt 10.236178818600148 10.632916097812611 9.194358685267005
Pt 9.788865224815652 6.1561768201424725 7.0061584648183315
Pt 10.458157293680587 6.658056681686919 9.5251258016466
Pt 7.30418288767436 6.8541350418288305 11.04832783941341
Pt 8.141317236748511 5.471907096731637 9.060908714067377
Pt 7.977446266101394 4.153329676758004 6.825867509092354
