29
Energy = -140.274323 eV
Pt 9.122429044580779 6.2689940361486824 9.169803991777842
Pt 9.727666623228801 3.7024414420438223 9.032869560518082
Pt 10.205881651946514 5.174547169231714 6.852107946568847
Pt 10.236981167064656 7.720931631694023 7.250440442247068
Pt 9.899498109899803 2.6300506910731403 6.582405236789125
Pt 6.37264289590095 6.841894445017344 9.578179210509413
Pt 7.376252602786832 4.481689887952605 10.008288107572767
Pt 7.4340605872831595 6.103018804682934 7.170373443658391
Pt 7.944677229601113 8.502751451837932 8.186615973174723
Pt 5.365105302252993 4.609449528469584 8.321301942327707
Pt 7.584276144515074 3.370191565930839 7.551299291772964
Pt 8.742474935091272 9.356488421021735 5.7959075132464735
Pt 8.937077819485383 6.780252553092152 5.114138503540964
Pt 8.429183675073787 4.173689989869022 5.064030716213476
Pt 5.869080505727033 4.185012040909678 5.725679402565537
Pt 5.526994244168372 9.188318406911497 8.833335095495597
Pt 5.512359180529603 6.997982988546501 5.7876637815553
Pt 7.086934735552372 8.415550832576555 4.017160361652522
Pt 4.158299551506108 7.0328171884950565 8.046121931162954
Pt 5.233481032188591 7.358862573452179 2.5294023470134626
Pt 6.857974471340964 5.6914405224376345 3.7409374457266886
Pt 6.190424264670323 9.51914013538056 6.279593184565144
Pt 3.4836978026408074 4.89485927512694 6.614496973428611
Pt 3.6747173327339167 9.423071424188805 6.95623312159255
Pt 2.6546783641804113 7.248149583905625 3.2241664494043922
Pt 4.235926558214793 5.313018933777552 4.000999275095012
Pt 4.313077790313828 8.905368191752078 4.439668911079162
Pt 2.5745588380735733 7.342066367038254 5.902417678775803
Pt 1.715061784234268 5.22262049292601 4.720285422260401
