21
Energy = -97.84336715 eV
Pt 5.379521949099918 7.06269686538255 3.5152726347012972
Pt 9.45089549314082 8.50955649324813 8.364827932003326
Pt 9.021112966221473 7.050758276067292 6.045068845502042
Pt 6.598089523433572 5.085924046865643 10.788898800542984
Pt 6.330877017507476 6.220371009452441 7.23311674814979
Pt 5.824249096928355 8.487362526855664 5.662551134680931
Pt 4.235187622034592 8.463264782293008 7.817459283443544
Pt 7.16676613205409 5.626097299509319 4.770914125925155
Pt 6.378987697074154 3.750798176963809 6.366701896721373
Pt 8.443638024590129 10.819894844163667 8.194423798642884
Pt 2.943410961896574 6.275689381418245 3.730752692024146
Pt 8.16251967079891 6.875228607004424 9.887100816025207
Pt 4.031145054957226 6.601037252277345 6.056297964302553
Pt 6.867336597723375 8.66860696752223 8.097675923144175
Pt 8.96949288626014 4.464524082483239 6.339548924336516
Pt 7.726533545908915 4.47445095889944 8.580925600759027
Pt 4.689813549383535 4.5803626105648245 4.618967368977948
Pt 9.974451395976637 6.001148748465275 8.245716585545022
Pt 8.212387508365005 9.56859578870224 5.987699414353015
Pt 7.778763615832652 8.03873964637258 3.9542924053149444
Pt 5.426394907127177 6.9288615042082045 9.501695342087856
