21
Energy = -97.52580023 eV
Pt 7.642004815961368 6.002509996938495 9.972759276782053
Pt 6.101007465421815 7.930680073080522 9.249860914978482
Pt 9.307466458676956 6.053027537012328 8.021216937315605
Pt 4.301314362088397 9.695642207576359 9.008202322304347
Pt 7.255238003245412 7.270234260379774 7.04681991760843
Pt 7.742001975788812 4.07807672343136 8.07174391505313
Pt 10.979352570656108 7.4099286089329555 6.6271605131791285
Pt 5.565434870860125 5.414816747127384 8.4135341290355
Pt 9.997938931454355 5.216593723734233 5.752135770230252
Pt 3.6573101521887925 7.105230659539295 8.831775384374296
Pt 6.098671306458987 4.5968179379270495 6.005813648652823
Pt 8.88441701296444 7.424330381538926 5.133531890171093
Pt 3.5067598888963016 8.724507290124476 6.80926430984078
Pt 8.316602656322832 3.3717841650663023 5.604293640437551
Pt 5.362445169703463 7.797659816983601 5.413422520775182
Pt 3.887326814001645 5.892950563644053 6.519884076706126
Pt 7.192139862477616 9.10113291495613 4.247430796085717
Pt 6.652983257287363 4.10622670335875 3.5555991842565167
Pt 6.9488616787358914 6.614517569781198 3.7057671509075703
Pt 2.7645560262961473 7.356239019459387 4.710646893443666
Pt 4.514982701049674 5.515909079943027 3.977952788397481
