22
Energy = -103.14323879 eV
Pt 9.03669389884068 4.872899433687937 8.669909078818442
Pt 6.539345135664767 9.244616136949011 9.34880865485293
Pt 5.095041451101047 6.989379885327823 9.432004338141986
Pt 7.757440513271419 7.0194438940932695 9.248136438858628
Pt 5.205325237635268 3.036585786580046 7.245545747939625
Pt 3.9952155378760508 5.277211724068383 7.7520833796219915
Pt 6.556867988010569 5.123226767835592 7.976118552881124
Pt 9.811902899830798 7.07592288349514 7.628366937367205
Pt 7.643770705762177 8.658344192893338 7.046162499165949
Pt 8.425512383449627 5.428083926397492 6.164722775463692
Pt 5.124647229414277 8.361474131049754 7.274299905494041
Pt 6.073980081311108 4.644293151445265 5.28226048241196
Pt 3.6086111903624323 4.050761187756576 5.497015981578076
Pt 2.8001488860406845 7.50819802727759 7.973206447090047
Pt 10.15975184364716 6.156217409629825 4.356611547903977
Pt 11.138152380053867 8.094312519040015 5.784241283673893
Pt 3.7681452890716045 7.028721697010157 5.5638658381972474
Pt 7.627588542748513 6.19541022142729 3.8359701726114417
Pt 8.778028893026272 8.360419718158413 4.841485447936017
Pt 6.184173882685691 8.185031339523126 4.911430719749759
Pt 5.0875454626700956 6.233708788682007 3.4957005331816196
Pt 2.648236646044716 5.521863256190327 3.7381793155788876
