25
Energy = -119.05971933 eV
Pt 7.219214044316889 7.517257898868907 2.3113200971527865
Pt 5.445325218719563 8.159838067927835 4.086035191543501
Pt 5.7713898854601045 5.54323157786838 3.1898855818304894
Pt 8.385611991426494 6.042986917230499 4.060470987379188
Pt 8.033143730942493 8.708238462325717 4.549571884687902
Pt 6.91940779559938 3.9785600002128154 5.167562545138484
Pt 4.477572975679714 3.665785916458218 4.400893584422854
Pt 3.4353395539015184 8.616544649992989 5.677960043024379
Pt 4.01435170824402 6.109036229996636 5.119284283831269
Pt 6.5373216322235175 6.504275602711395 6.077444612506219
Pt 5.832059479975081 9.16132609144104 6.456087191285414
Pt 9.372645630972388 4.49589861004418 5.897324579984858
Pt 4.9157533489426815 4.124146993831704 6.931918997885786
Pt 9.171088970196621 7.082788070955619 6.336951525171846
Pt 3.107169046369108 6.760821429895242 7.383361367008269
Pt 7.470002590857534 4.509074551101377 7.701029106227198
Pt 3.06364739961605 4.6182919896351935 8.664959998573666
Pt 6.418160588786767 9.965467423667057 8.822883158587238
Pt 10.04297035386027 8.098372195549507 8.625532575976429
Pt 8.30713137284115 9.381783277054414 7.054347009689968
Pt 5.405173960132909 7.348752799229927 8.348329833737692
Pt 9.806669438515529 5.4998994315051375 8.308112629582551
Pt 5.458498358106804 4.98278342314798 9.363080319714541
Pt 7.6404290975878295 7.802138835944355 9.417782055522602
Pt 7.846673875013528 5.419451601692053 10.144622887823227
