23
Energy = -108.14825724 eV
Pt 5.939832813347848 5.314904578736095 9.492417036130952
Pt 4.7510088285448075 6.927130487247288 7.829264773177892
Pt 5.5991932652238585 9.330118623718258 7.746282004182864
Pt 5.263874783983682 3.4986335928419963 5.6069849106174425
Pt 6.111174418097441 5.063681617096275 3.601679475086853
Pt 7.754308676827024 8.72640394744701 6.493467593812639
Pt 9.782863192404486 7.178169594411326 8.875483994470688
Pt 8.095408842784275 6.070319100276075 10.691228291282494
Pt 5.76807125762292 7.436523455510604 4.504060426000945
Pt 9.546047824141557 8.664676705483124 4.699899187090465
Pt 8.126058726186386 6.573534803937181 4.009951727173577
Pt 7.602943522966612 4.702369007729975 5.767443679518322
Pt 5.981961627036516 9.895736785810643 5.126423344588061
Pt 2.623723637611733 3.63677522527217 6.002022816787318
Pt 6.578652225670386 3.3816585349331403 7.778082552498147
Pt 3.9979625302236084 5.853934549763889 5.5395848263780785
Pt 8.397560928614629 5.114465918572222 8.219961567823338
Pt 7.522028669371646 9.08756531877577 3.1830102976967223
Pt 3.697280523734069 4.089775510358391 3.6159156972778956
Pt 7.232343942371555 7.538901583858667 8.702821654426959
Pt 4.139062439085927 4.412662027175064 7.918570820876977
Pt 9.357894585619075 6.66820386475474 6.352435973706892
Pt 3.826464340882805 8.417640350458926 5.92361652751821
