25
Energy = -117.8230831 eV
Pt 9.954541001010664 5.62339923820625 4.284662802248733
Pt 5.531825612258455 5.944841925645292 5.277940999406133
Pt 10.113472719535677 8.189747855089616 4.135243322716603
Pt 7.595012058106707 4.594057542806119 4.600585984625144
Pt 5.821959686249839 8.906644673070243 5.330453759433837
Pt 7.711696487529784 7.2285578033595685 4.653186474629918
Pt 9.416169140122536 4.4909223032359336 6.585622693114055
Pt 8.249984072411925 9.70458492967058 5.269115404998356
Pt 3.6165234494247356 7.538230667381089 5.924054444531211
Pt 3.621113436493819 10.095618909956888 5.997606510013056
Pt 10.25241047086437 6.967399198772536 6.481279688065236
Pt 10.775803051103427 9.553967020718868 6.3435942677773545
Pt 6.133682309600449 8.62666536063729 7.813449562886555
Pt 6.8323663838921584 4.632964085412406 7.075506591969666
Pt 4.761518650862738 6.065718767818047 7.724803289115398
Pt 10.815017063396201 8.127025449517527 8.771277882449835
Pt 2.5422387537775064 7.235604697145933 8.45392197967802
Pt 8.652263269150868 8.83467298162535 7.61668884762839
Pt 3.8447192242986583 9.385432679262388 8.432545517000015
Pt 4.239798754428 6.2702617210327105 10.237659769679038
Pt 8.394052083203384 3.673410521958253 8.904797333616576
Pt 6.3002077294006735 4.932308768950756 9.624203311296588
Pt 5.5122520208989965 8.437123213205984 10.284554379792233
Pt 9.727799342108494 5.837415013743912 8.858251997871285
Pt 7.608306061127134 7.128157503033385 9.343726016714465
