29
Energy = -137.2907803 eV
Pt 10.485614818159949 5.190550792173815 3.6223582021795573
Pt 10.132724260733598 4.857462149364621 6.092545983441541
Pt 9.631716255453675 7.0027206642984865 7.541733216615857
Pt 8.592153731487619 3.314065140791271 7.211370064285376
Pt 8.720630788810993 9.383611656180788 7.520692514918335
Pt 9.169188995874086 7.016032840340023 4.990306758640897
Pt 8.022219829635292 5.429113804195746 3.126619779394609
Pt 7.887696104552974 8.029225099725036 2.8559247577779248
Pt 8.30720437254875 9.458807627194876 5.045062296806514
Pt 7.422350058633866 3.1058243639624585 9.407651376396064
Pt 7.582808912424488 5.5045892204206766 8.339163115744702
Pt 7.522261102828577 11.049129358734733 8.869115712261332
Pt 7.090337908574868 7.516757272363641 6.705874229668137
Pt 7.006051150809219 10.433135451299625 3.059933465846629
Pt 5.601912790671126 9.533195038261848 8.767853206894939
Pt 5.636200009710579 6.997585558411249 9.006410605230585
Pt 7.130903363277067 4.881859772799169 5.76068971155801
Pt 5.705030646708879 4.155451446599665 3.747076491462368
Pt 5.2911481383534165 4.327156917460587 8.912517673416827
Pt 5.772719419505339 6.509319965831098 2.6498009090124697
Pt 5.812757647991843 8.639526703226753 4.4583521167248605
Pt 3.3514345112427715 8.251748510110925 8.931163231791109
Pt 4.5557152166321835 8.412239567165557 6.640839315254199
Pt 4.824991608010091 3.9603551750480204 6.2904407833936
Pt 3.3243577343019926 5.79734165826727 9.859688118400227
Pt 3.4587199623759686 6.069492208566253 7.290682086012499
Pt 4.776741066407963 6.3489373929762385 5.055876557915555
Pt 2.997140025119187 3.309739031246691 9.423444460860377
Pt 2.4086074539213476 3.7363634977398634 7.038151142852157
