22
Energy = -103.07830236 eV
Pt 8.564397517717499 3.1535116059160546 6.736317576064561
Pt 8.546509435791682 4.207729075955194 4.248338773310141
Pt 8.45481335909457 4.8041391792695745 8.720205530990167
Pt 6.452148658566194 4.145669411442693 5.721283561673876
Pt 7.2907424628130295 5.108891181372028 2.255192439844078
Pt 6.065794478254519 5.234686480094856 8.017358900304076
Pt 8.829264301812284 5.658197312637893 6.3393635453775365
Pt 4.137011691087358 5.167190188514587 6.216227779876765
Pt 8.347255562737969 6.426997755872164 10.65063308979842
Pt 7.197849089555383 6.842041023170827 4.121983645858507
Pt 5.224655121510974 5.19234190256798 3.8058716439900473
Pt 9.653383623546858 8.017325437068877 6.416712343533182
Pt 3.8247520733632325 6.487781922105116 8.633889517308088
Pt 8.021378868660966 7.602066355998756 8.320309287080887
Pt 1.892060699429833 6.16667173921337 6.969823396850157
Pt 5.984224922981734 7.009253439739322 9.883191034621904
Pt 7.216466291419326 8.708225562533705 5.95505900604325
Pt 4.864117895966422 7.4635883847520255 5.269352922453617
Pt 8.92467343310937 8.669971472520025 4.037873440213979
Pt 5.54345785447797 8.571444518725533 7.958541162387161
Pt 3.092092669472455 8.369699951027306 6.7871477395805115
Pt 4.876002046296483 9.99562815716791 5.938375720504899
