24
Energy = -113.87395481 eV
Pt 6.266312353415133 4.555781260485322 9.024146076236349
Pt 5.082725695710046 7.841722880923022 5.296795381918433
Pt 10.08290359046269 6.530375370851472 6.098993477407558
Pt 6.338388472375539 9.591010229052603 8.506485393946972
Pt 5.188801704137482 10.247547275221876 6.244056865145561
Pt 7.794395897374767 8.471103901999985 10.455627668880606
Pt 8.832489248945054 4.501038002102906 9.823157777529222
Pt 9.212578691742065 8.986244785111007 5.58433148126826
Pt 4.127342282709523 8.249185886590512 7.651199415423461
Pt 10.224364503602786 11.111357433491929 6.77097172107511
Pt 8.229848259793505 7.924881302083956 8.0025885255748
Pt 11.473825619868487 10.721079043514829 9.034983313898259
Pt 6.939737943673109 9.430701787171232 4.385588459922526
Pt 7.11643571691583 5.939276916537723 11.11826251288419
Pt 8.107615727968357 5.3250302143445065 7.379420851606341
Pt 10.27318757251456 6.389211698330545 8.705798450325855
Pt 11.00195281752939 8.629066286341713 7.4771800960600405
Pt 7.6655369262445365 10.895963685390626 6.50665406278679
Pt 7.534318063645864 7.009779953718899 5.464786173059917
Pt 10.486909733076146 8.676865380178914 10.153367377247264
Pt 5.707604241200462 7.163774107246655 9.365465308281264
Pt 9.642974546200382 6.588831531280879 11.272314017634438
Pt 5.52357523581217 6.005397598145427 7.027233381515886
Pt 8.792679624210022 10.42419039603007 8.91742380761347
