25
Energy = -119.38576399 eV
Pt 5.226494119103678 4.947614378606999 4.112384107183557
Pt 4.790541443593448 8.804430062280966 8.109560350415196
Pt 3.6000612476194758 7.856664489952442 5.937628715339287
Pt 7.644584456132845 3.240685265606414 7.123590653253154
Pt 6.813873639260734 6.229048879192949 6.969243993727816
Pt 8.97986835831942 8.050000809006445 6.7463542376718575
Pt 8.897443289451195 4.17125910069055 9.141508970771422
Pt 5.3692587703454215 8.811063598606651 4.031962098967025
Pt 4.301875162338064 6.144171905577178 7.856960425981729
Pt 5.195350831282264 4.029494106063661 6.57284461364761
Pt 6.201189847101201 6.854837503391841 2.5949951051328806
Pt 7.6988186590802234 5.588895469731634 4.428365892767469
Pt 8.673758081980488 6.765655261437317 8.969634144819016
Pt 4.364458876351712 10.307849358335078 5.952066778146138
Pt 3.063225815582357 5.370437453534439 5.6693797092924365
Pt 6.169674870172334 4.540016249186614 8.977007331146234
Pt 7.556610062752192 9.121029577346311 8.664027154853375
Pt 6.035050315725805 7.121414599074204 9.58307843094094
Pt 7.925814970524561 8.158363820021988 4.158012117709608
Pt 6.89346144942836 3.0925460818134143 4.701571066260886
Pt 6.568998340484851 8.935081989704564 6.276295256441836
Pt 7.587180374128533 5.525088461018586 10.97646056338598
Pt 9.222067260340827 5.198009093257028 6.6261219621687895
Pt 10.047335986177407 6.779709281476491 4.766109368827581
Pt 3.660824310149207 6.844453742512236 3.5426574885738726
