28
Energy = -134.43209202 eV
Pt 8.687456895475654 4.109396943490729 3.6558550093538287
Pt 6.7051619277098915 3.262293275900027 5.116355398155965
Pt 4.629314228651234 3.28608564735902 6.709853735418536
Pt 8.824876430528835 8.389176067560415 9.361962554432319
Pt 10.664245647994772 8.105798003297778 6.227215056212017
Pt 5.936245049537961 9.494297473280447 7.19917077805513
Pt 10.23032894305364 9.962653771702739 8.039330407113855
Pt 9.360853309127345 6.552029070956333 7.710681524361864
Pt 4.475958041775178 6.838129682620038 3.057355343458807
Pt 3.0576410735978405 5.280806924808597 7.812451619626555
Pt 7.311846142373934 7.222895030970987 4.9653439238604
Pt 4.0762716886006025 6.526036983253807 9.86909088399757
Pt 5.204765036571271 9.248039257656712 2.647459049543146
Pt 6.9337411110759035 2.9296359912518612 7.8054387054165515
Pt 7.523620231201409 5.170833068221245 6.51262515568218
Pt 4.445219812269245 7.429599210932419 7.419765529760489
Pt 6.914263621166887 9.756943722366614 4.513349812843661
Pt 8.29791835436409 8.981039987594372 6.582004029732054
Pt 5.658450481952965 5.177512328908932 8.353700850999218
Pt 6.558607833262437 5.405984333064876 3.2871164419872376
Pt 2.32487201426646 3.923774410429534 5.728972919991283
Pt 3.069341445600133 6.452375086811759 5.334866045316557
Pt 8.01411002905597 4.978464084546658 9.216778610611868
Pt 6.304675473704402 7.852427667104351 9.224624425256339
Pt 7.81466381720156 6.758492058570396 10.997078495616483
Pt 4.4561340931518085 4.537190501508459 4.374677791245753
Pt 9.5878623021204 6.00592378809649 5.119586678710075
Pt 4.872099145292478 8.30270980841777 5.097833403923701
