29
Energy = -138.6005105 eV
Pt 6.584975548788177 4.736979252611746 4.387168456448197
Pt 6.854146965532843 6.40567614945509 6.468333312200538
Pt 7.709311466765541 9.541123223041629 8.637020706694797
Pt 7.711983805013511 3.3067689088270082 6.280187231040818
Pt 6.240980015918528 1.9143980761334902 7.815056877604746
Pt 6.0435360947556696 5.17526597235435 10.842090658864702
Pt 9.566161080525386 7.8064388858460445 8.323964368807378
Pt 7.937407648356078 6.801431003581901 3.5324951318546005
Pt 8.733594317417607 9.428362808548053 4.17282243403238
Pt 4.378044596976993 7.086091328945939 11.411468088518697
Pt 7.318227132709413 3.9218014583915615 8.982404720376941
Pt 5.693524066361335 7.27928509221554 2.4422882489226136
Pt 9.005102624844572 5.358471308930335 7.4629342972152175
Pt 4.934941230536371 7.6942560912024245 5.419324195513539
Pt 9.203621530026815 4.924439481749659 4.861756597986811
Pt 5.444743753218845 4.383285104387641 7.308111294460378
Pt 6.0225946322977295 9.429473410770013 3.802397823885526
Pt 6.334685788533128 8.358197256000711 10.380255328842749
Pt 4.383552552500216 5.934084417239615 9.126745819171406
Pt 9.304618350595733 7.398519428242275 5.718981689604334
Pt 4.708555492998444 5.029230686272612 2.6603171668846923
Pt 7.837241395420573 6.429113402878636 9.540885482331285
Pt 9.443203523634818 9.861726221608963 6.615793230699649
Pt 6.9218501432939 9.260442684234125 6.192549868908616
Pt 1.5679352310934902 5.2338153329406785 5.249122585072176
Pt 2.8784111989403693 5.139846053910134 7.331840024008693
Pt 7.655093270049186 8.85816989082186 1.8886846372736905
Pt 5.464640656006549 7.967810963626756 8.006627434785118
Pt 4.053111873675238 5.271292092018625 5.074168274777904
