20
Energy = -92.25035541 eV
Pt 4.3288477013087805 5.87271100631648 6.224904105034844
Pt 9.643396556569103 9.682037495097584 6.6940226109695935
Pt 6.441833254181624 5.865493762760138 7.520042303145644
Pt 7.844389747415834 4.254975912019971 6.127604916671837
Pt 5.724079666813285 7.174790801492829 4.4866594418100085
Pt 5.227103411526912 9.376637353142097 5.6757551016320535
Pt 8.631254588812999 5.312188889947996 8.668519754216442
Pt 10.12215832269084 5.890725152000212 6.515840969314066
Pt 7.708177399996969 9.109450648686035 4.8669912239052655
Pt 9.66396985937295 7.67590671017873 8.202620225916387
Pt 5.042522199392889 7.711093435004131 10.345481550837997
Pt 5.829169179791046 4.572962768846725 4.534433787313114
Pt 7.1065332245984525 9.338758507003526 7.513463624260993
Pt 7.956940409265419 6.707659374628674 5.555122169799514
Pt 7.5182348161092465 7.8840980776899325 9.671425613853694
Pt 4.058584452266344 5.678813545228722 8.846060839467226
Pt 6.4750089769181525 5.556118924003253 10.181261007402064
Pt 4.8857920306097204 8.01410055473571 7.82508862586937
Pt 9.003385594669 9.956410587451074 9.211028285408952
Pt 10.123982841564512 8.026580027460264 4.779962860281912
