25
Energy = -118.72926345 eV
Pt 6.718356055755195 8.738961389210075 5.164738757419645
Pt 6.1408929686648595 6.670095255637802 3.6652169446546643
Pt 7.288754550324339 4.460834434392422 4.303586358432191
Pt 9.247872612274971 8.598800946916176 6.632096016909915
Pt 8.44217722591646 6.710521176331143 5.010045548622901
Pt 8.428132606049873 2.2798060868771923 4.990437185904806
Pt 5.995139268113547 11.306073016513098 5.219157175746671
Pt 9.92803248702986 4.464750660954357 4.999702615044825
Pt 4.163463784797004 7.59993559765279 5.047679973452089
Pt 4.953712491865756 5.077235529439677 5.395492298163868
Pt 6.329212734684156 3.065510054059678 6.478528368077644
Pt 7.712105126592747 10.577095840282858 6.888814573342116
Pt 2.204872539659951 8.45563454320235 6.447937876847285
Pt 4.588121691975449 4.193104372783758 7.9383086744507905
Pt 4.237382618444191 9.902795365236118 6.2912245493049355
Pt 3.4919516111170825 6.462482676498278 7.296258282925288
Pt 8.767354157526825 3.686685573352981 7.104699995082102
Pt 6.51266780359956 6.605744422534711 6.780923680479037
Pt 6.996857892028796 4.888211671946749 8.631974979724301
Pt 10.613704682658687 6.476994251402991 6.516194387191178
Pt 5.986779869199291 9.162645706798852 8.019883210560309
Pt 9.592371429780918 5.503773414287381 8.631662152675352
Pt 7.949856005287546 7.544383015933775 8.63756628924544
Pt 3.324834739771201 5.581831846917606 9.678574172237298
Pt 5.390968082739981 6.9916681866948185 9.234870969363287
