28
Energy = -134.52105223 eV
Pt 7.87782130049769 4.776733437004204 6.682502429953264
Pt 9.707922442397216 9.254147966245926 5.259387246686226
Pt 8.09757861039294 11.325678008147209 8.886108262947882
Pt 10.381441659160414 5.073173623072613 7.733924691795661
Pt 7.006292523674993 8.347874033341949 12.15901745665365
Pt 5.870188011299729 6.423979659678025 6.117114055936807
Pt 9.870847377798201 9.635113316810868 7.894606137915358
Pt 9.847488732454464 5.770342104737344 5.232852821428877
Pt 6.638658156131922 10.680905778324815 10.84370481767889
Pt 5.5572782445326405 10.189552550913778 8.423738136770869
Pt 5.748592832515509 4.99549202741437 8.324742944663338
Pt 7.574914394875989 9.993794354434598 6.660809598728471
Pt 6.154505522112424 6.49682312786509 10.47821108769986
Pt 11.143084177925541 7.521768878713064 6.82189334333901
Pt 4.701144256890033 8.847009024461872 10.658541363251025
Pt 9.14478727670308 7.434391532394429 3.362413390216096
Pt 10.163600833802102 7.297909276678542 9.194432898389506
Pt 8.429401643731357 7.292779296131064 6.873715108124627
Pt 9.045031608782105 9.325721916461731 10.464790499762627
Pt 7.245384172129308 8.30075800953809 8.965617176870909
Pt 8.832976170039586 6.768758241310059 11.392363173851832
Pt 11.558571677920439 7.637318090201507 4.24879598398267
Pt 7.132454344450707 8.28100567128477 4.703534670617238
Pt 8.200535412325772 5.477844069081198 9.19215379823091
Pt 4.875855343421217 7.525644548092426 8.33323841308066
Pt 5.2563257668883745 10.029453825255526 12.89649077370181
Pt 5.119104426512136 9.01750526376274 6.126735940295202
Pt 7.389514041428649 5.626217749000998 4.07478220157766
