25
Energy = -117.91284293 eV
Pt 4.494392244144162 7.608233653015338 2.6049297300607055
Pt 6.730665772475212 6.387791176865468 2.798169457736722
Pt 6.329584674930376 9.02798673929036 3.6693572362973237
Pt 8.672219637024227 7.758370453069747 4.092450922223165
Pt 9.026253599825516 5.377894214163757 3.2513404369639622
Pt 4.538167461981195 5.63845247299352 4.321711088593295
Pt 8.291951551933076 10.170874176726848 4.824025229490523
Pt 4.162676192320719 8.131408965979192 5.144917213941234
Pt 7.000318612643142 4.7321354890107825 4.84506773108135
Pt 6.030150139061518 6.588177914901875 6.415719631155835
Pt 9.29540791729156 5.880069784969632 5.855001253086361
Pt 6.321243449331926 9.189814244898834 6.313793443425356
Pt 8.922679776027689 8.356384348520963 6.668105332242633
Pt 7.5442187391477455 4.563863596205775 7.380062682618087
Pt 4.982529191511367 4.276631098299121 6.495353205640633
Pt 3.194449572642702 4.197350637005632 8.337140150089246
Pt 7.017986847564932 7.9917896823880605 8.510788530858441
Pt 4.411983324992888 8.032606688487245 7.734223162146923
Pt 9.852524116237104 5.279365495567763 8.269630564257152
Pt 2.827888619042441 6.552890802419593 9.110202875912014
Pt 9.510656169343939 7.625004878216679 9.041657109113991
Pt 7.970406764264197 4.406345448233665 9.963296564143048
Pt 5.559990625138249 4.290025705039417 9.153103157716066
Pt 5.189622718635679 6.6580095921295825 9.945260810117711
Pt 7.611759203090169 6.768249662203505 10.744419401690491
