20
Energy = -92.22654998 eV
Pt 4.580164428928434 9.227359871754091 5.599321092938723
Pt 8.859568911731659 5.427002427430205 10.242789846398708
Pt 4.3977152215644235 5.679445165199808 6.69889689325596
Pt 6.7644059360819195 6.416004229630528 9.178855493136442
Pt 6.3089776841209755 4.2941385152303475 7.803913934421313
Pt 6.352949440792173 4.826233407291719 5.235075922077527
Pt 6.066578702251139 7.675866544093381 7.092797401966924
Pt 3.6396157123496624 8.026832749089234 7.894307969149282
Pt 8.754605666984288 4.638180520638147 6.81641199123611
Pt 8.420086863349296 3.3109203780755827 8.933276800286485
Pt 2.7276495497931617 7.3860528317889615 5.5060125980991526
Pt 9.104315300542451 6.963599952823987 8.217907030153338
Pt 6.879110535105072 10.202152560952822 5.137865683322676
Pt 7.230280483710857 8.115881297706908 3.7565482679992224
Pt 8.183897977432176 9.108740317407246 7.074020951502737
Pt 4.293830320255838 5.914397191663623 9.278026153991233
Pt 5.017027430713057 6.9995728205632695 4.396420146155857
Pt 6.808541243082538 5.786857376214187 2.828027750151191
Pt 8.323727465255848 6.975458370579801 5.701573702009106
Pt 8.759872333355526 4.843136603540704 4.274459733208125
