29
Energy = -140.56378523 eV
Pt 11.263136435465501 6.736702058894525 9.325090511224403
Pt 9.441888540691114 4.983548560832103 8.966552279345247
Pt 10.287167483556145 7.274210346910905 7.021800811442496
Pt 10.107785451750237 4.657177996282272 6.512615944374162
Pt 8.814106997581947 7.528414665271479 9.428497099957543
Pt 7.6833526355279655 3.59615531731386 7.570179022739047
Pt 7.86641713507179 8.512527126890667 7.141466802648842
Pt 9.084163344571483 7.978650407130608 4.852748445002912
Pt 8.29171113470385 3.6890024051402075 4.906293292940133
Pt 6.885599106169467 5.691318809579729 8.906563295277442
Pt 7.883060163078472 5.986798926774291 6.331017139192244
Pt 6.068683359893644 2.535782376994129 5.747947491815317
Pt 7.956511987290854 5.871271993120883 3.6141378657575896
Pt 6.395281532881187 8.272986927155468 9.355255314462338
Pt 7.783719975932434 8.211024511243322 2.5551142904123774
Pt 5.115817883047347 4.338744239149291 7.5017769448998886
Pt 3.8505100116265387 9.046895579865414 9.302816984562705
Pt 5.252690288823943 8.985887680832016 7.062347374308727
Pt 6.534071865438308 8.691248644710182 4.862520520478913
Pt 4.4431024466779485 6.577713028345247 8.648097827394711
Pt 5.416548636125107 6.431030649863067 5.945373595252562
Pt 5.5268574514462125 6.97317405252897 3.0588441095747734
Pt 5.743318605592942 4.531563490620391 4.0895544383373865
Pt 3.6878224553107044 3.487520100228307 5.343688082957041
Pt 2.6985698774362206 8.175756280428022 7.198966236149516
Pt 3.939875320237041 8.340926070478003 4.748806586465391
Pt 2.9211790047992063 5.596015877561888 6.6703768085421125
Pt 3.376129496323082 5.790172715654398 3.9802509402679322
Pt 1.5390788627401697 7.292206742921324 5.119300156966432
