27
Energy = -129.9875552 eV
Pt 8.716416093922358 4.410608389475947 7.281301192896296
Pt 7.773369220295632 6.210086436302874 8.945331268105267
Pt 9.081363692862132 3.0578923210348834 4.983442422190478
Pt 6.8467272043796275 5.718096748181884 5.87119207987905
Pt 6.678888807206303 3.082103523386639 6.196918245602912
Pt 6.570152649475646 3.8580324128363546 8.737118425241958
Pt 6.6362904567484176 8.085424119345385 10.314494180397185
Pt 4.647670650309095 4.591625239232611 7.120744939761545
Pt 9.451226301672435 5.710163537519858 5.020911548711666
Pt 9.697731367975365 6.903230778182472 7.270522826787369
Pt 9.294122134150436 4.572578716251604 2.7185359975324
Pt 6.96767419061679 4.024446642499196 3.6764165264243056
Pt 5.112081528834794 5.901658947743603 9.408707031913911
Pt 4.595546983774642 3.640971104214495 4.615136512924147
Pt 8.022169645501341 8.74951866172857 7.974086226294517
Pt 8.185424667821703 8.042723132984348 5.394967863315053
Pt 5.767382541270716 7.511770828153464 7.471830676871956
Pt 7.716277269553499 6.6294865246146015 3.0955296355776314
Pt 5.188456024182991 6.093979761520525 3.804823911350854
Pt 4.102392231201008 8.341575245865549 9.614937712418444
Pt 3.200917350984114 6.905752377936233 7.5907768479081055
Pt 5.893813979024808 10.077257932662018 8.71373664479825
Pt 3.0868700313289485 5.653368319739439 5.331785540248684
Pt 6.140491730418497 9.693867612767344 6.09243533617835
Pt 4.13906732808957 8.066281604671214 5.325047575506172
Pt 6.173297237294523 8.537889096430877 3.7457052162014697
Pt 3.642271346220898 9.636603592750264 7.344774844900339
