25
Energy = -118.86671681 eV
Pt 8.215588057505201 6.15249217653503 4.369430100603282
Pt 6.066374298346175 6.963453019432943 2.4231513931054494
Pt 10.459693581457408 6.566554118223719 5.737634966239431
Pt 8.590309704054887 8.379663197422804 5.752812180640195
Pt 6.286793863981037 8.128115214335942 4.721123206330899
Pt 5.958078109063233 4.93796526327494 3.9743973481404034
Pt 4.1592126909358615 6.733866484913718 4.1682408585100985
Pt 8.594303191264512 5.050174425002739 6.648205039220482
Pt 8.146647650763905 3.7815387757208887 3.3290921495461143
Pt 6.521616181210919 9.529252975162619 6.82453012055879
Pt 9.374208266092078 9.776954436626239 7.744415051908537
Pt 9.156000885713446 7.139607524326759 8.028607783427049
Pt 8.994732963339985 4.7601215307401095 9.196111497349298
Pt 3.366031508408846 4.175952647116197 4.111533682032172
Pt 7.3237246058353715 3.0399442717939857 5.603295962105111
Pt 7.448961503893724 8.791417438839238 9.129678215863985
Pt 5.546347748928318 10.496360013120215 8.996476140891758
Pt 4.473504879534266 7.890287622091189 6.514685871426805
Pt 4.929289324500736 3.8090099479203885 6.154624935117978
Pt 6.716136815491636 3.959534127849626 7.9956768781465595
Pt 2.951518529059039 5.621222359278765 6.179122285446559
Pt 4.980208349655988 7.970208325921384 9.063245820155808
Pt 4.698387056163498 5.519598700062609 8.224817017712216
Pt 6.917021465881372 6.244890362801637 9.369901026215736
Pt 2.6331983027952997 7.089704575362911 8.247080003182024
