29
Energy = -137.00907375 eV
Pt 12.1452281418312 6.8754527967597605 7.412724487944083
Pt 12.21246690591774 5.671358518396664 5.282732846179006
Pt 9.33566570839866 4.764658391927785 9.09810055922937
Pt 9.73740421901718 6.898636743936592 7.747665599571629
Pt 8.200140888870402 2.916511009167489 10.309802168351125
Pt 6.627378234896695 10.629490139093285 8.245537609841461
Pt 9.787020218918537 5.5059920372093485 5.567228588858329
Pt 7.199058428078201 6.184616430071447 8.76494560365681
Pt 7.594549208918315 8.384392545903165 7.384187729479878
Pt 6.2360194657457875 3.7941303306223526 9.150345305329164
Pt 7.941942021983071 4.376101236641549 6.952758785717603
Pt 6.501355505435381 10.032684874287133 5.732101508405866
Pt 9.188475591744808 4.187388173953204 3.5006506302009894
Pt 6.969510907545573 8.445791662034106 3.7575242372125968
Pt 5.4043302851943125 6.95614873184624 7.066552879198218
Pt 7.443246853170151 6.6058391354386226 5.447283435934842
Pt 3.3730472678713093 7.192008667411561 8.790194098207508
Pt 4.515000556642245 9.553536719765509 7.330906698472335
Pt 3.9166498855727725 4.741552794638801 8.86014680601583
Pt 2.3227348354963904 9.514863479041288 8.623483647856359
Pt 5.3377229609907495 4.175214823792879 6.719690841113441
Pt 6.820905019628828 4.1224197558068445 4.550285627163897
Pt 4.5761951719058835 8.481515861658412 4.8460109156116316
Pt 7.52770496080438 6.007402100426372 2.8182234781479365
Pt 3.1139607737592407 5.716236953660359 6.561090352552078
Pt 2.4080879597691296 8.312904833926227 6.369155764329807
Pt 5.066946303515331 6.758722162542429 2.95888255829688
Pt 4.361852128128389 4.853778461573412 4.430248909544127
Pt 2.642869259015935 6.848120297234078 4.229007996344597
