23
Energy = -107.28014707 eV
Pt 7.038685606294302 3.700568636420098 5.239878595903239
Pt 4.5898041323447405 3.0451902603741026 5.837400209800332
Pt 6.4645234844803285 2.9070381259076354 7.679458585741711
Pt 4.9903429526661105 4.9737942520687835 3.932828556373608
Pt 7.584219001640058 5.1162799430059644 3.1342125669273027
Pt 9.383013720773954 4.901225777647082 5.042762571023584
Pt 5.503535166683814 5.329756171464442 7.053969647225691
Pt 8.321047907235227 4.770200525194851 7.444964578819995
Pt 3.0529925646145717 5.121532897648771 5.7594018133210865
Pt 3.4071804270207027 4.956544953815954 8.468899361027152
Pt 6.09310932972125 7.213101573298848 2.969289750887335
Pt 7.327749643515635 6.586563570363738 5.424275107821164
Pt 8.391710238042133 8.356315713127003 3.9242012659287036
Pt 4.3616404512629545 7.2383926860410295 4.9355655486948775
Pt 6.691951077269304 4.82902157297627 9.464419719611232
Pt 9.709804090503157 6.8633720665480595 6.766630219845761
Pt 3.32668874732114 7.272761007218662 7.385773301045814
Pt 6.149394471306339 9.202731913646799 4.820207783817882
Pt 7.647232354741016 7.200157426315681 8.528610616583192
Pt 5.134478231084101 6.880147025038779 9.379506741853158
Pt 8.189400063168542 8.949604923991387 6.588774359505586
Pt 3.823533466744033 9.47804106554664 6.029040173233733
Pt 5.734884094264429 8.390669435862675 7.3220411224126325
