20
Energy = -92.16089415 eV
Pt 3.134579142701038 4.07948013094794 6.113631512126472
Pt 4.903757892683921 7.4397506769916975 7.7272321625724185
Pt 8.076211856153588 5.753795511815241 10.309648357064406
Pt 6.343822755605826 10.68989711323598 4.84369774434347
Pt 6.503070829331699 9.589566289122578 7.214290620154025
Pt 9.408880330381539 6.671429532608613 4.2342302202309865
Pt 4.529461132930009 4.882717793563322 7.972923586543842
Pt 5.464022587068994 6.146453402043867 9.974279702182766
Pt 8.917441624163027 9.680685461073788 8.307405954724672
Pt 9.559535730619787 7.154107794227108 8.578646269642128
Pt 9.51117075388639 8.26985339574739 6.224750768473977
Pt 7.32495571973057 7.208849545841924 6.863629541776781
Pt 8.407621239807447 5.054885727746954 6.113222898646039
Pt 4.429635791063019 6.058382604245546 5.384562874567683
Pt 7.014232217103397 4.612020042117815 8.231634600399966
Pt 7.848066274008407 8.776678236972097 4.251910031460898
Pt 7.096882711096167 8.064374188998698 9.330968955061838
Pt 9.622040573078555 4.625504007157678 8.366335262554234
Pt 5.0251791865369135 8.52959840661294 5.317139166809505
Pt 6.773647658385901 6.3899692009305396 4.534522090777492
