26
Energy = -123.00525459 eV
Pt 8.544624497713166 7.1397505331890665 5.70630254474105
Pt 9.918751408465276 4.929739686713082 6.041174285946587
Pt 8.309101603969216 5.677999822162824 8.068136740375834
Pt 5.288475741773812 7.721260843806679 6.755189919349666
Pt 9.090601237862671 5.622801574290301 3.602736876089709
Pt 7.526780741576791 8.266880170441276 7.902053951447573
Pt 6.985024384944969 7.044872834181068 3.471105897794166
Pt 6.824355250924905 9.084132045941809 5.293928890205927
Pt 6.468096263606405 5.554297521548435 6.182591042809614
Pt 5.890464482882239 10.367841023342445 7.5528479852472525
Pt 7.9421113085623825 3.355772353876079 6.692356163034202
Pt 9.092800412969707 3.0536591832792084 4.342147848875689
Pt 5.235963873448915 8.751784947505872 9.565458720078825
Pt 6.796709213123282 1.9121351693761348 4.699794091067595
Pt 4.349752885560668 10.25342394978886 5.4100140910272945
Pt 3.4132235041427426 9.326800595427482 7.743785129174097
Pt 6.1111180129834795 6.3697940646849185 9.30808682140728
Pt 6.772052679591116 4.400707508289281 3.813253863707476
Pt 4.87019210126563 8.441556027713132 3.580943621478624
Pt 5.572579697323208 2.2098369353429748 7.00470511968582
Pt 3.65373345950918 6.674096641165928 8.353380123542967
Pt 6.427916907801018 3.907469325190796 8.78514885707046
Pt 4.298013932101444 4.517724520171932 7.188260274939454
Pt 3.1183980448192026 7.817942176278497 5.458374638432493
Pt 4.619442960854646 5.937468522356213 4.348187121233622
Pt 4.574297771184371 3.3683341858644344 4.834700652857999
