23
Energy = -108.33213006 eV
Pt 4.3933441560746465 7.633793364006198 2.251299817852066
Pt 8.655052645982014 8.973689716455368 4.34933888266932
Pt 4.0750672574095566 9.74361511924786 3.863679321913039
Pt 3.847638114799821 7.245776644997873 4.721954281996006
Pt 6.204020842270199 8.283686036831995 4.066910984870185
Pt 7.008774371855352 8.798561412973374 6.418592376966752
Pt 4.424614210829431 9.273792291672212 6.401712018939893
Pt 5.586875073320798 5.575540955232449 3.3697428497571904
Pt 7.906788362697409 6.390371157921011 4.337752358055285
Pt 5.368803367880564 2.948994336021702 7.147561707656445
Pt 9.145886541245874 7.401834573662816 6.389519355910484
Pt 8.717178671494146 4.198536418266919 10.296863841181077
Pt 4.4681703740825105 4.974797329015098 5.687760507570671
Pt 6.916713109480876 4.3098545337626835 5.327179917928469
Pt 9.200774057759252 5.908903615113357 8.388357191359994
Pt 5.60093175664485 7.883015382988599 8.35978991058458
Pt 8.14823635651854 8.335032992529126 8.770611180223627
Pt 9.426687833253785 4.7639390644191755 5.913811933229879
Pt 3.4428003484436256 6.996069684875718 7.246483330986672
Pt 5.217622743498718 5.33526779731799 8.114459426199561
Pt 7.046626593946239 6.243912971452322 9.874942221291032
Pt 7.762689619219299 3.9053978672039418 7.736553502024491
Pt 6.243494052620768 3.6844071953591153 9.773913542161694
