21
Energy = -97.89514575 eV
Pt 8.431480963209454 7.576538396866172 4.364900201581654
Pt 8.498749583789369 5.496818597758801 2.923798895453701
Pt 5.174357426860963 10.143697329092062 5.706422299182751
Pt 7.445565968942895 9.11442644934496 6.253308079906911
Pt 6.218354168157596 5.378399950013394 4.0211545117327265
Pt 9.337120214171302 7.429486482792342 6.934748238446788
Pt 5.878261061161284 7.846059618220722 4.672288240351398
Pt 3.7847446052677625 6.4391091237786915 3.765754259297441
Pt 8.50673748125938 5.314698105734832 5.549340955595014
Pt 8.726524087677445 9.324635850798497 8.504846211187152
Pt 4.385689065228366 6.701675675503718 8.169003548997965
Pt 3.6724689364180603 7.83807013902065 5.9357112942789945
Pt 4.279994885616808 9.327892164857444 7.981691277866768
Pt 6.575218515994383 7.95753966276429 8.394833487899737
Pt 8.625541788388 3.36198592467175 7.18002548308906
Pt 7.7298334335985235 5.689543442030305 7.960889955735675
Pt 4.4096556847221455 5.203965999234586 5.915913403075845
Pt 6.379869092018398 3.515541254886007 5.777924350787675
Pt 5.982909343199509 6.0595827143773295 10.085229370394414
Pt 5.510991120757332 4.361471773978305 8.162727161820706
Pt 6.557816383685203 2.0307451544002206 7.851372583442097
