27
Energy = -130.34917052 eV
Pt 2.756036987594394 6.527529974774471 8.627708452617386
Pt 5.430761181578652 6.3854050653424395 8.968299601036321
Pt 8.023790541658261 6.297452753037704 8.999167621989045
Pt 10.655471118131867 6.277430542271774 8.5766788407759
Pt 3.875315250127985 6.788819503475227 6.25353325629453
Pt 6.558917642736157 6.668566481675068 6.55431003967522
Pt 9.36853400787233 6.608001531426893 6.271106071267156
Pt 5.158730879582718 7.037126569982341 3.9959248253795474
Pt 7.890007973380116 6.926931972063584 4.188023234660668
Pt 4.154586925891274 8.668256168286293 8.194657791833308
Pt 4.009088707062825 4.471869715157269 7.651376224886059
Pt 6.803004672115556 8.602497940518 8.58542598316353
Pt 6.656218280885813 4.258514847451003 8.013998654547441
Pt 9.413518633952677 8.510402336701276 8.136717375938874
Pt 9.274109085941456 4.304085883315052 7.6028014713087995
Pt 5.16946742239475 9.024269358197158 5.767298471750676
Pt 5.027622752816005 4.669224485920756 5.206344416453933
Pt 8.362378031414618 8.978694671251809 5.729568447465241
Pt 8.205610476121093 4.524467567738689 5.1600265808683865
Pt 6.700329211668302 9.221667041985198 3.680506976632384
Pt 6.565160441045628 4.91459128494167 3.1249636230270914
Pt 5.514732515030752 10.779526290577627 7.790336572365208
Pt 5.236260140187988 2.4450698965688025 6.722400425968585
Pt 8.185722947077966 10.715163939757964 7.7683629398149465
Pt 7.923499539320153 2.347310770614107 6.69609432870187
Pt 6.817021975671671 11.090994458421642 5.533297890241264
Pt 6.541839188567416 2.6373423331778625 4.44103571706736
