26
Energy = -123.29603752 eV
Pt 8.864086398177081 10.57650542195377 5.572409262752615
Pt 5.826502278008108 4.104239858113272 5.733185051812739
Pt 6.565158667499904 6.749358237499206 11.411552000570314
Pt 9.120659232590262 8.883845974999998 3.5206635131245685
Pt 5.572961995260565 6.077040501439749 3.959289470543436
Pt 8.408086668495283 4.789441958586613 5.306903781526302
Pt 5.769259808436978 8.871562293185573 7.688589759806795
Pt 8.817266756164228 6.061251749243811 7.567836584189787
Pt 6.097129366770069 10.322894043658332 5.506693892346141
Pt 4.530798842385009 8.11244547252129 5.319043175010219
Pt 3.349480094244894 7.319143601500593 7.549216619138386
Pt 9.81021516426087 6.990933580807342 5.289610588935465
Pt 6.451769156835777 8.533870436467849 3.528882848171903
Pt 4.357991909736383 4.826956202029785 7.894038529539857
Pt 6.245879745853847 6.4618638755525994 6.783822182788414
Pt 8.117666339044172 6.43935630109745 3.218841004987559
Pt 7.0077154488322195 4.061065798561316 3.2665916666708443
Pt 9.353449711874243 8.68761791129755 7.550095648290121
Pt 7.676496839618463 8.324851080192834 5.732119100495219
Pt 7.1669699649544265 5.17831083454819 9.440508716802805
Pt 4.740455063431343 4.823893738606967 10.603886392330457
Pt 7.676729158698227 7.829340969744209 9.31493926917883
Pt 5.034354858918302 7.110662317901796 9.417634690388033
Pt 3.587838473150908 5.6522486693482445 5.552202263374581
Pt 7.7216252240815075 3.6180998327643787 7.482820558201797
Pt 5.752067555881665 2.995832464228737 9.022753475434351
