27
Energy = -130.00426313 eV
Pt 7.699467328255466 6.896709582287496 2.949068086301966
Pt 8.007604638025793 4.260650501356553 3.614352651016202
Pt 5.584716624229517 5.216405397633108 3.235650941764181
Pt 8.817143382435518 6.21837583485418 5.1328188591454325
Pt 3.5033505262049403 6.830052398442514 3.6157442315769357
Pt 5.716527887948586 8.126898535080484 3.951668339353175
Pt 5.965274845546375 3.411926190762921 5.218377575208285
Pt 6.1691993401172995 6.124129121828355 5.604758459181763
Pt 8.347545379390555 3.8547051478112 6.171315433953108
Pt 8.078543617870642 8.858272094303416 4.908071115671996
Pt 3.5667821451566644 4.442230287897884 4.7622901936639295
Pt 3.5978261945614465 6.656764773716694 6.26343551721616
Pt 10.182037344420738 5.47359928298307 7.255615707699958
Pt 3.5303047484950767 9.051290226063022 5.074765923668334
Pt 4.624361660210435 4.442698967208142 7.2190603881781925
Pt 6.543677730571141 2.6472985314254744 7.6890115365249105
Pt 9.102240158155736 7.794872724066088 7.180053266186907
Pt 5.8509141738287225 9.338853003992117 6.28833460515884
Pt 8.019598548524948 10.061254908584093 7.409695845391434
Pt 8.729162831636522 3.773254635747667 8.688525518033662
Pt 6.659864870052092 7.278244680685609 7.781627202486227
Pt 4.428752739773706 6.610528627971867 8.753507009871639
Pt 3.7364734364938994 8.935573685893727 7.718974386589177
Pt 6.439317042027293 4.938787490278626 9.055241805440515
Pt 8.811726100292285 6.315979805857773 9.356678585930311
Pt 6.613728248659231 7.257620876269402 10.418012143066232
Pt 5.978106691151272 9.456665441689198 9.072511126502095
