25
Energy = -118.29248829 eV
Pt 7.964718621151311 5.511273103601045 2.421703400086461
Pt 5.629245931746157 6.718645853220709 2.4416664048761527
Pt 6.271040391484285 5.250927990045628 4.56405952057772
Pt 3.8103486096263444 5.933507864645513 4.14920763389999
Pt 7.844737456442839 7.732304965536678 3.7154549715003347
Pt 6.1276704738436765 9.387978330243776 2.7302853530444122
Pt 8.864945363434773 5.640246033729956 4.882407512681401
Pt 5.053435761576354 8.15213332307853 4.720594133967148
Pt 5.256496282929483 4.637376519308742 6.920398415128183
Pt 8.811986556994226 7.967114493375635 6.178887623964719
Pt 3.995602081022062 6.774558964886171 6.575800303479082
Pt 7.048267802406601 9.764179368956636 5.103118270154857
Pt 5.520477936067064 8.735451577492672 7.275058350767133
Pt 7.674501613732742 3.747151950722055 6.149405053127216
Pt 7.856397755181297 10.02867343792905 7.5056905435916335
Pt 6.137248486033741 2.3073055389260433 7.689718320966853
Pt 5.865062664867795 10.55921414067066 9.07542696389142
Pt 9.018114195972684 5.701360441798853 7.431003233882294
Pt 5.2613060199899655 6.537004510751329 8.779205279671462
Pt 7.9828375474030135 3.7312106801187146 8.81240320937328
Pt 7.829437724060294 7.698123515493158 8.58758788416848
Pt 5.602724756520348 4.05886946659897 9.579392316551228
Pt 6.125282460396053 8.410001764036402 10.339893147034838
Pt 8.770305668692636 5.798686346183883 10.05609901068463
Pt 6.466118749162166 6.005010729386553 11.103844053666098
