21
Energy = -97.52124963 eV
Pt 9.964056667442332 5.132377744021372 5.307722426126305
Pt 7.884374918837466 8.269261447510527 7.248348116455316
Pt 8.745555825538496 7.35572228494977 5.033676370462536
Pt 8.335332912170466 5.360818055048225 7.2774115008446545
Pt 7.98524049377815 7.005663495848101 9.515199679292055
Pt 8.98563556493522 4.705544520705654 9.71712301136929
Pt 6.8287890086313645 9.297543120436314 9.372261520009543
Pt 6.813845023423854 9.146134090812001 5.0279439076184245
Pt 7.774936703415788 3.8181390745868526 5.269143967116292
Pt 6.6966704488219735 7.421358195983827 3.1875420706068764
Pt 6.5640651577322915 6.045800191022656 5.354702513387472
Pt 6.512416949428773 4.9031970786301855 8.994357997965137
Pt 5.378390551820136 7.318996537013316 8.468232388574076
Pt 5.3728833966118374 3.0833327875367784 5.55034168255347
Pt 5.448577889534833 9.656983440960932 7.2166835498963255
Pt 4.446907399062257 7.479225098660402 5.996464281266808
Pt 5.368164681374109 2.8161074763746554 8.071087719511771
Pt 4.760066247604105 5.178648639197471 7.158995322705837
Pt 4.1592556083013745 7.5692139065442445 3.4321780718023915
Pt 4.2856247849892 5.192463160092245 4.504997391695756
Pt 4.322773438448673 9.87703332596716 4.929150182642345
