26
Energy = -124.15368854 eV
Pt 10.917732037825985 6.289629745152188 7.93644416467762
Pt 9.72845544171527 6.354223552334234 5.61086925215804
Pt 8.96232977850094 6.527697167832372 9.80806612626011
Pt 7.9417969311320995 8.246831618782137 5.065979188379328
Pt 8.999476323137436 8.013183290265907 7.605986967285713
Pt 8.667563904161131 5.012542807462841 7.692880913659853
Pt 8.4640662976619 6.281749982764458 3.3944169592370104
Pt 7.773185392548165 4.4977118020976095 5.302354826039606
Pt 6.7388459987016285 10.531479608563467 4.840799634932624
Pt 7.040813129208058 9.579759907636431 7.22527837947847
Pt 6.691329625224615 4.404580132419242 2.868998427227815
Pt 6.527010481128293 6.510163872550242 6.558961435657461
Pt 6.842277631222928 5.087453422886614 9.723723906730202
Pt 6.695716285319203 7.660105328502833 9.009295520450479
Pt 5.864774777602569 6.698615842231058 3.9267077032886206
Pt 5.21419221605928 3.913315176787318 5.048735274190698
Pt 6.3571269547889155 3.8779037037424846 7.395194160213604
Pt 4.734614979614103 3.615523762840472 9.490621882091776
Pt 4.791283062921143 10.850040346157781 6.599951678924986
Pt 4.654934265111601 8.411660488710888 7.546348341039666
Pt 4.528797376580941 6.092671537290333 8.629053685583985
Pt 4.872708933731396 8.762811919963092 4.9722468892515
Pt 3.859236117527777 6.506074098211111 5.93851737760566
Pt 2.564268431444754 4.503952677553781 4.935474620663894
Pt 3.6692947419401043 4.02911395181797 7.17208127178955
Pt 4.156370477327837 5.068206478142773 2.9456819202966953
