23
Energy = -108.54120742 eV
Pt 8.152119562263481 9.66936302805591 7.539869970248932
Pt 8.038115710191189 9.542137745716465 4.846401369187396
Pt 5.99483502681486 8.867272394022315 6.378564195486071
Pt 6.264244846327139 8.176717112116899 8.930846415958696
Pt 8.656113443385117 7.405317107072568 8.62975572462944
Pt 9.427056562591497 7.695519288066451 6.279058664709786
Pt 3.7899964232005483 8.12719101361021 5.182060681753219
Pt 5.884347489131811 8.619793095536256 3.71447970605241
Pt 4.218159883886616 7.4398185338096345 7.670111080224386
Pt 7.548685338405925 6.15345698935289 10.57252555903859
Pt 7.699603001603148 7.039077127225395 4.529608111294057
Pt 9.434189339884002 5.086621760400183 9.129712154415337
Pt 2.209583713807207 6.388452497138311 6.440360608049535
Pt 10.08573310182504 5.275065866445728 6.564785580542393
Pt 5.804979004232558 5.626034325423939 8.821779785370364
Pt 4.222890883459867 6.9489753286819855 2.7246686685028934
Pt 6.166578552527246 5.300819206596852 3.4651447172207814
Pt 4.098775899819876 5.579790752815967 4.896295612038323
Pt 8.324515566031247 4.5853201542342665 4.765178738514956
Pt 7.7864560689440125 4.428976374056113 7.359608289603399
Pt 3.95841009114556 4.642733766184309 7.278195500696401
Pt 5.945953081947096 3.804633714212873 5.619870257662723
Pt 5.763303457032853 3.071558867682344 8.13576465725779
