26
Energy = -124.65537383 eV
Pt 5.322589469337479 3.400163289803607 3.901166645663327
Pt 2.943438957087052 4.471552591206417 4.581672811798596
Pt 7.141055684808853 2.6265432337042993 5.7090819191516085
Pt 4.7427732295215765 3.576193286225643 6.455838061730882
Pt 4.556437771487605 5.747718453881006 2.747446396652124
Pt 7.620128730382462 4.593578573145559 3.9843621734136345
Pt 4.389509758978938 4.366426321346401 8.934511925172481
Pt 3.4286051841782443 5.7834869764358645 6.869118385266684
Pt 5.5821134521416536 5.780450211354634 5.152152190263121
Pt 6.864666675752669 3.95851345277649 7.967073621176737
Pt 8.710374343227533 4.730412961192986 6.3314833554030585
Pt 3.331628813445571 7.157175125043309 4.602574795479921
Pt 6.884853016974907 7.024617060530808 3.268564755501181
Pt 6.566860492285476 5.580758131126974 9.965946255775783
Pt 9.035009001939057 5.287199389016055 8.908502186969368
Pt 6.802232154506789 6.5672748185452505 7.2081345194558475
Pt 9.372201727922528 6.478120410454269 4.42532934319203
Pt 4.757719794090117 7.004508732010462 8.757133552696594
Pt 3.579953985640605 8.448121615182068 6.885939453158341
Pt 5.519139283967306 8.459702073858757 5.12914738258316
Pt 7.949842241680392 7.74400575464741 9.179497395776382
Pt 9.384974475089317 7.181698417512576 6.978281693355617
Pt 5.997990388507655 9.073308782761973 7.788688636547193
Pt 8.147021137433855 8.611329630186377 5.01689506555347
Pt 6.785820145159274 10.651934890293084 5.774544104444846
Pt 8.542696726257304 9.67523083363874 7.44167131667019
