21
Energy = -95.9697194 eV
Pt 7.626066765831405 6.210549770937137 9.523953883301699
Pt 7.368918389226805 9.839477254139725 9.348740354265013
Pt 7.42083693458301 4.074677076902321 6.064073892806028
Pt 4.000583155283267 4.353629068157557 6.702967516027374
Pt 7.271127684234561 6.525235434490376 3.579772564334728
Pt 4.444415879445346 8.005204355618462 10.133382045930649
Pt 6.123654379539108 4.529506787129905 8.125426516040562
Pt 3.9170838288238645 9.336325120392642 6.023231358180201
Pt 7.605568897862552 3.8852622269588495 3.512733458708571
Pt 5.67368998109236 7.012646429443545 8.073206122098043
Pt 5.165194854026177 9.498814850695325 8.169887175272688
Pt 5.452155357197653 4.8741226654171745 4.6709862651153164
Pt 9.70281156900304 7.302018802549043 3.2794394609978488
Pt 7.326220755791416 7.189945779929973 6.0855250651085315
Pt 5.251008733700353 7.599589174966069 4.698621669122808
Pt 3.6545654501663813 6.845074107254681 6.5694268427524065
Pt 9.413891505859226 5.244286208274717 4.825299156146563
Pt 6.79122377483575 8.077582112529186 11.022412034009033
Pt 8.740226776979947 8.17598457073018 8.083505163546485
Pt 9.069741202597381 5.666600953546426 7.441759642196171
Pt 9.843131718071682 7.665230348962276 5.80464610049211
