22
Energy = -103.2960354 eV
Pt 9.418794274242492 4.9486011967532075 6.507815222592124
Pt 9.964021456848117 7.196496498901879 5.352122674316975
Pt 8.363322073564307 3.5798837153378877 8.40349218760518
Pt 8.366707163440678 7.033437626120741 7.41874823140504
Pt 7.061001718322191 10.481069337649636 7.607905788202912
Pt 8.00395317268165 8.955646413049758 5.803876332832121
Pt 6.691390925611969 8.338717279380882 8.87891967690836
Pt 7.249174727767023 3.6904270016906864 6.04163940239974
Pt 7.485531588014678 6.3195348646216045 4.933319384765081
Pt 7.119696667741118 5.714105317586303 9.243009284307396
Pt 4.879202148734515 2.5553385725339726 6.053807192256642
Pt 6.603395188101974 8.421817960674952 3.5000103505754634
Pt 4.796055475074014 7.405051024894072 7.38942277232604
Pt 5.441740669721861 9.368266778197244 5.927749279778856
Pt 6.918051008656188 10.774046701186924 4.315715876475594
Pt 5.399081502410618 4.398349443899235 4.39416717692922
Pt 5.715740970751972 3.999414510777592 8.0475410650183
Pt 4.871521275157714 6.978457410355056 4.88778697122955
Pt 4.805981912028869 6.6327220957492585 9.76484804541383
Pt 6.09233158111431 6.091728819039692 2.6404731167367888
Pt 3.955645884883379 5.115632045860771 6.5305594389786785
Pt 3.4255156934922244 4.629112464100221 8.984927607307679
