26
Energy = -124.55002231 eV
Pt 8.51585321591 4.0989488467831485 9.627763639273837
Pt 8.635285854023605 6.706503960672292 9.52361941195664
Pt 6.2765440722884955 7.841931041909562 9.228842131618983
Pt 8.30553400138 9.367005199387961 8.974072766454663
Pt 6.288680901605441 5.287912216103589 9.071968497363704
Pt 9.098571048514712 5.222222296225822 7.413784172705895
Pt 6.391056648676077 2.70135207523664 8.897612503878076
Pt 4.212222320860307 6.637225753413655 8.109914032077471
Pt 8.543958996188964 7.748190738126803 7.010611101496921
Pt 5.17109938358866 8.916295064260432 7.245183215468614
Pt 4.47008266644594 3.962350788894892 7.684687532251797
Pt 7.333077460963172 10.037680547909181 6.561912524887046
Pt 6.8309476031492355 3.685373745883928 6.546418503267749
Pt 2.671186988636065 5.305520318419566 6.370990298636827
Pt 9.281355373222981 6.267963655466843 4.99807414197378
Pt 6.229345487635618 6.449523114248317 6.3693418454774875
Pt 3.730080882350372 7.596988784870839 5.603858247337144
Pt 9.202060088261316 3.584667276135503 5.465744172367415
Pt 7.219128676660127 4.875609860837651 4.290888078955357
Pt 5.378852161450443 9.54685209678064 4.735404226221885
Pt 4.771399743378857 4.485351958414388 5.04617715911684
Pt 7.614121202130329 8.298644639507692 4.618695001777603
Pt 2.996937375847925 5.94321464600674 3.771654232200905
Pt 7.95918455292262 6.77593595461564 2.621715891592857
Pt 5.510439085775022 6.614696632335761 3.452194100359747
Pt 3.6832971520559603 8.433347944207435 3.0986014225103538
