20
Energy = -92.11488625 eV
Pt 10.96954561312833 6.454252010401439 5.3162182115926315
Pt 5.189836270085628 8.24209534741809 7.677348131317205
Pt 8.122914959855391 5.343058709822877 9.113493056804929
Pt 6.53499366207172 3.6315242160982057 6.318715780488893
Pt 8.468519697670153 3.115069256365514 7.911244664671776
Pt 5.013069597144751 9.290569095444527 3.7268659768647163
Pt 6.752696148095149 8.715513430695253 5.542657985714619
Pt 6.523062712263453 7.186263746017928 3.4982250041810024
Pt 7.8081690031462125 5.443141598082149 5.065171064227719
Pt 6.011448119742966 7.117114296726029 9.850392066615337
Pt 8.457603505971365 7.857146628300854 9.519228383869999
Pt 3.8075002421745463 8.020817984376965 5.499725911693756
Pt 8.632768238383184 7.650989733195779 7.0207189118327795
Pt 3.49833717450711 6.292278351125584 7.399297167359605
Pt 8.965023339534604 7.583087878813728 4.442216244898957
Pt 7.2707933392324495 9.700315808496105 7.863295059563802
Pt 5.886650558057885 5.462400600185458 7.923358134973062
Pt 9.565669522766967 5.201923719968039 6.941296370125099
Pt 5.287595747005878 5.909075837065207 5.442078335334238
Pt 3.5342067281334404 7.57532927352461 9.603610655821447
