26
Energy = -123.84582385 eV
Pt 7.300948188264739 3.8570879690935747 8.253854466489104
Pt 6.470140575638424 2.4289787697397025 6.26037459372754
Pt 8.128509539297665 4.419701644012324 5.860269610468477
Pt 8.334832124541464 5.484725924971107 3.4886920219354187
Pt 4.634856199427553 4.204807359870595 6.076899396202209
Pt 5.420204814183978 5.509571227392157 8.109159277504698
Pt 9.12963285897259 5.619548300284548 7.94326356018616
Pt 7.514669631686025 5.777092955765898 9.940478683875066
Pt 6.332546740557163 3.777364248953361 4.089722546109615
Pt 6.218862938650603 5.09857363968214 1.922716297977777
Pt 9.658095616413316 6.436975500012539 5.487032079660279
Pt 2.6764750017984107 5.701698016990112 5.734486161357296
Pt 4.187801865844438 5.467904673759652 3.6667621411167985
Pt 1.238369006808077 6.515553821117892 7.593580381421612
Pt 7.286787555648693 7.855908672575436 11.37174047625166
Pt 8.567920094445213 8.140017962672028 3.6407517785238603
Pt 6.218123926435589 7.065864916116789 3.555060708674483
Pt 10.435524116528107 7.763428849537564 7.76116804950214
Pt 3.5681974651777644 7.248848818846302 7.966147744969491
Pt 4.44619044371263 7.518566229948601 5.4173077438313
Pt 8.011209289031282 8.160638133730364 8.848528105392393
Pt 8.451977806534035 8.49712254392975 6.325060155588856
Pt 6.432509646966497 9.130254855197437 4.998155149892245
Pt 5.514667051105652 7.772217839578136 9.570315189609767
Pt 7.3779765253693155 10.382670121477613 7.640344827833274
Pt 5.301868806295815 9.023774834079292 7.337026681233532
