22
Energy = -102.7906407 eV
Pt 9.1890398607255 3.4053733263703942 8.075752956831636
Pt 7.975127321518811 4.254069138418233 3.6601650839940336
Pt 6.911935048882809 3.567608368479593 6.796488791248399
Pt 8.930303811811305 4.889164152996725 5.993713146761057
Pt 6.257880957119729 6.081278332243069 2.732502147271332
Pt 4.301758699202129 3.6869864229667924 6.71484658024161
Pt 8.080358728704525 6.781384338641688 4.383684968652511
Pt 7.118868186261913 4.6516926165651 9.131088225617878
Pt 5.626013900969564 4.6262505758685055 4.713433751594133
Pt 8.926994813113126 6.1591120486429825 8.184079266853294
Pt 10.074660722798432 7.2616118315174525 6.034008522518268
Pt 7.746709618777583 6.773958507288124 10.421086927062337
Pt 7.882107138216683 8.142373128820555 7.011828594070395
Pt 7.528587801307655 9.32193488488197 4.744366246461712
Pt 5.161759478263009 5.750323929281833 8.020298405745663
Pt 5.547730533625041 7.651408468875217 4.648504112680384
Pt 6.15922958521035 7.924371517892501 8.891150193374473
Pt 3.811090313837415 6.0699518197317595 5.812915674808339
Pt 5.636354609577953 9.334772051821592 6.636057141045567
Pt 3.7384603942701964 7.926544989830304 7.954535298529196
Pt 3.243062258773445 8.518218153578516 5.406580577530494
Pt 3.285494729647686 10.355139907901522 7.166441899721296
