23
Energy = -108.41235913 eV
Pt 4.839005397173183 9.79723835599704 5.738748468788299
Pt 4.30389212385734 7.880235788826989 7.389799117935824
Pt 3.4963722159253496 6.026941202493292 8.968976962312887
Pt 2.526033871463198 5.584726913830031 4.116129816445279
Pt 6.226439017204094 8.071862200164821 4.426310783226066
Pt 3.844000163018089 5.306394360519933 6.2742427046503355
Pt 8.697183889775978 8.280361329256799 3.76588129371932
Pt 5.430265572602695 7.576542897964686 9.64423850484158
Pt 10.879565157511626 3.635463572793429 8.020290653656627
Pt 9.21976564141109 7.863827094827467 6.169100820381738
Pt 7.39475088041537 6.105242202396108 3.2007913363136624
Pt 10.46802901110706 6.026664364141336 7.4887748802145415
Pt 7.234390787130479 9.303434330050754 9.470342674883922
Pt 4.818910419032816 5.99437753888271 3.0718559256946243
Pt 5.159354634540347 4.320987098484498 8.145697601174094
Pt 6.851779280175055 8.66309875997551 6.984844356095844
Pt 5.772113936206472 4.4198192344805936 4.82244460655986
Pt 7.443480835632644 6.063348986223061 5.772605148006023
Pt 3.6851329391293723 7.6867846683815575 4.905974733363657
Pt 6.986845943870849 6.004329037506551 8.379617203023788
Pt 8.929125596476794 7.5996920466661875 8.706857223289147
Pt 8.594015272680094 4.294344583582752 7.269304091052516
Pt 6.606363857144171 2.901099876038834 6.6739875378545515
