24
Energy = -112.7164551 eV
Pt 6.203665429416666 7.93974750187798 7.89158140610121
Pt 7.56508353129337 6.13105521387781 9.207943761961257
Pt 5.157084579358636 5.423472428142498 8.406318292395092
Pt 7.315810683931355 9.399835744574872 5.983541690237734
Pt 3.6098857380187503 7.4995264357403055 8.038628593369115
Pt 8.790920914667968 7.639269474459438 7.228058231547523
Pt 7.17021889546087 3.64389294089678 8.099260826480668
Pt 4.619614538064255 9.081077803320666 6.024617276640747
Pt 4.934531526599484 6.527773141647678 5.7605413166244706
Pt 9.542010930554026 5.053182315451018 7.870661551320226
Pt 3.010417851729092 5.077586109036367 6.8324907541635636
Pt 6.040715451725957 8.977213082610975 3.758784826083169
Pt 7.23281015334033 5.655198797647761 6.471688624666778
Pt 3.6352317034857085 8.114966083360875 3.5731628225557723
Pt 9.767582455232475 5.760423153949116 5.306462631136558
Pt 4.638733288244533 3.085155331811579 7.2800693136832875
Pt 7.856855787624063 7.294166190443841 4.47802878812428
Pt 9.047319763286225 3.3159481737851264 6.0121939487033105
Pt 2.349386802195395 7.53157712820008 5.747386258498348
Pt 5.587290265243818 6.241792956544429 3.326020199108205
Pt 4.869746622130935 4.055475498729068 4.8258776797984835
Pt 6.650430825257727 2.450310004046831 5.7650217150838605
Pt 2.9619634672121413 5.599007800353522 4.013286666424778
Pt 7.495585705343457 4.595633287543213 4.1766806000910055
