28
Energy = -135.29687804 eV
Pt 4.184845335233858 4.626071549536539 10.68400771532778
Pt 5.448307515137964 3.6556654691447545 8.543025774894794
Pt 4.232541946020117 6.691268210290746 9.063257986646748
Pt 2.9946434871851633 4.3815182765486815 8.347342965705424
Pt 6.533238035617765 5.616847841952143 10.07638225709118
Pt 4.37525977652605 3.871962846278563 6.083269111740173
Pt 4.8085145786601 8.32684667354797 7.0392318084701575
Pt 3.2169342022671157 6.300623586255569 6.590430609497637
Pt 3.5474055732594314 5.432157278660095 4.1361986194504805
Pt 8.028553664900851 3.755090407608719 8.877106381708453
Pt 6.4998934836879085 8.027103348639146 9.093030176053547
Pt 5.972886068106088 5.929699084230957 7.053657881641942
Pt 3.711487378467985 8.038040741905574 4.715190321197652
Pt 6.430232581194218 10.27717465621466 7.799185746137083
Pt 9.557631034193797 4.427684703772293 6.8391411200627
Pt 5.55603355039929 6.914943783528465 3.3579275463188774
Pt 7.032440586358107 3.6217834790621515 6.403063209399439
Pt 8.330276778488194 6.28610241057153 8.243242419284105
Pt 7.534423286369732 6.808239480053653 5.239646856666916
Pt 6.782226445905182 9.328104285462976 5.412060122699907
Pt 8.450143529365507 8.748992537812638 7.2935327780582755
Pt 5.250224240410427 9.602010677836503 3.357824023671102
Pt 10.009513972754657 6.97551356542341 6.224910699797728
Pt 5.955994667702095 4.425907647123051 4.074830611957509
Pt 7.5906044870453195 5.704160318323411 2.301459709597555
Pt 8.571744083778668 4.578102809315057 4.449354012620582
Pt 7.608623069050846 8.501709626765592 3.0681867545501427
Pt 9.607861474431147 6.927077145166603 3.637045327605511
