28
Energy = -133.5081744 eV
Pt 6.718745394599371 10.441449072412603 6.3959874078692245
Pt 9.347817329395605 10.101771078370758 6.731989341712613
Pt 8.285223282147761 10.336682582427903 4.339660912787465
Pt 7.584135179342857 9.217053641792901 8.678796490334689
Pt 5.753531924959179 10.32284763382428 3.7434195524864426
Pt 5.018863610356343 9.896821996542558 8.321736305252514
Pt 4.148029726806861 10.190824122800779 5.858054707163052
Pt 6.892660897711154 7.89183804432685 6.126413641099837
Pt 9.609369549599963 8.09350612479161 4.792429719171741
Pt 9.182024020661757 7.577112095830399 7.313591749394608
Pt 7.222951317927003 8.07091834862249 3.488125508510948
Pt 5.758491638512663 7.373843938022269 8.57324036601509
Pt 4.824416808559404 7.976712803420452 4.554766572030678
Pt 3.747361716177821 7.830252727082983 6.982598984805724
Pt 8.100981685505932 5.933279385557169 4.618927207490284
Pt 4.29612367791682 5.646138200956434 5.536037973770646
Pt 8.071086996142006 6.713159131825916 9.55924238606756
Pt 3.9155358485023295 5.541611716487823 8.1836979646534
Pt 8.978232327758064 5.08824849112542 7.68187662520487
Pt 6.264159819377131 4.051181383505306 4.671084248712112
Pt 6.5275717484506375 5.448108602202301 6.8544962298836785
Pt 5.652116593946274 5.463744945326103 10.385612732823391
Pt 8.827411916443106 3.6370346333528096 5.557821929795449
Pt 7.817172637153159 4.040572732226371 9.80904706932571
Pt 4.322357180352514 3.1400174956502966 6.3723068682091455
Pt 9.025627759781418 2.477337987308427 8.019158974523066
Pt 6.826691047975008 2.3559841378659527 6.700869227335506
Pt 5.6896966932044775 3.6391778492862197 8.53948418063532
