20
Energy = -92.45023416 eV
Pt 7.706201901576216 6.2802462927218095 10.26230179909417
Pt 6.532625558650758 4.3660279277518255 8.89944542181853
Pt 3.904178146841764 4.755688693804604 8.466578738250755
Pt 8.763827160059803 6.58306018009474 7.970103830404962
Pt 5.561092415449256 6.7285453511706415 8.847066815860169
Pt 8.157350656702471 4.231485697951224 6.910437154052804
Pt 5.5372300958866445 4.364486409867899 6.523723060891507
Pt 10.547305987291926 4.983915760794973 6.931208515564444
Pt 4.779728510086842 9.195496352152727 8.354894573570542
Pt 7.292933838013389 8.569372049438092 8.718175842573672
Pt 3.561945453138038 7.025567147410939 7.300667183269301
Pt 9.439232358959075 6.747750027891839 5.394503585750579
Pt 7.400194680630444 8.146480591168817 6.227014483068916
Pt 7.378551055350746 5.399553039609195 4.756995186446469
Pt 5.259874896041004 4.20059935903192 3.892387178226594
Pt 4.609602474769237 6.3536499931184 5.135751651480104
Pt 4.985126250051819 8.817267846924423 5.806310274512126
Pt 7.799897533458238 8.008328198255539 3.783979428394715
Pt 5.731221503844068 6.584523068909934 2.9206490759955948
Pt 5.505875950488656 9.111952439220536 3.351802628063833
