23
Energy = -105.97853793 eV
Pt 3.350108069512143 6.523079491464973 6.06905998436381
Pt 2.8307503357951247 5.4332252239195205 8.497824651966637
Pt 3.9352888449709535 7.819736125172827 8.478693464464428
Pt 3.6282198037550373 3.742985668229034 6.6337419893824086
Pt 5.314635676051573 8.464881485407117 6.497273679264311
Pt 4.784301390944524 7.347828899227776 3.9807405211794227
Pt 5.001148661849601 4.671208053880179 4.756703313512335
Pt 4.893493520430673 6.021169580011538 10.13818083723116
Pt 5.439238880738077 5.716633816373147 7.358463197062556
Pt 6.703351400661391 7.474581777611744 8.74772326001475
Pt 4.713265254987649 3.5841930329140936 9.02726790673328
Pt 7.022975020825638 6.642040453746356 5.05999746707088
Pt 6.317183139113436 5.307104104151995 2.7255263083340537
Pt 6.624051001206606 9.386304592560366 4.577249019719134
Pt 6.978185110534013 7.852797469869583 2.472044094539958
Pt 7.065119303727037 4.716553256365476 9.391524924064997
Pt 8.12966973777974 8.308143964082436 6.680301472461271
Pt 8.840499971103707 5.9903552876320445 3.0265894884293707
Pt 6.443358924082359 3.4115057754510745 6.924732628210438
Pt 7.865450867946283 4.240606305273755 4.8776499346158415
Pt 8.273112960982072 5.587134640510323 7.378896203883773
Pt 9.02970459585318 8.434752895707271 4.12754525609216
Pt 9.750909777313392 6.283705366182932 5.48165618698143
