24
Energy = -113.76142653 eV
Pt 2.938638981188016 3.7031613993910173 4.437044486918489
Pt 3.7609911735500297 6.172966526635806 4.600503073597997
Pt 5.074110605822428 8.343727776534656 5.090508717254673
Pt 3.7144601036292695 7.230925165252117 7.012614412268764
Pt 5.527170025033511 4.320693214373326 4.075545580644122
Pt 3.644573355499749 4.580219192349701 6.805260966525129
Pt 4.166877828778612 8.030967842376484 9.490369355197965
Pt 5.067383598126997 5.684769093767617 8.713876699098458
Pt 6.013799683211697 6.73415743990422 3.2044209874369467
Pt 6.218210378842931 6.0339011906095195 6.242062819872443
Pt 4.81454183170712 2.447957143042585 5.739518557702158
Pt 5.599847750715797 9.007380476396028 7.551977204405862
Pt 7.990433155217908 9.656156600832038 8.310469599316782
Pt 6.21992564998311 3.674497821767499 7.552658354758666
Pt 6.6887786235698465 9.320877646808434 3.3308440836810003
Pt 6.785427726604055 7.600594501585542 9.486529278070345
Pt 7.625432732418681 8.939343152935509 5.843177417176066
Pt 7.371646938029259 2.737730226591352 5.279776001845267
Pt 7.948359393978224 5.150328798150674 4.360874907353168
Pt 7.61505281801256 5.1236893930328264 9.260753550495286
Pt 8.412929940749128 7.130637999057 7.541826253288533
Pt 8.507655002936895 7.615442119685604 3.8647395043241985
Pt 8.565727844884325 4.60314584413985 6.840841816135268
Pt 9.99235581802707 6.415522600920103 5.5869782071056955
