25
Energy = -116.59814847 eV
Pt 8.565537138838069 9.486277732793583 3.5006944167499436
Pt 8.018138027066978 6.995456126287486 3.7306275854456663
Pt 5.549076226499769 7.643028874864896 3.697915215326195
Pt 6.141512895154831 10.110502451461254 3.6237875589763626
Pt 7.564662197773961 4.501147967252251 3.9621542868998936
Pt 5.081463491582534 5.1289016469538495 3.86005802476996
Pt 8.672371803086808 8.37486984520066 5.848454485722901
Pt 9.041661704568748 10.97672017251465 5.618052087715845
Pt 8.45949193417441 5.76473613274785 6.1184590521119375
Pt 5.971622959758891 8.90496757601211 6.001252384001502
Pt 4.950730684291306 6.534285251080407 6.027500225752817
Pt 6.602987294800861 11.437748030584332 5.854976173902685
Pt 9.038803097007323 9.839756548623768 8.000579421870098
Pt 7.002963809355224 3.3900206955420034 8.426333388725274
Pt 6.281629012520271 4.30839204203711 6.211573797827844
Pt 4.56757536452517 2.6959730307392937 8.814412341211233
Pt 6.549126692615558 10.138353124111093 8.185273009507565
Pt 9.120729007285517 4.770504218452704 8.44444987110465
Pt 4.760741038519469 5.210666135331519 8.209743576301708
Pt 8.977039718218148 7.313935350705428 8.194697954434574
Pt 5.5634863448273135 7.726632089051739 8.289452792422917
Pt 7.1780269708767355 6.1181119204461725 9.591017540486954
Pt 8.146205341208583 3.96266487208242 10.756352759976723
Pt 4.818168550162007 6.648752435037753 10.52119007419348
Pt 5.5289787598716895 4.170325794676601 10.663722039150837
