27
Energy = -128.17162413 eV
Pt 6.9377184579088444 10.661313709999998 7.732984103384072
Pt 6.9377184579088444 3.214123205817689 7.732984103384072
Pt 3.7094764391938946 9.391318288247795 7.298233049449096
Pt 10.165960476623795 4.48411862756989 7.298233049449096
Pt 10.165960476623795 9.391318288247795 7.298233049449096
Pt 3.7094764391938946 4.48411862756989 7.298233049449096
Pt 10.403173968282895 6.9377184579088444 5.343968071135149
Pt 3.4722629475347957 6.9377184579088444 5.343968071135149
Pt 6.9377184579088444 9.130456938423624 3.3997752879585654
Pt 6.9377184579088444 4.744979977394216 3.3997752879585654
Pt 4.424311844673643 6.9377184579088444 10.275804535188929
Pt 9.451125071144046 6.9377184579088444 10.275804535188929
Pt 8.728060958223491 4.7633902581339935 5.261637735924823
Pt 8.728060958223491 9.112046657683697 5.261637735924823
Pt 5.147375957594202 9.112046657683697 5.261637735924823
Pt 5.147375957594202 4.7633902581339935 5.261637735924823
Pt 5.5652741869569935 8.927830220225664 9.055153365217857
Pt 8.310162728860696 8.927830220225664 9.055153365217857
Pt 8.310162728860696 4.947606695592028 9.055153365217857
Pt 5.5652741869569935 4.947606695592028 9.055153365217857
Pt 8.241004187143544 6.9377184579088444 3.9449786677973844
Pt 5.634432728674148 6.9377184579088444 3.9449786677973844
Pt 6.9377184579088444 6.9377184579088444 10.354437220786604
Pt 4.234160997244841 6.9377184579088444 7.7079008253656855
Pt 9.641275918572848 6.9377184579088444 7.7079008253656855
Pt 6.9377184579088444 5.633813029024276 6.846520779332157
Pt 6.9377184579088444 8.241623886793414 6.846520779332157
