22
Energy = -101.86604373 eV
Pt 10.308202259854522 8.938495123433368 5.549036153971499
Pt 7.756920877915866 9.456675863117274 5.748754567851388
Pt 3.8599709952037156 5.711213254296427 8.33645730626497
Pt 9.801655444889908 6.428304956865925 5.623907890269865
Pt 7.091373295018684 7.158151895985875 9.157358661738398
Pt 8.364994392288136 5.145909954653531 10.22474294738719
Pt 9.130222453636106 3.961478853421532 5.577537718199417
Pt 5.950015150569612 7.654474083068961 3.9394154817271634
Pt 6.046810546192758 4.531610280340192 7.434218835850388
Pt 3.1915910035735084 7.003232923531928 6.155327649494613
Pt 4.953131705847341 8.03904700396784 7.826280120619912
Pt 3.764547676578815 8.830089845937353 4.496206449780553
Pt 4.93458816777102 5.490718781008487 5.229956231429114
Pt 5.846731734854143 4.887957917638816 9.930443408069218
Pt 4.743008091161023 7.248702392275119 10.30665211092174
Pt 8.56489915069933 7.969302583335851 3.8037459514571634
Pt 8.903225195439207 8.05335156885143 7.632143979739147
Pt 6.617181186441918 3.4522606470072783 5.184566604387745
Pt 8.600737425698117 5.271783672278408 7.720635892026025
Pt 6.834730913391735 6.945797668819605 6.347239939648208
Pt 7.583628606625295 5.62813300826299 4.181973550595877
Pt 5.36769830443767 9.820137790124035 6.168904841573016
