28
Energy = -135.49518537 eV
Pt 11.086402259702005 7.158165606902751 5.551935676781414
Pt 8.800432427159594 7.372607670801213 4.2537943815085
Pt 9.353425204346753 8.8871460103737 6.492830273766385
Pt 9.887623468661237 6.245021306428919 7.693265232529589
Pt 7.588499838930192 5.014580935672229 3.853243391770329
Pt 9.773563722074513 4.929450181778894 5.336093096971495
Pt 7.385577927444661 10.135037815120183 7.721473116139692
Pt 8.787743184244896 8.270933842492866 9.008280592127672
Pt 7.027540101196487 9.148916725235459 5.238202812908905
Pt 8.362713920790968 2.8124506581536415 5.047961577782304
Pt 6.254324783122401 7.216533204501419 3.6672989448477424
Pt 8.078464381693804 4.158744754948286 7.265066828433871
Pt 7.7038712917574355 5.931018047629069 9.156323834079437
Pt 7.617018825951097 6.83395470747611 6.5469530338365685
Pt 4.533314360367948 9.174682169753964 4.40319210005702
Pt 6.017166197320871 3.928018591010893 5.641038651509851
Pt 6.190782285925235 8.252710009910059 9.162231702047086
Pt 5.069928343956047 4.8357657829615865 3.27114443713156
Pt 6.480662087969938 3.652913232443116 9.234729358173105
Pt 5.15956581157272 6.344708073696858 6.786668420488417
Pt 4.460249164725492 3.7557382096412586 7.683764299767516
Pt 3.8114973995480907 6.6750841489341175 4.5837738541496815
Pt 5.084803915442875 9.079192935672616 6.971040770189419
Pt 3.582247101136296 8.019675072960329 8.899911964053075
Pt 3.3642245417717063 4.281677604708502 5.367546178355335
Pt 5.0284878003018 5.863641438399817 9.342961196248288
Pt 2.7730456060670075 5.81976846259845 7.508491739762922
Pt 2.7431658343436682 8.208204587318969 6.317124322107793
