28
Energy = -135.31980071 eV
Pt 6.0229783596105895 7.789215006779678 3.58656414327818
Pt 7.009472675569845 5.675412139367967 2.389343482591007
Pt 3.498291680282261 7.833039382887796 4.353996730934018
Pt 8.998072811276808 4.584780356079661 3.8361272031703324
Pt 5.266465605357703 9.434412990028859 5.459417410228623
Pt 8.576783189360013 7.177586435810972 4.000424373892236
Pt 7.738361364161192 9.677017639016466 4.333225497669979
Pt 6.462360014226183 7.7418185551619665 7.003395224343402
Pt 4.653914199823798 5.5574949637158015 3.742259213130523
Pt 6.71334228409597 5.73260066507517 5.369403355605907
Pt 3.6964097017656186 8.020528281003457 6.969712880100208
Pt 8.341153761765153 6.9252845792455675 8.518808077038273
Pt 7.247172431023599 10.297060517871842 6.9524419367325185
Pt 7.017236034018995 9.03698722440337 9.266727552065317
Pt 9.17770695721304 5.727223543055611 6.279562846999936
Pt 8.905116405221861 8.374078504057378 6.323843864987789
Pt 8.35863670860494 4.31383742807325 8.403988381844277
Pt 4.8090752096279115 7.714728632362383 9.36570387219498
Pt 8.03736873652553 3.394131916589566 5.9914483737523625
Pt 2.9244576640702804 5.637651363476175 5.748490475316881
Pt 4.937502670528662 5.6542856567337925 7.330712042709565
Pt 6.302910731156485 5.489004936378089 9.444160276518547
Pt 6.475529264616805 3.5519482738750634 3.8052408868596266
Pt 5.98221443537169 3.305111644104549 7.741064123817143
Pt 2.7600561434822857 6.238767056084196 8.661926213783163
Pt 6.142743773526174 1.657351506807316 5.6510354937954785
Pt 4.341624749201218 3.434632932594107 5.374251134787
Pt 3.232579362340403 3.729350273187508 7.687314076049841
