25
Energy = -118.7412323 eV
Pt 10.760839721048486 5.80011430592629 6.504351052098953
Pt 8.612564617151016 5.576768523020797 4.94750263710013
Pt 7.686688215696813 7.798164677305856 3.674919339109217
Pt 9.85819123572529 7.888750763238422 5.4488194633812395
Pt 9.075348685449816 10.007012558594068 4.336294454309952
Pt 4.947335370959533 8.055765393802 4.2041889367939405
Pt 7.009516735906274 3.5951180799532714 5.656177539600738
Pt 6.1712131405585025 5.582743716961444 4.048245175137441
Pt 3.5056911132297994 5.9655651809721215 4.12051909649688
Pt 8.806630480181921 4.404584561540494 7.411231588316579
Pt 6.776236468924647 7.267716932492755 6.052893404760241
Pt 6.4811126615234596 10.090290367443341 4.5121518382465
Pt 4.355459449254523 3.838562460509509 5.3446632937353735
Pt 7.943641183201365 9.47721498283678 6.722965717078347
Pt 5.612983923569943 5.215295167129114 7.0851844438541365
Pt 8.775595741916907 7.093313069150986 7.81363976113326
Pt 6.802344315092461 3.1078057476443433 8.317806440556355
Pt 5.1532697003522925 9.399536827392929 6.625889459560795
Pt 3.6599817430779686 7.0908545311371185 6.420821885607297
Pt 6.492114420055605 8.102704474355326 8.550630729838396
Pt 4.161707797670277 3.2642255904387754 7.892264080112086
Pt 7.021012603046519 5.656443624334657 9.19801085063898
Pt 3.7483092201813473 5.760453098982299 8.691694832155237
Pt 5.17414822048694 4.141438370189534 10.215939356931635
Pt 3.900373306584612 8.3118670654941 8.69550469429203
