24
Energy = -111.82600169 eV
Pt 4.601518213191947 5.944974295051019 8.217805579285672
Pt 3.68367378671675 3.8016550824781263 6.923618259625656
Pt 4.137690852404904 4.072502966964092 4.302057314213378
Pt 8.35592798531349 8.42926836094168 8.211195299976968
Pt 3.365533542576888 8.13887706636286 7.32278344238323
Pt 7.163215631536999 6.085333218036432 8.669265307485697
Pt 5.31257841013571 2.2217507626134845 5.6823269829493315
Pt 7.190464604861896 10.2888583138 6.827712156531894
Pt 6.174146497058293 7.510544637452479 6.374718944003215
Pt 3.825546424967667 8.428855803475026 4.709352629605259
Pt 6.063678040358513 3.543580927221636 8.162812613252614
Pt 6.795453594055127 4.009670664700589 3.8633787416526855
Pt 5.3440577783905 6.416167559998382 3.833844185958959
Pt 9.12787058051114 4.365065171470082 5.171752621966268
Pt 6.441030350823583 8.964813074513332 4.343176417408541
Pt 3.488328551938636 6.0960244767149465 5.7598651033801
Pt 7.903870989926776 6.563425708537174 4.288180057966681
Pt 4.730323358584872 10.144807402987915 6.432898865029687
Pt 7.774375748180818 2.3543769710985676 6.068034222348984
Pt 9.020714531564055 6.408828833285548 6.742764433597993
Pt 6.341637590818817 4.99237287195602 6.132221614614457
Pt 5.692466056899397 8.495822827313136 8.634181608506855
Pt 8.681551911638138 4.07243984295113 7.787100645632236
Pt 8.818434134062242 8.708164966916303 5.591199104595976
