25
Energy = -118.88250963 eV
Pt 5.051781683143216 4.630819721564218 2.3205433090276695
Pt 9.319079937704107 5.647592095072839 3.267533288379246
Pt 6.816261479543663 6.06245276869147 3.51813800389141
Pt 4.206391441723254 6.413081306722804 3.906566035234421
Pt 5.25699166567666 2.908390303598669 4.09767228131726
Pt 5.960677562207959 8.161754638598659 4.970707713605964
Pt 8.5153010124454 7.448337458239203 4.92020420689313
Pt 9.276639946807414 4.464875881194184 5.498839645970399
Pt 6.767277851116909 4.444246868699999 5.563594558257339
Pt 3.4505483299139263 8.195464077156318 5.591123915995096
Pt 5.228431940613434 9.88204585207453 6.790239614546545
Pt 4.238051050998076 4.585385698453534 5.7430816976169226
Pt 8.152801044675721 3.7509509744408187 7.752258469822359
Pt 5.5348760810805375 4.531455227453071 8.087413191865444
Pt 3.947037605289632 6.49030150669518 7.394504778289863
Pt 9.285357986486611 6.113759490366831 7.427375596973509
Pt 6.674053933243824 6.714749708322252 7.094311396394147
Pt 7.742665182735411 9.24371023220917 6.64974975101049
Pt 3.638623896402902 8.810936100395528 8.497816137735935
Pt 10.181431077800902 8.418851490151376 6.821456523876769
Pt 7.552490217339841 5.632216720461936 9.44385322211219
Pt 5.080973825891633 6.718361764435526 9.702047439001857
Pt 8.757780738444723 8.151221212418424 9.03205884512492
Pt 6.242445881306074 8.936736947040592 8.921279134386292
Pt 7.15694419224941 7.6772175203837945 11.022546807511445
