26
Energy = -124.42775788 eV
Pt 9.102475366687907 5.356051091983737 5.906671644154073
Pt 9.047249389340344 6.172639413968862 8.334037204003632
Pt 9.704772921359263 7.998973617917592 6.5425879395752835
Pt 6.563548295295304 6.0912142859577365 9.424486671270605
Pt 7.650076837448227 8.29970358470588 8.429340102013237
Pt 9.518293175008774 9.657581230967885 4.511471166855934
Pt 7.011203211743559 3.8131354349356354 5.0326862948550435
Pt 7.5836254053912056 4.031306016949733 7.634284532466811
Pt 5.6501104179155135 3.632167249813009 9.36806692491265
Pt 9.292016406106056 7.149436944298789 3.8591623853279953
Pt 7.853911969297972 10.155302248485183 6.447033712633041
Pt 7.2644053549868435 7.267154859311932 6.011385876567014
Pt 6.135606293188766 10.416731485886965 8.32632085067061
Pt 5.668908111930137 5.670960550014078 7.01444163652867
Pt 8.888488448417002 4.666332607316269 3.3867145978688833
Pt 5.1369199287993945 3.105777351949093 6.723870465167807
Pt 4.944750622227931 8.082586277951226 8.679901865545983
Pt 7.048024501977631 8.911202005005455 4.002615772614296
Pt 3.850701194567307 5.707644727362069 8.912526910334213
Pt 5.350143305504833 9.122052878359755 6.178873370910164
Pt 3.2214753056469325 3.111402906235233 8.610072215670563
Pt 4.6348238453033 4.992800529932489 4.737879166470832
Pt 6.757775597751442 6.15746481256334 3.6502865918990315
Pt 2.7991271679725385 4.665024415910347 6.567990594991287
Pt 3.6085052473781607 7.158279138890901 6.559637684443744
Pt 4.742608202883468 7.636620857457056 4.177200346378277
