29
Energy = -139.98132196 eV
Pt 8.408184930543857 6.905306858440415 4.282052374159081
Pt 7.073916056494768 6.600113202206981 2.022353074989781
Pt 6.365230517396342 8.592041818380347 3.691663450281247
Pt 9.624389236241003 7.171234958911811 6.5542310368965255
Pt 7.316186324788626 4.4779856074539905 3.795393856869602
Pt 7.668697498687423 8.920438008213045 5.908667292877107
Pt 9.005714485956934 9.232282647303528 8.158148202901186
Pt 9.213909511155695 4.758186040030278 5.57486580836994
Pt 9.841739051624513 6.8618964301858965 9.252961984554238
Pt 5.600482695911036 6.296548470485234 4.436637568468593
Pt 8.687587740640483 4.598392373508184 8.129852810589291
Pt 5.169898928443515 4.699665236839376 2.1968063764805925
Pt 4.423894451477023 7.3282769535199135 2.257869838358955
Pt 6.981741103112762 3.551064278535875 6.29809788539128
Pt 2.9525530588874065 5.406777793978899 3.581056951664957
Pt 7.796603562967083 5.49670678228452 10.44037225895773
Pt 7.705129090210166 8.207112462606087 10.30341556004972
Pt 5.6166100778544426 5.646444231114927 6.829649632560814
Pt 4.826701774459989 3.7676837505679166 4.640381610517
Pt 5.085690570936709 9.421968564946573 5.870429529258979
Pt 7.5156204098607615 6.815837506404601 7.901270886648561
Pt 6.110332653861519 4.112020194718372 8.957673885113222
Pt 6.241507418677035 9.01791315283575 8.20008713175885
Pt 3.5052996350733006 7.6238990842632655 4.857809691787216
Pt 4.404469958145336 3.1460367749530365 7.174650431104936
Pt 5.54929980590961 6.8081838463775695 9.668535414019807
Pt 3.044848279231809 5.275569358987828 6.219847896352962
Pt 3.6564035895969362 5.1959412176331075 8.790606865199377
Pt 4.0901613335819 7.585971758601394 7.499746214593803
