29
Energy = -136.39627588 eV
Pt 7.564899259478231 4.996798844750799 7.309946282520891
Pt 5.844858283492577 7.965051252459709 10.07444579234119
Pt 4.319483835519733 4.4151645622391 5.171632573104556
Pt 9.822907969430252 6.160228456856363 7.2842337059803155
Pt 2.332519272689246 6.839388835612717 6.674376517677841
Pt 6.87612237309546 7.487261513293841 6.331583803792266
Pt 10.710551066314087 4.559467548524145 5.4904497068035765
Pt 4.479263060175979 9.38257311119212 6.244556061810937
Pt 8.469216218790445 3.46824116622425 5.527776635911187
Pt 8.379627874275489 8.90292689955864 4.137877431663637
Pt 1.9991109761181418 9.240835346262791 6.256482723221862
Pt 8.99718606292975 5.530045261579907 12.646078207833726
Pt 4.615464817519853 7.444274629236292 7.860471690254588
Pt 3.4193498549722947 5.059788179675293 8.23595024734687
Pt 7.499955797409999 6.25786376517622 11.029237311457214
Pt 2.003152318132364 4.390990311490656 6.174570289516676
Pt 4.632295183368636 5.628100835556788 2.909958866429387
Pt 6.188811113947043 2.366620968122021 5.359467903453256
Pt 6.80694411883784 10.08180451194716 5.800258146089411
Pt 8.890324832852965 7.148823578456299 2.368909437192704
Pt 9.26488043991628 10.814338929928715 5.629774151792259
Pt 4.485882190098968 7.0253626951966535 5.160553060324163
Pt 9.262109582440933 6.543830420351851 4.806948592724163
Pt 6.610961523820308 7.132460099421982 3.600938214887567
Pt 5.771016142694693 5.489149723560598 9.257409084074707
Pt 7.954236155123608 7.274866347007294 8.726388415705989
Pt 6.675470971043853 4.605635290744528 4.148209602109276
Pt 9.249453217491686 8.627685161365601 6.9007616981465
Pt 5.388388167053472 3.6748644332417886 7.3951965248674325
