26
Energy = -123.69220042 eV
Pt 6.2359274770382855 5.181629628611667 11.30124601259364
Pt 5.892614165117813 7.388361422104699 10.064864512908015
Pt 5.319190327815397 4.843063944616791 8.960917828213043
Pt 8.05996703168446 5.92018670132966 9.623543231578624
Pt 4.109359970424616 7.232852411641195 8.206685378962668
Pt 5.361802848023711 9.502698812698034 8.749395491540739
Pt 9.382289710475868 6.3286216212535855 7.458688179015567
Pt 7.493761564966946 4.592509783157927 7.460434019619302
Pt 7.735967847639098 8.205172897564816 8.336395208483772
Pt 3.6422877655522696 4.893280294498809 6.973092434649509
Pt 5.437872769772527 3.1026987877351955 6.954813395816808
Pt 1.9756797417512175 6.801206425822263 6.880147152565925
Pt 6.284715350779627 6.826955846933713 6.685844690527398
Pt 5.058351758235404 5.433667537738367 4.898920388703545
Pt 9.70741657814712 4.087603745422671 6.112851407135955
Pt 9.05082432685194 8.681060887277095 6.121406601916938
Pt 3.5079553836327757 7.494689220904983 4.997799462077973
Pt 5.186110150009919 9.064502670757184 6.077129326623021
Pt 7.200893876939649 10.325182560693678 6.943202612441645
Pt 7.080046773665407 3.7397006812559836 5.054372758155714
Pt 9.95758262115545 6.46820763646876 4.921513873696879
Pt 7.644719682241444 7.345832931833739 4.477509575464413
Pt 9.113367218950344 4.404440811582956 3.5689449632307535
Pt 6.835512655113135 5.447231716662012 2.988301997709901
Pt 5.4756039161049035 8.346594219812292 3.623273162379712
Pt 6.1747676196958485 7.266635933408066 1.4832954657746658
