24
Energy = -113.04628723 eV
Pt 9.44441088548634 3.613555023189221 6.423669221782161
Pt 6.941650984461071 2.394156085633342 6.110006873920058
Pt 9.750333322396898 5.967463557021091 5.192542998566567
Pt 8.907661286015456 5.899404623786464 7.702207169401166
Pt 7.656602149530932 4.396266284589901 4.678094833334576
Pt 7.577689878681154 3.642345468185875 8.26699192391354
Pt 8.579614766089772 8.152910900547024 6.111665886016612
Pt 7.712188308160391 6.885459795974478 3.8527430896959673
Pt 5.294452816968479 4.1679512536449135 7.00133815293874
Pt 6.530156787327836 5.8209775828225006 9.026406368495017
Pt 7.957658581410389 8.107001243672961 8.670242385613328
Pt 6.670191497074409 6.2840917009094195 6.296561457110214
Pt 6.3299028868922065 9.127996061062587 4.888326815299341
Pt 5.6011008206397825 5.125394943420193 3.416614669979918
Pt 6.681191627239758 7.5710552517907725 10.930913799950236
Pt 7.162847412006567 10.127800063867026 7.124973073112972
Pt 3.283562174129781 6.2686703057726625 2.890760840391888
Pt 5.504731069084578 7.783210442161587 2.8190001139898766
Pt 4.4916861595002855 7.331602221858025 9.495555886673845
Pt 3.707749889596396 6.216687431600652 7.326935519960108
Pt 3.6854360893232916 4.799986037973329 5.087110688451027
Pt 5.978719318776269 9.648094428201084 9.445199475253832
Pt 5.231042023302577 8.39489149844324 7.246302547661776
Pt 4.377787709641673 7.318232818047067 5.053564953072122
