29
Energy = -135.5165493 eV
Pt 9.829926138588176 2.875068055365524 3.786629464285673
Pt 2.6923958114637263 6.712138665734804 7.011902954673336
Pt 4.783499987860358 3.267074473243293 3.5904294674724326
Pt 7.166055321586081 6.882710084332984 9.35938196050402
Pt 10.608077945687409 9.675032373932577 8.533411149720129
Pt 5.815874268198733 7.756472633449151 4.268475021492778
Pt 9.092381124496926 7.781127520347423 7.958881015801782
Pt 4.659912014331379 2.793124873001752 6.148602286720891
Pt 9.652157853579231 2.9808827684378323 6.318953383769296
Pt 7.526904593556257 6.958511504024547 5.939319788014386
Pt 5.126085629651683 10.18252643828499 4.634243050463608
Pt 7.345023660645774 3.0869037592665673 3.530449824482489
Pt 6.087510993318512 11.039648878551578 6.787721020428691
Pt 4.038767167875173 8.920372318074383 2.729798063694873
Pt 7.140567349138839 2.987214115278013 6.116447107170927
Pt 4.126735005482512 8.932875038738814 6.65496899472186
Pt 2.7234512398034534 5.704724094195931 9.435399890767696
Pt 4.477733813009778 4.688855522785817 7.79544668636106
Pt 12.326309491160089 10.551353847532992 9.823785737298602
Pt 3.6884952157115922 5.042184085171885 5.238004509989534
Pt 6.148558925847861 5.233069505654642 4.653128761118217
Pt 7.059094031286144 4.896081688375891 7.769640686155801
Pt 3.2575724046251664 7.460085110874549 4.635435296967703
Pt 4.635771266798097 7.313749854018836 8.700541897071748
Pt 8.77827616824187 5.113149716036631 4.596488580147693
Pt 5.3527058322238315 5.212905133110468 10.15016289756066
Pt 9.54496150911199 5.430689654495246 7.062321920260132
Pt 6.485474026211267 8.728598307832547 7.663939865937862
Pt 8.420239218041043 10.383387987382813 7.696606724479228
