24
Energy = -113.98479925 eV
Pt 3.724995198738583 5.9108746180802685 6.430268358151175
Pt 2.956201649828464 8.384587765872265 7.463590147019712
Pt 4.060453065982619 8.325420474912658 5.150561552156954
Pt 2.9911576777886695 4.433110235417025 8.40333010121917
Pt 5.599442671007582 4.1614358970439085 5.927841948959559
Pt 4.339932560999141 6.583272826780356 8.774552845632792
Pt 6.013289676401748 8.562632725963013 3.447052608600374
Pt 5.7508236057950555 6.391899310645937 4.687187862910566
Pt 6.445235489266866 8.653372354975778 6.02622592500562
Pt 5.35545045850452 8.81950584408716 8.289496048443251
Pt 5.899977245078068 4.020887443002197 3.3862834448749872
Pt 5.454497537613832 3.842763406613776 8.391336171528655
Pt 7.996851030860429 5.583931084150526 3.740893010872107
Pt 8.593984339598764 9.44250703103081 7.2717960651088465
Pt 8.30004156749042 7.7753976743277375 2.5242723886975633
Pt 7.571395941555473 8.382184888100936 9.391831515168029
Pt 7.888613382614141 3.380426220353772 4.936002904348216
Pt 5.5194734111018695 7.688666525814954 10.787634754709265
Pt 7.90247940681894 4.321793527443636 7.597520000476057
Pt 6.748379515378402 5.804658403821352 9.352306712602044
Pt 8.794277755037552 8.545142569426813 4.882339210681812
Pt 8.385589891776696 6.845400616191257 7.472932828680974
Pt 9.71000940246435 6.267314978665273 5.447585902455728
Pt 10.008142183980837 3.883508242962664 6.227852357380162
