29
Energy = -137.27540786 eV
Pt 7.944770253014666 5.976429821502988 5.992098920252431
Pt 5.823208137680918 2.0330091013190286 4.086828175557062
Pt 7.378105028080614 9.30498490003203 9.673516888016463
Pt 8.284513880853952 2.5206102930155567 4.172946905689698
Pt 7.70848470836695 6.831785195328897 9.205941551601176
Pt 7.421746437605897 9.123708442820401 2.69880802130196
Pt 6.202477183577587 7.539557197524803 11.298555924446147
Pt 3.9316018755829205 4.217255746474017 4.89614647825022
Pt 3.9819068511479725 8.42489193561773 6.722967344849977
Pt 7.171598970949155 6.745403763722493 3.528110176838713
Pt 7.097639397007264 4.530434296022962 8.12446757082836
Pt 6.532152422105603 8.31702070685017 7.16826568537161
Pt 2.7232698963614883 6.120582243184585 5.96357275643094
Pt 10.664894681651468 8.765115465428496 5.847366464777287
Pt 9.688178511585638 4.656788432333477 8.460611296852605
Pt 3.166816979127266 6.643462902088397 8.555581147764126
Pt 5.336413114614705 6.3686238528600745 5.605716016517274
Pt 5.307072576587475 5.713294873500547 9.62508162829486
Pt 9.705965180698671 6.9953791293724255 7.577245442463896
Pt 6.5746588026394015 4.398770419332868 4.40722075607956
Pt 4.924350897977996 8.409520632242847 9.233741780609746
Pt 8.90771060112772 9.459107323116907 7.615669140022107
Pt 9.826679293594674 9.60527406486019 3.556434165521722
Pt 5.652784776578732 8.871481163013685 4.693641018767932
Pt 8.204554476924011 8.55666314657537 5.209083048504211
Pt 8.783516396866249 3.573957626316778 6.386534981424764
Pt 1.462421446481294 7.976739113045443 7.197354051455869
Pt 3.41065375229142 2.1991169660278196 3.612445466107653
Pt 4.669698129702026 4.608875907252441 7.371891856184736
