24
Energy = -113.93260444 eV
Pt 9.465888230875423 5.5091820640066045 9.77830950499068
Pt 9.934243635260412 6.175862249272124 7.382731172680318
Pt 8.06442936773149 4.104843111257337 8.088253804074558
Pt 10.751605446280891 5.9484720014107175 5.0031669275196995
Pt 8.656493018569698 4.503329786714633 5.429304218669572
Pt 8.576632872943899 7.817765299065836 8.899717512022995
Pt 6.687122212368983 6.127903077373916 8.671872771642485
Pt 6.60171258377812 3.164393628536905 6.096324290663506
Pt 5.184690580404324 4.22653373453787 8.01840658199413
Pt 6.521755634903126 4.526325400338564 3.7715394503920536
Pt 8.628232248048139 6.9400947474186925 4.026467608512415
Pt 7.6077078353870835 6.71535504183761 6.309020365959413
Pt 4.878601520615389 7.749504090487834 9.302906616939575
Pt 4.671666794792851 4.9259379923867215 5.666291303818334
Pt 6.0338868441739635 7.042707094238737 4.090464677233854
Pt 7.230991334616622 9.18661354546232 7.10369330594839
Pt 7.260063285104971 9.252231361262815 4.594259817975966
Pt 3.355560396209116 5.750463409821413 8.868377308284234
Pt 6.72122623862213 9.46565431463011 9.5889307583792
Pt 4.134164883718023 5.635896074012673 3.3153464150088103
Pt 4.908181405412208 8.152723649037046 6.8157367128058155
Pt 2.9621229087851413 6.559412887538951 6.5219512625875575
Pt 4.6300537226964575 9.048426625133658 4.460307490404497
Pt 2.5873127301282564 7.524714545643487 4.250965852918218
