23
Energy = -107.82915501 eV
Pt 9.209761140527362 8.272413316753319 8.372777631563661
Pt 10.427721451449179 6.800872819916595 4.875583196670416
Pt 8.532899346431186 8.279813945146408 5.933685056760019
Pt 4.292856600402939 8.927366168535224 8.332408408231977
Pt 6.1247376503823 8.725763501568599 6.466133588262258
Pt 9.095889421989208 6.052613957804138 7.069195085470592
Pt 6.725747170047612 8.066446956742778 8.84116624121083
Pt 8.1863380472029 7.784551770586281 3.5249238849648936
Pt 8.994789765664322 3.8666977466681076 8.618318145356396
Pt 5.750888632162218 8.63512249288549 3.948021675897498
Pt 3.6954167777579423 9.153678035056062 5.595278757786114
Pt 8.571982397768586 5.196452030418514 4.326659012475521
Pt 3.815766478343136 6.875667520818857 4.510029448805073
Pt 2.8358852114027733 10.671010852317073 7.339607685150623
Pt 7.04201177959661 5.563028713027064 8.569245459459532
Pt 7.907418859688663 3.7307172690974455 6.333424474686857
Pt 5.39638720608825 6.2039532242747315 6.430533548101655
Pt 4.6316196239115905 6.397792925313702 8.847021313164742
Pt 6.170290509116636 6.055609670954626 3.966571279459954
Pt 6.564219473799175 3.5356603341610775 4.175777126425137
Pt 5.11975048682088 3.6774572262978253 6.312193133803874
Pt 6.436494149673493 3.1432551548878496 8.554462531151868
Pt 3.9908938873676316 3.9038204343634004 8.576749382735075
