20
Energy = -92.6972319 eV
Pt 4.931321223661269 5.534692127568714 3.601029852139365
Pt 4.865516968478457 4.026646627649489 5.633095399489637
Pt 5.169071022945863 2.4801559029524416 7.569736202860225
Pt 4.9098904023464085 6.186034489748634 6.912438635033656
Pt 5.146478962307335 7.785513635505701 4.772875098622816
Pt 7.1808628425663565 5.01185082558857 4.780226360897031
Pt 7.01806606821397 7.142759309459624 3.1170164958412174
Pt 3.5995169139850027 8.4358653481394 6.743025550980801
Pt 7.41937849979917 3.642187558870577 6.9851364631680015
Pt 7.054291666983744 2.508039263457323 9.278515430413822
Pt 5.731201777127882 4.702432403754309 8.831251510623042
Pt 5.541680094323157 10.027419568269336 6.151903616406698
Pt 9.368465554751994 5.075499931933666 6.177987751116905
Pt 5.942871130354711 8.33721804653467 7.9490051443783765
Pt 6.435047848463397 6.824157983174388 9.92080536561942
Pt 8.157268633506899 7.304438405145602 5.5296159457970635
Pt 7.420781784768345 9.379897479562699 4.353952311783032
Pt 8.014164359328511 6.1878701142876285 8.044674476300155
Pt 7.929985254405847 10.922441147689861 6.3023651411921255
Pt 8.415421570797825 8.736162409823503 7.5966258264530335
