22
Energy = -101.36719347 eV
Pt 4.628067296959196 5.362938372713051 6.813474130894634
Pt 6.8149570832312625 6.552112530953616 8.047627878266514
Pt 6.811984620260092 7.01842508986226 3.086638038307039
Pt 6.807272314885592 3.8484484105361085 6.813474130894634
Pt 5.473520755807568 4.593527037695233 4.461741622706762
Pt 5.473520755807568 4.593527037695233 9.165206639082506
Pt 8.147082565209928 4.582380277155506 4.462209121469892
Pt 8.147082565209928 4.582380277155506 9.164739140319378
Pt 9.123518430811634 7.1989880105630535 8.967543480147532
Pt 6.815341327376076 9.063177669229088 8.89439542659203
Pt 4.507233006784348 7.213493708727302 8.966298908325376
Pt 8.609529633302204 8.827936039891293 6.813474130894634
Pt 5.019905318449814 8.83988497016224 6.813474130894634
Pt 6.8149570832312625 6.552112530953618 5.579320383522761
Pt 4.507233006784348 7.213493708727302 4.660649353463892
Pt 8.996543789673582 5.3498694976281325 6.813474130894634
Pt 6.815341327376076 9.063177669229088 4.732552835197231
Pt 9.123518430811634 7.1989880105630535 4.659404781641724
Pt 6.819391556717312 10.615137144171273 6.813474130894634
Pt 10.64241004299151 7.296558964258197 6.813474130894634
Pt 2.98603530478078 7.311448831948772 6.813474130894634
Pt 6.811984620260092 7.01842508986226 10.540310223482221
