20
Energy = -92.68851129 eV
Pt 11.027195890248887 6.208508423304047 6.6660649243738055
Pt 9.494479820382928 6.738582395873487 4.687269436395092
Pt 9.223819568247126 4.456376635647319 6.140770925636396
Pt 9.295496346185171 7.398489312935597 8.126401530576432
Pt 8.152470038818455 8.303057943470355 6.061372728970364
Pt 7.364600004663547 7.672698374920451 3.555344741632534
Pt 7.1449039311529425 5.388012940716844 4.767143249732019
Pt 7.656212929105365 5.51034515109603 7.785754702210595
Pt 6.887753198076477 3.398287684449792 6.436781513476926
Pt 6.68110030408462 10.21941623661652 6.801577208818527
Pt 7.167509969647998 7.182089703516603 9.605573337867732
Pt 5.0182225854549625 6.610285874000966 3.770044799605792
Pt 4.7737651207276235 4.403243739110977 5.3419235949379305
Pt 5.574876743579012 8.545424306826757 8.241941297950259
Pt 5.59246113399133 8.30102617959474 5.499576823922266
Pt 5.144245136349633 5.071070127247066 7.79055015643332
Pt 4.540027828135507 6.707277933749006 9.651713039405312
Pt 3.7425272327647368 7.109936016496135 7.090812396344643
Pt 2.8139919784168366 6.153174572438094 4.937556432335333
Pt 2.700505620013831 4.618861828036352 7.0379925394226195
