23
Energy = -107.50801891 eV
Pt 8.478551473239628 7.813031428715111 8.849202444847197
Pt 6.376232132054372 6.2639415380852705 9.029800434839096
Pt 8.566710329353501 5.345203233345249 7.848467679050092
Pt 6.093775481033935 8.928139091405589 8.59068121206944
Pt 7.7272948267533454 9.070704726241472 6.54637645263174
Pt 9.871369535977522 7.268019967053249 6.615153919943851
Pt 7.36897248431133 6.6437133375803015 6.017406713103219
Pt 4.10792575743165 7.349536654585511 8.0700409640461
Pt 6.378032948319988 3.869257426421612 7.678475406099013
Pt 8.782929148299667 8.129097784029524 4.243936328017368
Pt 5.082527595057203 8.891028289493201 6.178437621140839
Pt 4.130916742581014 4.926686342635337 9.160444378841595
Pt 8.002021809795728 4.26061504163412 5.438891279780805
Pt 7.7135377350217755 5.736502023948351 3.195951043334333
Pt 5.101179019442011 5.659842960049554 6.434994765829971
Pt 6.193575914279221 7.76083857769351 4.045522879539375
Pt 9.997372314932303 5.72307011564756 4.488632751653435
Pt 3.7690985700445467 7.056068157710778 4.8204518957537825
Pt 2.401783015283905 5.871502949615042 6.80108760348905
Pt 5.527440588099813 3.650952202857208 4.962279819716981
Pt 3.710409751349707 3.488828916890342 6.975244538657967
Pt 5.1608769305715585 5.46848100775084 3.152456925464242
Pt 3.056598621037095 4.454948700588245 4.527468385063418
