21
Energy = -98.74053474 eV
Pt 4.613679703819122 7.268720691296908 7.461498984481024
Pt 6.0519451258549175 7.21241808801788 9.822796886713476
Pt 5.880895767574072 7.345283957144117 5.016043410250423
Pt 8.74988203413716 7.219382195198243 9.747939123577932
Pt 8.577708443737773 7.357511764629641 4.934374325156236
Pt 10.01828926649362 7.288626009027147 7.299358885131383
Pt 5.037383048063243 5.0804037013480805 6.058176729130242
Pt 5.127052013038402 5.0105496026287035 8.727403792079535
Pt 7.226504724742693 5.11144316478362 4.6046978730284644
Pt 7.415970372085778 4.958145404698944 10.026960436803423
Pt 9.517293847138976 5.104936377121772 5.904635807962476
Pt 9.613679206420954 5.022833208899149 8.580487422210402
Pt 5.019180963834437 9.53723820717802 6.173942100001842
Pt 5.111844525479578 9.46068801903032 8.83754547739204
Pt 7.217298665415328 9.605837345302163 4.737643682565304
Pt 7.401498920490519 9.456876090199518 10.140623009101924
Pt 9.512889195882531 9.54558682827314 6.04151714903216
Pt 9.604958628925154 9.478403972556716 8.711452894799788
Pt 7.313735883084291 9.853087602631982 7.448488670770941
Pt 7.317904401801901 7.280422128961868 7.380529085403992
Pt 7.328149805179564 4.706615089244739 7.309654304028478
