25
Energy = -119.50974883 eV
Pt 8.420242400025288 6.87675194427368 9.039430743792078
Pt 6.459070057949355 6.441506018437205 10.804361743041698
Pt 10.026920349128318 7.178558729748202 7.068281091204141
Pt 8.116859596296726 9.037580322699004 7.565994466268048
Pt 6.053946351304093 7.957333602832054 8.77633428407089
Pt 8.92981210412876 4.764150524629392 7.50666421649167
Pt 6.636273568843102 4.979727334720263 8.71802208803667
Pt 7.44897343559113 10.467379516201575 5.3976549888259235
Pt 8.366499328769263 8.092560555451175 5.204364460839593
Pt 4.310465879488295 6.098909528031836 9.31942163192903
Pt 9.144856565610556 5.721663606309767 5.143577280664882
Pt 5.623588366769531 9.640539847209284 6.937436345501816
Pt 3.615468017239438 8.249169423398113 7.892045101908138
Pt 8.877382722643635 3.1293126028100473 5.355386369225404
Pt 7.561941702314778 6.688806813692266 3.1766561147874723
Pt 6.744049196348322 3.2692264138085925 6.839152576997264
Pt 8.97328885601206 4.442788774077162 2.9156015245865183
Pt 5.9054062414734565 8.425441774245627 4.451741416929479
Pt 3.5683092193514008 9.561240039157967 5.45719910888541
Pt 3.9962242900261526 7.070615613116208 5.68586848304371
Pt 6.815427703665806 4.4142895211654345 4.411648371274169
Pt 2.7334112124472694 5.581595026378354 7.393273277013024
Pt 4.492661032162697 3.6721164234358104 8.112861737005883
Pt 4.646208378593847 4.646723880248452 5.74402308989407
Pt 5.0271443174202535 6.086443057526482 3.5774303813856525
