22
Energy = -102.33890143 eV
Pt 4.1632180732904205 5.638880292511845 7.955099357683324
Pt 6.687589843216507 4.840631603571482 8.431081349351471
Pt 7.207105319196471 2.8703671794738623 6.750845947482612
Pt 5.432954904826154 4.447557252458258 5.918729839166021
Pt 6.233123710888509 8.341699755120153 2.6751400365587497
Pt 6.884880810786077 6.667756166134198 6.377537668243145
Pt 8.733121403479268 4.83546065686549 6.543187760063777
Pt 8.19712336134125 7.61374248969591 4.2174029673832125
Pt 6.407400132445662 10.71856729819327 7.021553723761727
Pt 5.995474557937961 9.304916436561737 4.992349035379318
Pt 5.7891488407616665 6.271417644985759 4.054433508610191
Pt 4.5736356833023075 8.000602808604855 6.755565046216574
Pt 4.804800200197471 9.62610431626117 8.704429499346878
Pt 10.684218867542155 5.334086264036587 8.069956359067223
Pt 8.773909600337625 5.139597801968617 9.843830397983565
Pt 7.905134441727339 7.425321621176587 10.677728702904512
Pt 9.991066562974918 6.978618122678941 6.001522547917188
Pt 9.14136033283925 7.416357603987924 8.420045879201693
Pt 8.269947389974048 8.957425048903556 6.4754916164231355
Pt 5.921445032761428 7.229603346743524 9.027688338713771
Pt 7.462139359744375 9.346925477129664 8.99785453346202
Pt 3.584531908372513 6.140818286865873 5.364766264805531
