22
Energy = -102.74482166 eV
Pt 3.602518069885998 4.134486479607134 7.76122328622071
Pt 3.366572077640457 6.790991894535171 7.832351347427526
Pt 4.537834483939077 5.46937030955651 5.722546626306164
Pt 4.235439077095911 5.114232218849052 3.1585769396742958
Pt 5.803036628907729 3.2892484652821934 6.762090763174342
Pt 5.782245182733692 5.678756367716845 8.0264028012447
Pt 4.709280526641041 8.168385797146597 6.109713752167712
Pt 5.696527663929134 7.0311245979065395 3.9455339907420695
Pt 6.5109731194889475 4.588328627741676 4.245108183068649
Pt 8.038838339331289 2.6632426091732655 5.724970594310449
Pt 5.42104349682832 8.111071328062877 8.733530675247835
Pt 8.010408885479356 4.222245357126882 7.8408788913297816
Pt 8.662927492227238 3.480845991116115 3.3726067065610064
Pt 5.729075227506861 10.235480789780175 7.329436144245723
Pt 7.791121936003196 6.009148105967929 9.735641714323494
Pt 6.331106836335884 9.517937772418652 4.679661618848257
Pt 8.7525394337229 5.180808341556356 5.306524706799845
Pt 8.179040187704533 6.778830877678257 7.279446801567934
Pt 8.056800068752791 7.582752691757391 4.8508745031168115
Pt 7.876515319402607 8.558242976010641 9.26877272769016
Pt 8.087943469215418 9.37141448756408 6.6745339979661935
Pt 7.809139883122203 11.013981319340857 8.630500633860617
