22
Energy = -103.15652629 eV
Pt 7.192029663506317 9.453236754381056 8.627435798925308
Pt 8.770538500440772 8.14769958438136 4.555594954155523
Pt 7.548761853557791 4.219491830922353 6.340940027664611
Pt 9.357283920564221 6.171459327767397 6.189577972145241
Pt 3.5608370491409365 5.581486060224329 6.017707599600134
Pt 5.710759675196751 4.956567791423489 4.647888653979485
Pt 9.234335950288534 8.698154058074183 7.04397685840862
Pt 6.360193290448568 7.448714987905338 3.9279673525728884
Pt 3.8861650823826692 6.574597049668622 3.6595956486836743
Pt 4.3003287692271055 8.24334565264318 5.541686820556097
Pt 4.8406460601450005 9.687708769574753 7.617879077998954
Pt 3.8004952877697065 4.795621201539173 8.478858603845337
Pt 8.85238820460226 5.3054136528764255 8.61118791345338
Pt 5.0193184947404115 3.3769001318109577 6.639241525270738
Pt 10.926287262441665 6.944065231004608 8.075236287409574
Pt 8.200171180374529 5.511898885407134 4.018102032803392
Pt 6.797166181541406 6.955986402051281 9.086272327106673
Pt 6.691152930369556 6.715137616505392 6.536829519000204
Pt 9.13849385628156 7.990683845912184 9.585071160736103
Pt 6.385985978838955 4.462870390703872 8.674714513155683
Pt 4.445677308575255 7.1981794110939115 8.060886953228103
Pt 6.829615333515652 9.23914746394566 5.984549795893328
