25
Energy = -118.45192739 eV
Pt 7.007539763260787 6.384944016476674 3.973346975582595
Pt 9.547614508277762 5.973305544097577 3.6218990663284814
Pt 6.565849084366785 3.904688917242916 3.9386358056441257
Pt 6.230509219257394 8.906145007615187 3.6883408801878383
Pt 9.003963622665394 3.6443941133829223 4.513146916502306
Pt 8.770723708627983 8.454520131112977 4.009564307689247
Pt 5.207915336146577 7.425691083405409 5.582395515229257
Pt 8.937772570012033 6.681967800209969 5.973772137295764
Pt 5.803330576463781 4.879006881993321 6.141921765931785
Pt 6.081111733379844 10.093834249503757 5.898588785860406
Pt 8.449459786178195 4.360826743970922 6.863322591168967
Pt 8.518446801515577 9.382940145235171 6.443312452227341
Pt 6.009269109448586 11.121062621315074 8.208469852322681
Pt 8.352893903863034 10.1433445251174 8.909782413460647
Pt 7.055430557032912 7.5398950041393 7.445011717628991
Pt 4.481953653500995 8.979248780098771 7.677948359580886
Pt 4.391846809829415 6.30734017697044 7.776055008425999
Pt 9.39778505431582 7.638907951190626 8.426327158625257
Pt 6.222578486198035 8.96972578103732 9.662001017456578
Pt 6.648269962135197 5.234660876900482 8.570769940602853
Pt 4.091527563956665 7.556422610826344 9.98832707115822
Pt 8.600512520307717 8.311597967009757 10.771297256175652
Pt 9.165981818419148 5.171456500648241 9.180431281142669
Pt 6.356212927161988 6.5941859165998356 10.71466923615927
Pt 8.63490436092339 5.873290091144319 11.554065924857362
