24
Energy = -113.30356202 eV
Pt 3.9448651533568055 3.337246934155803 6.353120007970779
Pt 5.516198862683201 3.3650341761325433 8.485493214706464
Pt 3.2059753197159213 5.643832799470849 5.207828577107888
Pt 4.107080104202148 5.45620522472641 7.89236309261081
Pt 4.876125278647314 3.99752689502029 3.99918205898274
Pt 6.509757391049866 3.4508072734538673 6.051474432825791
Pt 2.775779708054313 7.582872322921421 7.06494058398007
Pt 6.117775813276157 5.628032015891249 9.64508352892757
Pt 7.378131857510553 4.842251593610141 3.818127419726143
Pt 5.331061608917914 6.554112917457045 3.6534595669145924
Pt 3.4742061068630163 8.262598023012227 4.5184151051971355
Pt 5.263823870863536 7.027463971043275 6.213437540643746
Pt 7.985095979487479 4.35439424889207 8.27464397597128
Pt 9.124093700133427 3.782201939796343 5.867685470561907
Pt 4.4580764883751485 9.627702591924225 6.64293059940576
Pt 7.412643791242588 5.859004667530372 6.128527364400529
Pt 5.223637589415113 7.894653300190827 8.591653245875102
Pt 7.843804752355052 7.449416324660635 3.2782043341790965
Pt 7.791145276465869 7.163080287552322 8.331887129943746
Pt 6.208211171759842 8.890145617596096 4.766978935044748
Pt 9.691543874646122 6.03389353483988 4.54023802178147
Pt 9.916228692764527 5.966846256880692 7.2433522800175165
Pt 6.988790076071658 9.508920755375973 7.330175965449316
Pt 8.583217232538532 8.077326467965408 5.832686229953181
