25
Energy = -118.76117575 eV
Pt 10.119961567098342 10.524255109286479 8.893784793480009
Pt 3.4992341870198955 6.148917805060581 6.337624218345725
Pt 8.593714436508924 3.8837509625677686 6.634233453335671
Pt 4.603418513748748 7.069238992516355 8.601236649737924
Pt 10.61680537389786 6.87423142529427 7.041917483335285
Pt 6.065147909187298 3.9117394121899864 5.831076102292353
Pt 6.505780937202703 9.547567798557377 6.858480053901346
Pt 10.455212784794366 5.117326019793928 5.198645160213519
Pt 5.680371429224612 5.48513547433121 10.362012356861564
Pt 7.022149068025139 7.485989782183385 9.478641486786731
Pt 5.167707607994148 9.530573570237651 9.035242585996208
Pt 7.921509535858542 9.650920232052545 4.725901726354185
Pt 3.5853511219485603 3.607328513699153 6.187344534281663
Pt 4.146553221129776 4.503393376949775 8.487141007053914
Pt 5.548975416233484 6.344415541792446 4.945800510510515
Pt 7.898239139489949 5.429096112828251 4.754311615417646
Pt 9.363339479413073 7.542229584323175 4.8696776364909615
Pt 9.176098575553452 9.175523715842736 6.921622277331401
Pt 7.249367017202321 7.478275039956386 3.3222841533482472
Pt 7.664860842354175 9.985635076960367 9.153047353108029
Pt 6.6436551794746475 4.291911573664172 8.306420149584678
Pt 9.665153651095178 8.004201130329948 9.210658378325318
Pt 8.614802535455336 5.887358878922077 8.237770152393619
Pt 5.379357688961151 8.838534987218328 4.674190940436301
Pt 3.8701643423687235 8.664116728384869 6.748756166971889
