28
Energy = -132.72823969 eV
Pt 7.3486176999629995 5.842637891243774 3.7596157492352305
Pt 9.220505463306937 4.691290163924849 5.4620730831504565
Pt 7.129137207973872 3.3852424092597264 4.628095107965739
Pt 5.018121135685157 7.102242315454772 2.8910389662873577
Pt 5.0271414511308885 4.440010714921979 3.4731181344171125
Pt 6.9752530530722385 8.437949376322276 3.9859701409438775
Pt 8.952746612024862 7.395504649861307 5.333398323166526
Pt 7.348658698778034 3.4531692534209655 7.255449391319833
Pt 10.768910538328678 6.284327556546813 6.958935891084526
Pt 9.866323384589446 3.9051471628868915 8.074130588598106
Pt 6.10011405498865 6.215393589016753 5.969629690038318
Pt 8.09844834567799 5.9239742953850465 7.456304623244704
Pt 2.7974668692310862 5.5761835245060505 2.5823231197840304
Pt 6.802237371914419 8.654371196709361 6.6535722779132485
Pt 4.630224959268699 8.713259241361753 5.147653676503197
Pt 3.771662690483149 6.1908392227561135 5.035972826203194
Pt 7.645053401439918 4.566035343359562 9.662747400251929
Pt 9.800585028575586 6.1775075485910245 9.508705050387944
Pt 4.99580076793929 3.729964599914183 6.151334742648055
Pt 9.085863348960753 8.269579643294271 7.92379116984262
Pt 5.353375310589136 5.013776488283762 8.512637259727734
Pt 4.553106354285109 7.499044312215295 7.753799651747581
Pt 2.5064962505285937 8.142186469849989 3.5870353573692513
Pt 2.706860254452621 3.8305112979767935 4.823213598750606
Pt 6.77507292855281 7.301851546506078 9.110520404169412
Pt 1.1508736433789026 6.070134997527036 4.689601230111737
Pt 2.365184529079884 7.896291406983566 6.335525045607112
Pt 3.0599972100979946 5.254421548764206 7.293502435319866
