29
Energy = -136.32444228 eV
Pt 6.674597358254917 6.678406188628764 4.304562623500066
Pt 8.216885296482724 9.317935945542771 7.953162134625275
Pt 6.674597358254917 6.678406188628764 9.052249753757467
Pt 3.62111135729056 6.678406188628764 7.955736918452277
Pt 3.65177539298536 9.061825477938834 6.678406188628764
Pt 6.1305642738639445 10.471175139999996 6.678406188628764
Pt 5.327354773878857 8.980658394968007 8.98297024639235
Pt 7.774169031305349 4.813683099743071 3.028475564720073
Pt 9.362558089537941 6.678406188628764 4.385484465121864
Pt 8.216885296482724 4.038876431714761 5.403650242632249
Pt 5.327354773878857 4.376153982289667 4.373842130865179
Pt 4.499015782300983 6.678406188628764 3.015798997722317
Pt 7.774169031305349 8.543129277514455 3.028475564720073
Pt 8.216885296482724 9.317935945542771 5.403650242632249
Pt 8.119931225227852 6.678406188628764 6.678406188628764
Pt 5.943050837270795 5.415243657343919 6.678406188628764
Pt 3.62111135729056 6.678406188628764 5.4010754588052565
Pt 5.327354773878857 8.980658394968007 4.373842130865179
Pt 5.943050837270795 7.941568719913613 6.678406188628764
Pt 5.327354773878857 4.376153982289667 8.98297024639235
Pt 8.216885296482724 4.038876431714761 7.953162134625275
Pt 3.65177539298536 4.294986899318685 6.678406188628764
Pt 6.1305642738639445 2.885637237257528 6.678406188628764
Pt 10.257432827603564 8.077409934033277 6.678406188628764
Pt 10.257432827603564 5.2794024432242495 6.678406188628764
Pt 9.362558089537941 6.678406188628764 8.97132791213566
Pt 7.774169031305349 8.543129277514455 10.32833681253746
Pt 7.774169031305349 4.813683099743071 10.32833681253746
Pt 4.499015782300983 6.678406188628764 10.34101337953521
