21
Energy = -96.60407276 eV
Pt 8.30105298711438 5.2843921169571875 6.947839034113692
Pt 5.331524130866108 7.682028836654121 5.526119774916046
Pt 6.7870819801664 3.20785979031937 6.613162139756944
Pt 6.5169040781760055 9.160339173156347 7.205198549848061
Pt 4.340696251308595 5.819688937671241 3.958836957507108
Pt 4.978273827870457 7.243122915622563 8.051641464645988
Pt 8.89901878852693 6.240282957190834 3.6589102291561675
Pt 7.739564652674134 10.806652820597561 8.731065072469951
Pt 3.076596943379082 6.536333526129199 6.289420451212599
Pt 6.206407456200298 4.964386434319413 8.574239664023214
Pt 6.847100779057226 5.122135493406254 4.825290505018123
Pt 8.522823028823078 8.908374209304892 10.154390331474904
Pt 7.59071397466478 7.132050368287196 8.601971024233428
Pt 10.016015720219963 6.808611996726581 5.986469716825489
Pt 6.433230068649305 7.163433930868893 3.199059449210806
Pt 9.915041937443792 8.153887669636823 8.115532750052227
Pt 4.623367438023026 4.519207544446003 6.1468907833743565
Pt 8.933973946007121 9.984200394750323 6.633148145590319
Pt 4.7083506432343345 2.808762444167285 8.154534623644933
Pt 7.943165482822692 8.10777382856904 5.1576116675078785
Pt 3.5153892499452675 5.115748734506672 8.513962428493125
