24
Energy = -114.3029333 eV
Pt 8.452206468491172 3.3913375812562627 6.774534764741608
Pt 8.587228903735522 5.945924517742428 7.30336771724141
Pt 7.8470940012711665 4.279753718033832 9.253769223543621
Pt 8.677251195628765 7.601316940266483 5.252338515140423
Pt 8.234413955655866 5.071828006966941 4.792869154532066
Pt 9.015790545732 10.154103570037348 5.857236811114566
Pt 7.666023284269569 9.432176863558063 3.628200352769762
Pt 8.381616294604887 8.53628260838858 7.73880095873592
Pt 7.65819709197924 6.811850964663234 2.9570642423748272
Pt 7.66109715355431 6.909619377615948 9.569578553840193
Pt 6.615207960032835 2.8740136447424702 4.936774293912869
Pt 6.017053002192915 3.657621934379466 7.4234820374597605
Pt 5.488168251936458 5.53219339977693 9.188949557618287
Pt 4.242302643520817 3.7898604250944916 5.466318867658776
Pt 5.6571441034580205 7.8610698106147385 4.208274801912555
Pt 5.74079051350061 5.08139736579481 3.714027263185015
Pt 6.0945576754187565 6.1008150824566085 6.184947868540834
Pt 3.5809870310871075 4.068972067443475 8.152302335092367
Pt 5.76818307962278 7.991665422863212 8.049641031182508
Pt 6.505887810248124 9.577831615730101 6.043464187779915
Pt 3.6344196368571655 6.565261573591493 7.532346834600808
Pt 1.9964288210882184 4.899965498965338 6.230056702684706
Pt 4.087025315532588 8.724956019555142 6.1326497627845145
Pt 3.680036718193348 6.376818941817806 4.863776619621854
