24
Energy = -113.31427546 eV
Pt 9.366121960968094 5.0604267698917 9.078493695376874
Pt 9.022822032158347 6.654099772763985 7.207680991192894
Pt 9.077183768431663 7.246242941580429 4.638633539591353
Pt 7.182666884760477 6.3423717080155395 9.863451558544368
Pt 8.963980766799176 3.141751633319309 7.361619334984035
Pt 8.467141376856596 4.807147835153749 5.465170890242323
Pt 8.444596559972135 8.43543959334911 8.945225737498477
Pt 6.880857594649635 4.46682863698217 8.106118210981649
Pt 6.450763952901315 6.551846165146451 5.954542079941917
Pt 7.137377705561686 5.832048269176788 3.449797765163173
Pt 7.781994770663266 8.869908086525415 6.384973894427153
Pt 6.639887518416873 2.919829124103014 6.061386871566198
Pt 6.968005537753924 8.558118045529069 3.906557272571863
Pt 4.820837357077963 5.763890268204781 9.049278010567608
Pt 5.922325039492439 8.038084612230312 8.157305043343488
Pt 5.220558878668342 4.625988656454463 4.674740002488773
Pt 4.4747088553092516 3.926783512872982 7.122952512065423
Pt 5.529853259499229 7.287879571496351 2.044322158826826
Pt 5.142645669726881 9.028796071342667 5.827291812277765
Pt 3.8654672549892535 7.0385292328014275 6.861343077315796
Pt 4.095232535356771 6.936525959707321 4.148102351635334
Pt 2.438513077251127 5.227006373321527 8.071966914894512
Pt 4.5600218344129555 9.389602864284576 3.318792053161019
Pt 2.7354999362092194 5.150362614606977 5.432077916341826
