26
Energy = -120.30616739 eV
Pt 4.180863722014864 5.538643311304391 4.8610329948945035
Pt 6.152748516820633 7.050623223107545 3.255009795700501
Pt 3.7658399112944796 6.963057540577544 7.255413547558904
Pt 4.180060865738602 8.495276809381787 4.918763298821272
Pt 5.325377840972879 4.541161823280549 7.0731312842638525
Pt 6.874528454444555 4.695906220953661 4.6563273079363805
Pt 7.653059583033452 3.2174122831707437 6.939562360741331
Pt 9.627266582077088 4.70377588988357 5.305470111130356
Pt 9.836602293644445 4.717847208560591 8.268819086860539
Pt 7.249264945881976 4.661025860417426 9.284633731651503
Pt 7.964068780984113 5.71817472796583 6.910718168988505
Pt 8.57329578521872 7.003670135369253 4.413414552312231
Pt 6.229272506927928 6.980196422537538 8.352620781201447
Pt 4.5899080679000654 5.440532138930895 9.4903029655347
Pt 6.0247030608409124 7.002111630529616 5.773182062026931
Pt 5.278899049587042 9.423181056358565 7.181210618813837
Pt 6.822894556478328 9.338474341823622 4.6890407068597115
Pt 4.531519635009705 8.40930365104619 9.551758813987567
Pt 7.934985005844393 8.305929198654635 6.925626461236197
Pt 9.54144825901249 9.347391702464634 5.284917997778009
Pt 7.1978685547666625 9.308203563365796 9.320267275769123
Pt 7.565842954311607 10.799445443643211 6.93280838987796
Pt 9.808299630468833 9.366237805511325 8.242232353525205
Pt 6.772793033561245 6.934468586927292 10.812029544086075
Pt 8.970076639398108 7.041360175477198 9.284896244940015
Pt 10.309977696831174 7.040742374114451 6.724259876372684
