28
Energy = -132.63179416 eV
Pt 6.029488881263625 8.685661289753812 9.868507573706118
Pt 7.335504023484264 7.337719975642487 6.404821813597116
Pt 7.2175029017979835 5.08226517165792 5.127116941956504
Pt 8.734652335232363 5.070901860416819 7.2665112306405115
Pt 5.919577690247899 6.943826285177698 3.5821100202276774
Pt 12.137555741242425 10.295528545266647 13.541469781318058
Pt 8.496772879005757 6.783173163889339 3.371029563078677
Pt 4.669521047726701 5.926791854204953 5.568540344000021
Pt 10.078281057760998 10.044295009627866 7.061062457260362
Pt 9.455025407580873 8.332401596846777 5.2243054775631785
Pt 10.054191790704822 5.774194992446606 5.19993973826913
Pt 9.609641001029654 7.215172342003618 11.019373757130218
Pt 6.0794698961479625 5.033811682965422 7.601279685687781
Pt 5.276063482145583 6.0431069771454204 9.922797218539685
Pt 7.026759830039678 7.042876648108984 11.602542842888033
Pt 10.717833056350246 9.27068344616422 11.995712628809292
Pt 8.223884619968572 9.493120689647052 11.314765292318679
Pt 10.387074324978649 7.3694344835792265 7.535816519774999
Pt 5.426155000702609 10.069652251272412 7.734041745612545
Pt 4.950017136159416 7.453123268099629 7.737989427928591
Pt 5.30428849118109 8.700717328328428 5.471443482180486
Pt 7.76863813993609 5.300478570310437 9.682516464525524
Pt 8.145052190516534 7.688263775860514 8.82609728207641
Pt 10.387149658620269 9.306365721673036 9.483388186180902
Pt 7.580529709446103 10.002851020504345 6.1386176565568045
Pt 7.931114792919107 10.243495112952543 8.702151555453124
Pt 7.323310457651369 9.13451597410097 3.6353222392739672
Pt 10.368260988005261 5.452204775719146 9.31197762078172
