22
Energy = -103.09676307 eV
Pt 5.834808887192342 4.183147239982092 8.54248497821853
Pt 7.395079465633954 10.273451523343093 7.028936905559643
Pt 6.3167689659497075 4.283062466433665 5.922024557835075
Pt 3.8563712701005715 4.132104320250097 6.848519457352916
Pt 2.2351386811239102 6.257881887262777 6.760110169140137
Pt 8.252521810093873 8.912843500145758 4.893439628028385
Pt 5.639619973862914 8.677318693176296 8.37374870423289
Pt 11.723964472892856 7.383255904591947 7.210613758073202
Pt 5.807513225199664 8.657293484158028 5.578216699758861
Pt 8.093380071415675 8.791195803678702 9.06820887180553
Pt 4.618118839810359 6.324715935509419 5.603602346096745
Pt 8.250054981845606 4.496933221269574 7.870579152711847
Pt 9.500585088199479 6.760299448655374 8.453730041076874
Pt 6.946325183788268 6.491697427771506 9.040475542142623
Pt 8.764091497314629 4.422467409065286 5.232484097594711
Pt 7.1346646062400705 6.540834782324898 4.925087214007775
Pt 4.425942157061311 6.376125927682413 8.244361826720027
Pt 9.58705824058781 6.880720291243704 5.725131529682811
Pt 9.790520045151686 9.149328090620646 7.091388882935167
Pt 4.815451650012741 10.741271412877486 6.919142396652878
Pt 3.5063773393167224 8.530565449225504 6.818750324335352
Pt 10.679721837747406 4.907564114234958 7.023041292501803
