26
Energy = -123.72418621 eV
Pt 7.152066207735256 8.3917004916902 3.652536403175459
Pt 6.33866822653597 4.167651732096745 2.78580005082391
Pt 8.008203717796901 5.9039131388476145 3.5775212952008046
Pt 9.827009396149059 7.332572707847305 4.654267314389325
Pt 8.07414269862442 8.421791710608844 6.061332889840303
Pt 6.124288573163243 6.659459878368129 5.22958675238793
Pt 8.662819119859154 3.3785790230004222 3.8034202286642596
Pt 5.418043554557903 9.085464117533693 5.615767556979659
Pt 4.39076514177064 4.975123673879208 4.2738323590518705
Pt 4.867245645438262 11.19039592756782 7.000101211934447
Pt 6.964366638466718 10.058160705618448 7.789375777738781
Pt 9.683349454087493 5.022110047924816 5.602694190903553
Pt 3.556868109192678 7.029190601562693 5.660758447988619
Pt 9.078247126300619 8.849323796273898 8.356964893929831
Pt 3.5764105422320918 9.103100524223029 7.535414677689943
Pt 6.459354520650423 3.7833886348369012 5.378505984846669
Pt 8.64210702069496 2.7839483739235784 6.405137298175955
Pt 1.4974122491344823 7.692389764405768 7.024568427331631
Pt 8.889089602418276 4.948443353057441 7.92287183177947
Pt 4.786705147196001 5.069444340081013 6.920410911440315
Pt 5.728005018898091 7.95031629731829 8.403243054384467
Pt 7.878468266372996 6.873667945869485 9.251623360315218
Pt 3.397276472559519 6.668717295077998 8.482236985381753
Pt 6.705743491957802 3.6454264036725688 7.9652839270361735
Pt 5.511529161157788 5.516639246897907 9.393759282371745
Pt 7.785425299714633 4.502690670481415 10.256595288902673
