21
Energy = -97.31802861 eV
Pt 10.589738755714485 5.8316020758302285 5.263447078015403
Pt 9.486984759917753 9.11430515908539 6.960966211753709
Pt 10.09781578849816 8.493981076321528 4.554191814594622
Pt 5.830400772926704 7.619285765418489 5.214566311079177
Pt 8.78723933758815 8.192906052325911 9.29696891631908
Pt 5.439056944984475 10.150064548706455 6.035804427996053
Pt 2.953633244478123 5.999242356325304 7.689689529130131
Pt 4.992716075379197 3.052988901598017 6.61327965181998
Pt 5.136858520074977 4.905361378861786 8.265382902698049
Pt 7.149164699676723 3.3153907856134097 8.041998626784917
Pt 7.343396169963636 6.208616438178664 8.277034185815653
Pt 6.907357652283357 8.78140951377989 7.658909764885126
Pt 3.8651137601665924 5.977597515537418 5.257967632131351
Pt 7.7349226711759504 9.430953893897913 5.0474688835788575
Pt 3.8277912775828455 8.310422523411606 6.7694578695729035
Pt 8.673221799942153 4.524601447065052 6.442030334172175
Pt 5.017630047687685 7.407789663193569 8.821008019044315
Pt 8.211718657093003 6.748730292519548 4.9067034433664025
Pt 9.844180666559689 6.703429625943349 7.484431093715125
Pt 2.657301386589863 3.891794101897885 6.130833709713386
Pt 6.258246214455607 5.132500653127333 5.641095356259534
