26
Energy = -125.46460701 eV
Pt 8.631560941510937 8.353972893649122 6.065818518952952
Pt 9.602991620255336 6.33419701547246 4.6045832851946695
Pt 8.715221674144646 5.944076840216756 7.006044120937107
Pt 7.918139921649975 8.195429362980141 3.5425454995208527
Pt 8.681953231749109 7.9970799195869455 8.66197887891742
Pt 7.022442599562611 9.783310730399009 7.605726251351496
Pt 6.152705712772687 8.654744566488805 5.4003046860903385
Pt 7.360258090997818 5.7736753932872515 9.186169350369301
Pt 7.327059231615937 5.675559863200041 3.549801055326226
Pt 8.619323514858834 3.9656677582046833 5.348535389993053
Pt 6.197832871446175 8.108275586937635 9.465218815613785
Pt 5.365540287607946 7.5248716778182345 3.1835825233078485
Pt 8.24306081943382 3.5797876967603313 7.996990643893313
Pt 6.195964974550315 5.998092731061173 5.9074186485751525
Pt 6.60558489071601 3.2189928101106777 3.828684340179745
Pt 4.596420405282149 8.55199348421765 7.432273087556983
Pt 5.737839650797701 3.740211156073968 8.909231765919415
Pt 3.8225734037279997 5.964687820109047 4.613949656411747
Pt 4.933035541923364 6.142056366594161 8.294841716572408
Pt 6.191483642102548 3.3875237035689163 6.375899103205789
Pt 3.5734211671682945 8.505764524836408 4.983365115853091
Pt 4.158971132946187 3.452220708148864 4.730628045712777
Pt 5.011019277022713 4.975216982654373 2.5564845106405327
Pt 2.8155678222135774 6.675020380380176 6.839127176803222
Pt 3.706731487501674 4.061186909866223 7.35238127588366
Pt 1.8771445561584033 4.494417661864591 5.587766082898542
