27
Energy = -130.04765281 eV
Pt 2.884542192533864 6.184261227252495 8.557948221705427
Pt 2.239662032470595 4.131318856311383 7.185405696338694
Pt 3.5652041726824493 8.235842409229214 9.858326230568567
Pt 4.193887969536225 3.586219378518816 5.413877413617529
Pt 3.654170418564915 8.527806392319652 7.159688341610052
Pt 4.7382136746651735 4.371337236102889 7.921033983447851
Pt 5.295405559090686 6.184677219635355 9.801120775837024
Pt 3.4981091833042703 6.095440778898019 5.98994508055386
Pt 5.802587646021722 8.366156375502841 8.494604501117827
Pt 7.2710724686489785 4.898562488978774 8.368201516546003
Pt 6.556951630150162 3.2043506253488387 6.4639286289017255
Pt 4.930507661151137 7.920659122402739 4.91765700900175
Pt 4.934073374333427 5.529443353087187 3.815773243712394
Pt 7.23937510630806 5.0003448496344385 4.73959812623593
Pt 6.232697367204553 6.50093770608502 6.645486661270923
Pt 6.905054762163521 7.268443813649471 3.3758546305019927
Pt 6.244611958392463 9.846769772147914 3.6215740710892703
Pt 5.999592528023104 9.777489135332747 6.286426511564652
Pt 7.790019069662593 7.0917038055585815 9.638233623053974
Pt 8.970548511526005 4.09631269415358 6.5001515554748535
Pt 9.564257798771745 6.326471109189368 7.929706779907658
Pt 8.071469226498404 8.356434213383308 7.294022756632265
Pt 9.80404812122474 4.2013519620346305 4.040292907223196
Pt 9.20486297608401 6.699063848037675 4.482898480580661
Pt 8.35895257611277 9.129342227771144 4.835895955182317
Pt 11.040380198158907 5.621904578001338 5.939613434654674
Pt 10.440776771033512 8.278389775749186 6.15376881798599
