20
Energy = -91.30762239 eV
Pt 7.101715691711235 8.534311145651401 2.76118080071184
Pt 8.541697432273478 6.3561380423568465 3.2903006022633385
Pt 4.746512385309427 8.844788792032581 4.048610681087236
Pt 8.599938016888727 9.826424511342134 4.276856355144028
Pt 8.937287391667267 7.621444977902628 5.492864473664961
Pt 6.343771038853808 6.85546062530385 4.663578530166573
Pt 8.154242923476122 5.050569235147278 5.493169932696585
Pt 6.577920478909159 9.33668660723484 5.776663246490663
Pt 3.973502092432754 7.15919736861924 5.8448175605885435
Pt 5.66423751362088 5.185965356005273 6.491505078738289
Pt 8.05412985062586 8.595683354987216 7.773679182781926
Pt 3.3436798292217076 5.484137697991589 7.692036683119682
Pt 7.355135850547633 3.343402295601057 7.233730852504019
Pt 4.929385209691493 3.415243852134391 8.257037831589596
Pt 5.341126323756969 8.272132810572394 7.696455901982824
Pt 9.188227266616376 6.167200237255422 7.6612329084451884
Pt 6.871126601023089 6.480013325825593 8.728401563545285
Pt 4.357532528205001 6.761700871378945 9.596785889715077
Pt 8.332763307021342 4.337589634031408 9.323597997910372
Pt 5.872148828991961 4.6579898194704965 10.183574487698547
