20
Energy = -91.63583568 eV
Pt 5.512024903010943 9.702078458218285 9.258674002963161
Pt 6.906376242047686 4.692089764533471 5.784953787932245
Pt 6.205957235346741 9.454722565283223 4.870483502914176
Pt 4.841180559847753 7.480382999758715 8.082875353480842
Pt 7.704337630824644 3.566918145579686 9.732843332667883
Pt 4.581358999189696 5.2461983029727435 6.8180911909614075
Pt 6.130879936888378 5.494860990681154 8.97151132964093
Pt 4.544460979169145 9.819174707505448 6.844048827089563
Pt 4.930516778943182 8.145092683426661 3.0994528492221
Pt 8.35881296462281 8.361014429412572 5.961440431346345
Pt 7.383032859916547 7.912997430175763 8.498050838604458
Pt 9.902000749030337 7.8506788958372855 8.039208085984825
Pt 4.414599028892023 7.433888845380866 5.515171004687549
Pt 8.60137752223513 3.4782315719408956 7.279319524824445
Pt 9.120092405184616 5.878295012737055 6.325941501615922
Pt 9.160276935303457 6.888445986117425 4.008992119314603
Pt 7.086461306888871 10.213568101196588 7.203540890654392
Pt 6.655295819765376 6.783192456609615 4.406609686026147
Pt 5.971933072997651 3.201136311306595 7.683844100767419
Pt 8.800098270316242 5.718756145451346 8.894020319518603
