28
Energy = -135.38563594 eV
Pt 6.249602515239596 9.411623794209959 9.822414101369642
Pt 4.961154931266617 7.228329961196273 10.00613107170541
Pt 5.028743441413181 8.448563938682188 7.610469793014945
Pt 7.52233333591394 7.172217435047271 9.301342465217754
Pt 7.377160817639801 9.70636879472005 7.501183684144347
Pt 3.7040464126288217 5.004223824374616 10.140966138957246
Pt 3.711278820920108 6.163229291229167 7.778127335925876
Pt 4.143604942414445 7.253724960547996 5.474742602365215
Pt 6.130087987578127 9.051795944406216 5.31165108602158
Pt 8.82959252026063 7.655279963597243 7.136286615340352
Pt 8.824347126603103 9.729307244139488 5.370560303299157
Pt 6.123986837841618 4.918347724262181 9.112400370355896
Pt 6.405986345510509 6.3426351144535404 6.5881144336971715
Pt 4.136462495787537 3.520361194079831 8.031506045753238
Pt 3.639474884491107 4.656157617969182 5.69191133885963
Pt 5.083184502217674 8.09051491279136 3.0783224583801654
Pt 8.39986438537284 5.1123318354618466 7.913682449804779
Pt 7.651960485820656 8.735588743766527 3.241886583653303
Pt 11.032351799369103 8.354279559316469 5.927969196425109
Pt 4.552100102735235 2.196462609152604 5.862522125314327
Pt 4.246540093870936 5.677475333059188 3.320019925557417
Pt 6.846357224101345 6.267882685388612 3.798107090662151
Pt 6.57647771099183 3.57504560943802 6.873864931477441
Pt 9.200294692296762 7.087763199388704 4.527787684873362
Pt 10.43642672087829 5.744473929448039 6.349017999735274
Pt 3.6296039948644916 3.184559318593596 3.5066451274991355
Pt 6.017848817611187 3.8447212495096643 4.29979059878325
Pt 8.306132457530309 4.632438947768067 5.177494069278565
