24
Energy = -112.13635884 eV
Pt 9.060226307452131 5.04688386174083 10.61945409283143
Pt 9.132751735878049 6.792227682113984 8.675790021657084
Pt 9.524983899585607 2.533197121725656 6.862120702310531
Pt 6.1291036758654975 9.919800649159667 3.227139120481911
Pt 7.323998252636723 8.23619708446815 10.17620420838872
Pt 5.8145123185775285 7.416956245335749 3.693086389055107
Pt 4.034988479819619 5.233507564476811 6.521889846748265
Pt 8.81136134559169 6.821098083252475 6.1250612887782685
Pt 8.137636467187114 5.977575939601671 3.686124334073133
Pt 5.920731941803062 5.032166888090335 4.6588436784409915
Pt 9.409191634811007 9.275470999030484 9.198839245750095
Pt 4.587903855982536 7.69585434194305 6.030503070691488
Pt 7.935918241692323 8.567071680933315 4.454963156642946
Pt 4.113058622288227 5.7185795845764025 2.9006314698832205
Pt 8.283835407503034 4.202489918574976 5.585395452809334
Pt 5.935414967663824 9.853862299297846 5.773720944624357
Pt 6.542275082251767 5.862868363075679 7.021370856944153
Pt 6.739015612044516 5.622126682826784 9.752416028646014
Pt 8.486164361724757 4.358421701929526 8.235556337584708
Pt 6.033060752234381 8.508639089040997 8.016670304224613
Pt 2.6684267949302973 6.471298592604116 4.760571836106263
Pt 8.247778487039762 9.252846413741743 6.970073059753167
Pt 5.19264771486552 7.231059092850672 11.093148991786506
Pt 4.506268360354703 6.547613796365453 8.753981972609743
