25
Energy = -119.48678274 eV
Pt 7.014953403682863 7.243672953859112 9.175808342481389
Pt 6.855125456739444 9.727247784439909 9.7216987815075
Pt 8.80231487006047 6.32140621955389 7.4189514969130155
Pt 4.2852078258012 7.494804085233459 8.611255342504622
Pt 8.294134163151385 9.07865727504719 7.703735351545582
Pt 7.1044020667876175 4.677197359155272 8.472153602769875
Pt 5.0756983761753816 3.0876222621152145 9.067258488973406
Pt 9.607218184734915 8.100554117813267 5.664343785524429
Pt 5.7057243837807174 9.585034486925917 7.471798097871537
Pt 5.188056358624854 5.577176452215873 10.021428313127394
Pt 10.128332234556495 5.537330544762053 5.223997364321898
Pt 6.3977005365279345 6.676165015905342 6.5706074500508755
Pt 7.157548666305464 8.837745394828389 5.238770837610825
Pt 8.048354035735366 6.66765477319571 4.071202065154908
Pt 8.052073913943216 4.158584916565591 6.050789007823467
Pt 5.759475961054647 3.057877766081181 6.585214595585736
Pt 4.297073291244385 5.068930203372199 7.452893695898299
Pt 4.66335428197683 9.527046478874595 5.111479223267857
Pt 3.944878761451707 7.157171210613 5.948185108829636
Pt 3.1465377057511583 9.378624445765707 7.276297842966595
Pt 5.496879854931231 7.412337257608195 3.7022638957442195
Pt 5.042908995649025 5.03319433709412 4.885740393452753
Pt 6.439732304681952 5.217058035196892 2.6731655029337404
Pt 6.518017728309885 2.9588603880859683 4.168043854063387
Pt 8.742185918926301 4.185935516276263 3.480806839661782
