23
Energy = -108.00632049 eV
Pt 8.166890003582568 10.557178019870058 5.2051317060437405
Pt 6.510351938919222 8.525595101674426 4.734099444914306
Pt 6.824061818536537 5.3536754016109365 9.135051499492663
Pt 4.736617921571959 6.7573436206140505 9.523073527383719
Pt 7.497910052746833 2.178712808857405 5.596126325263255
Pt 4.047901291140176 5.622102442086636 7.322722200974627
Pt 8.996022813422547 6.2939381421474865 8.029008650193767
Pt 5.098437359530995 6.383920684924398 4.445351890135023
Pt 8.3661678959812 4.491153998072453 6.28362941631111
Pt 7.7528947844606515 6.08842336710463 4.185314118077525
Pt 9.0867692919786 8.340689057720448 4.113668015883919
Pt 10.007436723308965 6.438914480021099 5.597696765347923
Pt 2.6708402136038485 7.7030395239396885 8.255249226594376
Pt 8.688448306200819 8.509995894626222 6.75595129199753
Pt 7.032990915910794 8.003366317546119 8.860619526660482
Pt 3.624896966559937 4.35348882445309 5.114867803169481
Pt 7.451634921439245 3.08194885967999 8.208241426593826
Pt 6.552305492742696 6.589779191433582 6.712209984739465
Pt 6.472994641055295 9.945123469894448 7.023705246982613
Pt 4.44919255758702 8.149288193656291 6.329870183428749
Pt 6.246855374083584 4.013420419285246 4.224234366646026
Pt 5.514359157951729 3.625314873128285 6.6764658074060925
Pt 4.713591453201174 9.295679626115845 8.732704005697329
