24
Energy = -113.6191789 eV
Pt 9.412892698841409 6.618155109381875 4.086951857515053
Pt 7.03540705821199 5.916889386332127 9.788276965172074
Pt 4.462078998054661 6.099883339996005 3.6906611659695754
Pt 5.6014076302287465 8.214667909884302 9.947519527008378
Pt 7.31262508336642 8.162024430352748 5.143075514003175
Pt 7.589322571513112 9.756592008171454 9.300556048833966
Pt 4.424274376233721 5.960512580379476 6.251823913910099
Pt 6.518372413940991 4.97880878927697 7.4189802555067415
Pt 10.699706861376852 5.354500111205496 6.050160155218587
Pt 7.0005454418607345 7.670594644260719 7.711287285837329
Pt 7.116798371668097 10.220690932275502 6.76792967420008
Pt 5.817808214565984 4.097614915208508 5.00891476731161
Pt 9.550671938884138 9.936899457703925 7.4975802244610925
Pt 4.563730810940792 5.970893018238009 8.858280669196395
Pt 4.682721099249049 10.429381105240028 6.28222584964699
Pt 9.449133446801492 5.844892977719548 10.648862696470811
Pt 8.29387664717323 4.582581101225835 5.64186209769772
Pt 4.7449108196715795 8.325294270681958 4.915066993745186
Pt 9.476989220991607 7.824000371046862 9.039726046294197
Pt 6.988150595504999 6.05160585715909 3.7573694629112047
Pt 9.099246252017359 5.235784522354634 8.107160728727234
Pt 9.61005176913996 7.626369917376564 6.458403182830862
Pt 7.9570539701803815 8.011358966959639 11.233310087470594
Pt 4.430339568000748 8.26285167409754 7.621622133478363
