20
Energy = -92.15397448 eV
Pt 2.7060272373682177 6.948846234722935 5.088426741589306
Pt 8.083610900437403 4.427648876082975 5.7812265892559696
Pt 6.97188638721955 9.465987640114548 5.82926464675618
Pt 5.156188468445163 5.952128494960995 5.283978520826882
Pt 6.7415646510131895 8.692667663556318 3.3524595396986
Pt 5.741291859413012 3.579993414557182 6.043529288017135
Pt 7.48459358112099 5.993429822496542 9.64737064491003
Pt 4.978955696004077 6.96798948760494 9.661885962614468
Pt 10.648765103462074 7.413514006110546 8.397433178843627
Pt 5.516726290275647 4.923090176294296 8.204573293999557
Pt 5.151376541477947 8.285207180975734 7.462162349006908
Pt 4.749732933916688 8.42568050539971 4.885982181444574
Pt 3.5023677705633576 6.37878198390509 7.421527383437259
Pt 7.573649690679923 6.589891064518449 4.478042776766003
Pt 7.488100830120199 8.987464481592545 8.392016448712672
Pt 9.338519607920247 5.358163190411691 7.840150133622381
Pt 10.09242081314118 6.063381297194483 5.342903817183056
Pt 9.005048748864406 7.963442429461504 10.182258631202487
Pt 9.074971976951792 8.13734145329742 6.535617236476825
Pt 7.150011033735916 6.56708481701883 7.14216342787265
