23
Energy = -107.55094222 eV
Pt 3.7927665665674564 5.227305028115821 5.236170619717849
Pt 7.811383388955084 2.266532047953228 4.242460979641094
Pt 6.751715101319103 2.7096982271196937 6.4666812665551445
Pt 5.666603062151825 3.7588176870405063 4.414624664957138
Pt 5.959642597563937 6.359450142582688 4.325283699815699
Pt 6.1042273743197155 8.973862856937671 4.455948715908305
Pt 8.110962473433199 4.826924426657513 4.041239838291009
Pt 7.981744651995763 9.152511304016414 8.429568040811448
Pt 7.963683079881579 5.006398521724539 6.590633153863012
Pt 5.531331520179534 5.809878054291807 7.072504876303632
Pt 7.96593498263271 8.085647185349128 10.761361600769305
Pt 8.315467796998805 7.533508490842622 6.377111675589776
Pt 6.673057800410361 4.098457096006126 8.721578996028379
Pt 2.01830457822344 6.52733033077994 6.521788557027983
Pt 3.8504477770072025 7.497744462203669 8.037546323829043
Pt 8.309361733850842 7.346598389263192 3.887186453838236
Pt 7.3665702817544885 6.581259192645621 8.699035056954193
Pt 8.431844262129427 9.88087539230328 3.545671669991842
Pt 5.656494865039211 8.337086535414615 9.573866090798422
Pt 6.728380131309394 1.61109625331072 8.678627799822383
Pt 4.021157686492082 7.844503578983411 5.390428530316535
Pt 7.871181169941934 10.06232910150652 6.049865772174089
Pt 5.681758814107343 9.066207391215404 7.044837313259903
