25
Energy = -118.81390896 eV
Pt 9.680836677487198 7.677092170278434 3.510271492250445
Pt 9.000959720021422 8.965403896013193 5.543242815017673
Pt 8.443361045723803 10.619287511503694 7.366431727319588
Pt 8.727410246635062 6.511687242834355 6.379081409941998
Pt 8.858680243744393 5.347807526680963 4.120408484023906
Pt 8.437728909050069 8.220257384811678 8.364906398614798
Pt 7.216272466149425 7.082827087054421 3.1586073642610053
Pt 6.5686538709661315 8.616799346789048 5.052023124536053
Pt 8.324222701698297 4.003391212499277 7.063099490082848
Pt 9.856235950004239 3.263921562589818 5.204604681618835
Pt 7.8443472592107275 5.777910254835493 8.968643257536643
Pt 6.179193521864259 9.516707595742181 7.557151437081738
Pt 7.368417305663614 3.3316991760951624 4.3596699787847815
Pt 4.629597176179446 7.528215032554928 3.7035450161161916
Pt 5.6173474259244225 5.119920368687391 3.797913484541538
Pt 6.267916907511072 3.6540577633737046 8.719883669871304
Pt 6.254526857608053 6.8231816677494175 7.322041695161552
Pt 4.300335865760456 8.169061537970366 6.246804489606101
Pt 5.855094410940221 4.373992666891218 6.220501067211616
Pt 5.501600051052115 5.971073141838531 9.994380731557593
Pt 4.422652053425132 8.114794105329606 8.87856882444036
Pt 3.669997192242114 5.702930685253079 5.4460568488596515
Pt 4.126601723533096 4.995446110149041 8.017154944398547
Pt 2.4319135467755055 6.817091867043203 7.472277160716167
Pt 2.9071334700304567 6.286479684631959 10.023767005649667
