28
Energy = -135.43755754 eV
Pt 8.417411805801864 3.348742419743947 3.4543764039006364
Pt 7.641199583440871 5.771287820425368 3.5224927863687587
Pt 6.056061972399966 3.224418266373675 4.441560044403865
Pt 6.634813980462766 2.583421552935278 6.887598874754799
Pt 8.478515755899757 8.146566191113504 4.168484756801919
Pt 8.959397156507356 3.533482508100076 5.924584284249462
Pt 9.546595453336822 6.065617800614696 5.409928157438607
Pt 4.887704211218418 5.4021542855696465 3.928597686556083
Pt 5.974338015559761 7.810704766536228 3.7191882392239783
Pt 3.432333563537989 7.433945825083709 3.291397221089029
Pt 4.6597727642638995 4.399867538341264 6.528070969783219
Pt 8.597841101201407 3.240079738913222 8.519233614942687
Pt 6.252252472018382 4.514508836861457 8.649899633477261
Pt 7.055867282984724 5.314822733652219 6.050255846241829
Pt 3.681705994439678 6.812356162046008 5.8561972760794205
Pt 4.421859357319951 6.363983298453246 8.301467653130578
Pt 9.02409444330159 5.77286662554171 7.91928843980325
Pt 6.109507446817521 7.5689931937111785 6.6607397284636365
Pt 8.658802605826498 8.152323718968505 6.843166377179961
Pt 6.907123679960242 9.793668820862967 5.336502775528259
Pt 8.224964759567436 5.169120799917997 10.306915021867288
Pt 4.1230246382916675 9.368960875967277 4.8376965298385555
Pt 5.822768476471681 6.208729075870315 10.60917522370681
Pt 3.987755049966111 8.96249749491708 7.451909573502305
Pt 7.5406529240134565 7.558391211164905 9.157518555015242
Pt 6.7254975663194045 9.791132389475447 8.004971247764896
Pt 5.149366460532155 8.529448793465901 9.732738461382208
Pt 5.025230935403919 11.154366712238641 6.482504074370289
