22
Energy = -102.74158193 eV
Pt 8.169826554882528 4.055818211057723 8.506180938734415
Pt 8.300975834169861 2.4162962274310615 6.298244904953325
Pt 8.861396965008577 6.621044946712232 8.192879473918518
Pt 5.70695396690328 4.637350540127788 9.25385705426781
Pt 6.142780014560025 3.6702895081780875 6.846466340784843
Pt 8.42952665495685 5.0303418069901005 6.092163257629728
Pt 6.3713533399468005 6.547798497335558 7.565382481027541
Pt 8.050513562384896 9.142783373105182 7.765768177575891
Pt 4.10662842314192 6.747616694490309 9.251645226418221
Pt 6.941599978003931 3.693370268883594 4.353510189548325
Pt 3.9961290064297414 5.077595299930688 7.223868247911887
Pt 5.55639448361579 5.994412142795567 4.074394794903567
Pt 8.195902707365763 10.121045806408718 5.2081961815584
Pt 8.384566671601142 7.551790104407705 5.725327857599653
Pt 5.572008111649229 8.851700275528378 8.632633550327336
Pt 4.355541146739517 3.8096960450886397 4.983893908044428
Pt 8.092935939060814 5.9574381239397525 3.647997111603941
Pt 3.9282881350749763 7.751985820246821 6.8168728771650615
Pt 3.0677753497283207 6.083196586744807 4.926249761988649
Pt 6.041459403724026 9.039253362988811 6.043245318073225
Pt 4.27105534706904 8.31662969799177 4.307067440277211
Pt 6.874046603236034 8.302552604356846 3.683299942618663
