27
Energy = -129.16585288 eV
Pt 9.836180539077487 9.26614338132497 7.292060656097724
Pt 10.149177647941729 5.193581960176362 9.248694588275036
Pt 9.446190019476827 7.644275720305623 9.296388533421768
Pt 7.568823599033484 5.353860210587644 9.555897043815945
Pt 7.3947787718621925 9.210003708204107 8.480501728934076
Pt 9.484764385225793 7.370118312818321 5.5834325730991665
Pt 9.437774303978278 5.000337048685327 6.833106149810355
Pt 8.499099444016238 9.767367044295208 5.181458509088002
Pt 4.883309503681623 8.563204898000143 8.317508313842437
Pt 7.851218966529433 6.857167894452847 7.515438162437808
Pt 5.2142568066887405 6.109589015599459 8.849561907637721
Pt 6.005836263739209 3.5971439378827554 8.546343481396251
Pt 6.354554504662623 8.923633172138683 6.147411340124493
Pt 4.453672624288012 2.056886793507673 7.175227943161267
Pt 7.129721067511326 3.9827094179851255 6.25477183475114
Pt 5.695620129821939 6.069650968026945 6.326646165505449
Pt 7.140359747257116 10.005192557993949 3.03882660312969
Pt 8.514116533535276 5.213021901686876 4.388981956680732
Pt 5.2583711229925525 8.519948850647184 3.752297583277074
Pt 2.774727276010813 6.742661344269903 8.026044902181804
Pt 3.8753755621376507 7.899430181091673 5.925206549322698
Pt 3.431927862725966 4.190969218121267 8.10021963175819
Pt 7.710179377975271 7.538827862723293 3.6154945098105506
Pt 4.947115564288497 3.4233801823195735 5.044419398736752
Pt 5.939855322174173 5.571838110631965 3.8534506819500898
Pt 3.2668776346813697 5.204218011689 5.82125520774801
Pt 3.5745085303282886 6.563231406476772 3.6677471556478354
