28
Energy = -135.25716313 eV
Pt 11.493873922279274 8.01368028593238 7.13390131911171
Pt 8.097322930467753 6.277928856921143 3.7424081008319834
Pt 3.4983068315050634 7.248010474400214 6.633927572566514
Pt 5.8371303728866035 6.915642309230563 10.543159214149755
Pt 10.268207837361546 6.013325585318762 8.207134110243139
Pt 5.560620096877588 6.033838629011791 5.663251541228671
Pt 5.7664586571647805 7.597705264709848 3.5106926488213075
Pt 3.338989223911324 5.42808186681972 4.333272840614371
Pt 8.281313912781885 6.1907865375658755 9.916688342207364
Pt 8.137585273973349 4.292661736249268 7.833997066492714
Pt 7.478574680615151 8.793427371993708 9.614964211801961
Pt 6.285081950993764 4.359896198017693 9.818325157783708
Pt 4.697943224942745 3.2388676540185815 4.952738556322674
Pt 6.855099295192661 6.516396539493195 7.780426222898177
Pt 5.188808677658285 8.398929429475976 8.33468633124086
Pt 5.589086953643217 3.8255703351810286 7.341393294555266
Pt 9.334569849334796 5.42247613333216 5.87786304107273
Pt 8.914513929938916 8.122123083853854 7.566483976593922
Pt 7.519898992254741 8.414398079544986 5.1594413005253354
Pt 5.084988417108636 9.153362102565685 5.758419335923512
Pt 3.2884871363902928 8.082184583879288 4.12483140728903
Pt 7.082742139642754 9.951243265522809 7.228873604522519
Pt 7.234265414311692 4.123018686086828 5.18404121074137
Pt 3.1118751023005715 4.592091785393657 6.762291479212206
Pt 4.3418274893756434 5.851867299464552 8.692139995147588
Pt 9.97309489094236 7.731072818964003 5.105062097056349
Pt 3.9143156036232836 6.4733731079763785 2.0551002871711743
Pt 5.806983873816791 4.9200066603713735 3.1064524151691093
