29
Energy = -137.11613837 eV
Pt 8.476585339055958 7.354462930797384 10.368328728529017
Pt 5.860411758719644 7.547265984227054 10.723034653783188
Pt 9.198641323728731 7.5323685881769205 7.852042187474302
Pt 9.390186617026307 5.291667655340286 8.969826270629842
Pt 7.101014408041603 8.821731288017611 8.685109113063943
Pt 3.4718392068412944 6.703924597520751 10.379163352498177
Pt 6.792193708741708 5.485919710080603 9.588776900828723
Pt 8.095914469483283 9.355758796054994 6.3426740197731775
Pt 4.414296776942515 8.332842266969841 8.665327236921817
Pt 5.615012103211738 9.826226356209354 6.822139764022737
Pt 9.853584733834262 6.5853908183117245 5.608072831730138
Pt 10.103563809888364 4.370234302171578 6.715956804895125
Pt 4.422744939632951 4.7789361585013586 9.020089316150026
Pt 7.303212441732616 6.9581102594116615 5.442049151499783
Pt 10.015614375810564 8.888775079938366 4.644228546136577
Pt 5.669805457626453 6.388313571092173 7.376149314706836
Pt 7.531312639066619 4.373379627832965 7.295049687998821
Pt 3.0909744525231786 9.2338305880376 6.721627983087227
Pt 4.841366272621717 7.863416427572451 5.376137938887404
Pt 7.646678360187277 8.980952158926126 3.8251029290528056
Pt 5.245577389182996 9.444703667172345 3.3614782441797777
Pt 8.923956525779982 2.146616048856038 7.279386410263394
Pt 5.08856549463023 3.6160465748327044 6.882721779455148
Pt 5.291322438457338 5.238890827693418 4.911272175901829
Pt 7.017559743986009 2.472778239655082 5.637248284039267
Pt 4.655843099906735 7.014049940096939 2.993233764574692
Pt 6.049737951899036 3.2489791722621 3.5152055274324097
Pt 4.136535552658366 4.548636191121993 2.633937386897238
Pt 3.359282912995107 6.259126477332462 1.0279639997999939
