27
Energy = -129.53058862 eV
Pt 7.832589860775367 5.299249627561341 9.541175656280362
Pt 5.655625437513612 3.95850581723159 8.606266909341958
Pt 5.940263400176204 2.625667120082689 6.09779618379968
Pt 7.771600333775348 4.234240279902844 7.210620891706864
Pt 3.6367792753232377 3.0534188226681223 7.220757313482513
Pt 7.932064850852938 8.008130180067738 9.256584861940068
Pt 10.081550924441693 4.386982973673491 6.109713125950947
Pt 9.024459460979735 6.521037434132915 7.435823675372709
Pt 5.65461775820807 6.657296514316775 9.255837337630538
Pt 3.753386089644378 5.598092208470825 7.805659259984711
Pt 8.047723748044227 3.5658770270968385 4.745960273218726
Pt 5.817055297760555 3.4784914639905375 3.5316216100244886
Pt 6.378378358877966 6.5342130846433895 6.7895099231321545
Pt 4.6721335181073815 4.77658428589379 5.416477221963571
Pt 9.968459813338841 8.936927812472915 7.716616681335197
Pt 9.06558266134231 6.240338368935669 4.716640479332752
Pt 5.608414806736637 9.059994675132776 8.539866205881625
Pt 2.038789730259263 7.39096704396243 7.322083752046672
Pt 7.555449643799822 5.249010305431564 2.7663267787256034
Pt 6.034573740247996 6.695395699918339 4.234060898285282
Pt 7.747505427249966 10.129501928312703 7.493501113998913
Pt 3.826021494122239 7.204219720790536 5.477917079048671
Pt 8.51321335732068 8.646427806726065 5.519015435783123
Pt 3.5901112897654284 9.339180803011082 7.040649552363134
Pt 5.909701890561857 8.891754845966224 5.641790915425577
Pt 5.430799838623448 11.148607442557006 6.926273254054205
Pt 8.01796486486989 7.874703579768899 3.0862704826092084
