22
Energy = -103.16129592 eV
Pt 4.2656378614477095 2.929264862092945 5.844257147672656
Pt 3.8070606599271986 4.535795914164207 7.9005748804425755
Pt 3.146749517791367 5.28953255738552 5.465634412741923
Pt 6.231256948194935 3.861151960529563 7.309709230667692
Pt 5.674580499332306 4.862643364400433 4.703637253458528
Pt 8.761846264526456 3.3079391280250743 7.281840348606112
Pt 5.482923470919406 5.989258235448815 9.194749198583082
Pt 3.909326055495368 7.0747748207770025 7.274379567019645
Pt 4.4573500926849725 7.2850040223396 4.542929879148303
Pt 8.194935622141323 4.992596658717767 5.380082931969929
Pt 8.01497031001931 5.18218117932285 8.828718826499085
Pt 6.452637236521872 6.5315466667260385 6.6435871284041115
Pt 10.022484106684873 5.727181935128957 7.157692320249073
Pt 7.460104951584836 7.350529212010163 10.13462020618439
Pt 7.1120437790459725 6.959195003439263 4.015830093892895
Pt 5.937805594523781 8.58181723435504 8.260083851484769
Pt 4.555750281854604 9.354732014187816 6.177684785750664
Pt 9.344408069373129 7.508601884901556 5.381709585890917
Pt 8.468732361193076 9.247624689877082 3.6943098738999396
Pt 8.533722709974272 7.76501870216075 7.836245829202187
Pt 7.25165275601314 9.205506724416509 6.036579055945283
Pt 5.8255289593299 9.358989927936898 3.871904341896812
