28
Energy = -135.20004059 eV
Pt 2.982163849753987 6.6984231988673235 6.672122962709033
Pt 3.8867210627304902 4.312846601268204 7.256745728049011
Pt 5.36898100895658 4.10347036002816 9.379089927177992
Pt 2.601405503652875 8.850570559337699 5.258388003087981
Pt 5.766635500441103 2.4206828334795474 7.064328722381394
Pt 2.4526216610179823 4.631674197527686 5.081920422058875
Pt 7.592863371174534 5.837588719759175 8.993917178425042
Pt 6.979926993821142 8.277583854506021 8.125195772375555
Pt 4.054189205729184 2.639261617644753 5.113133511130833
Pt 5.063509115777939 6.456866975105067 8.20537899837492
Pt 4.828883525128163 8.684884490396248 6.727779659890949
Pt 0.8913457832563899 6.696910537980386 5.094327191093684
Pt 7.699170985685423 3.2057085223724977 8.675998227521525
Pt 6.72772592879945 4.866899629243708 6.716297144275041
Pt 2.964990903197693 6.808357595289172 3.58364382689338
Pt 8.450624765270483 2.4532565236437005 6.271930562009529
Pt 5.016138574511962 6.8396815538059546 2.0540041412313297
Pt 5.526105185058189 6.5241019255028645 5.155159777554559
Pt 9.686098418998032 4.47660001863948 7.549870698578749
Pt 6.582365341328856 3.3418638123508453 4.582279844142417
Pt 4.574519803094221 4.629828426139319 3.467155707498752
Pt 8.642581690839323 6.755597629202019 6.751304620944175
Pt 7.207258963422178 8.554658418786447 5.492212835232004
Pt 4.863826318202885 8.752061490479313 3.9872175406231114
Pt 8.861225269799922 4.69598041556836 4.980775924540072
Pt 7.15209310831168 8.239413070972468 2.852457094094743
Pt 7.066596456192123 5.604963324427741 3.2639811181031586
Pt 9.089775071787658 7.167546664410227 4.197037906177812
