29
Energy = -140.83880373 eV
Pt 7.120235718782982 2.9098458756161967 4.654395876183969
Pt 9.412905665460128 4.244615542194261 4.865548160059848
Pt 10.298715224451689 4.9317216946734685 7.227747044673731
Pt 7.4402870429322565 5.040281507778853 3.0610167292786787
Pt 7.977325877936961 3.634906557909363 7.066192650166738
Pt 5.034394687124558 4.183591980484242 3.6106031105931744
Pt 9.851801040801508 6.02787095080795 2.9731761494016142
Pt 5.4020860819721745 4.031602124876695 6.332366612975587
Pt 7.262538620554588 5.761537726065281 5.628631026295357
Pt 5.523572415136553 6.8049408068383785 3.7803256659655964
Pt 9.70415490755733 6.877585863556978 5.501146402051233
Pt 8.015482381595096 7.725971871265462 3.5943821786561054
Pt 8.807963814653382 4.721441954129005 9.341289274121479
Pt 6.234748831068277 4.985784711666366 8.654767392841794
Pt 8.974369057132492 7.102077479057945 7.998145146687057
Pt 3.911896062983145 5.726842642911411 7.741383906397184
Pt 7.577367319997037 6.706608288241942 10.243433908764343
Pt 3.5362591452148626 5.588527046501178 5.069342460819115
Pt 7.944119142615591 8.72553698916754 6.227420832864818
Pt 6.109432578477213 9.277709298212118 4.356455503168503
Pt 5.962168411995136 7.217586535535298 7.219415491804793
Pt 3.9349270216202403 8.257620285798156 5.3141501287562685
Pt 4.9883615905780205 7.182571652592886 9.710722062412811
Pt 7.40214591312856 9.077450397292806 8.771391800398877
Pt 1.9429688554667337 7.006659412267147 6.44469330088034
Pt 5.556811736427025 9.828254923805462 6.814803469900506
Pt 6.506134451973463 8.813764009438556 11.212468138979103
Pt 3.3980851638376666 8.480553919825974 7.9548552655299005
Pt 4.952160455663306 9.90326793179104 9.382334459094357
