22
Energy = -103.2547051 eV
Pt 8.523322920464667 7.114325172858403 9.447396155974523
Pt 9.047625081609596 5.184473018834818 7.719968427534638
Pt 7.629191633320415 2.8137776551858726 7.492184599565329
Pt 10.150686541237995 5.507683424796295 5.222900124879516
Pt 7.825114409002911 4.476677015070959 5.551865781030923
Pt 9.063039069599718 7.468014129305773 6.626483675942529
Pt 8.068927219970899 6.839300902743907 4.379040897743986
Pt 6.7475987664531685 4.948288136245974 8.754263766949803
Pt 5.922717691474768 7.269093346880774 9.181690636074364
Pt 7.348789888642453 8.824376662117215 7.8399626915072185
Pt 5.483106528852633 4.079559437761006 6.726854478235746
Pt 8.223829445867908 9.553332210171654 5.343464201216053
Pt 4.178775756720465 5.146566072546529 9.013199253510598
Pt 3.7316872637301177 7.498353158369773 7.941303526622721
Pt 3.298919093322191 5.408280723544569 6.487428108665783
Pt 4.779340872195528 7.351408702881757 5.622394883951765
Pt 5.77841076653743 5.355556757282263 4.319294736512628
Pt 6.242326621163786 8.55339249998582 3.837000143477249
Pt 5.713120366649654 9.663906130053865 6.10928952369531
Pt 6.535004777574058 6.558152268842463 2.255020421962435
Pt 3.900285252164613 3.7311674218376623 4.649865408607994
Pt 4.873659718370393 9.71979483760829 8.544608241263827
