22
Energy = -103.10923525 eV
Pt 10.448185077101053 6.027111909569054 5.6304313325452835
Pt 7.5185469990742 4.144427979309453 8.8449600101983
Pt 8.99509838791612 8.113964300307236 5.963984947567186
Pt 8.843186244399417 6.060260049626601 7.605822088193546
Pt 8.546787581774678 5.114877011377812 4.254413772710046
Pt 7.382851070277826 7.335341133548967 4.191366829615986
Pt 7.309196656198177 6.536313662656597 9.663083392401147
Pt 6.071374907553695 8.75166536571946 10.095883147053287
Pt 7.7214589711615345 8.619255169851574 8.130777711847138
Pt 6.719362005868635 9.355134572966 5.796886336908228
Pt 5.664240008906934 6.621310221023109 2.501526612874341
Pt 5.907348106058259 4.65323586857265 10.744744444866418
Pt 6.5059075446812695 4.267766053084643 3.0716838310850885
Pt 5.110892307159187 8.483604381448139 7.721356158137166
Pt 5.037488439908904 5.84596216597942 4.836611695065226
Pt 7.310164205952511 4.458592320905203 6.352551625304759
Pt 5.5944716925711155 9.058817824986692 3.3892523690542022
Pt 4.780012065537302 6.371358110125327 9.174928429208986
Pt 4.239485571980949 8.132517902101311 5.372870168925361
Pt 4.860642262061476 4.889487481484983 7.157950564940114
Pt 5.353752798453201 3.2642064898288807 5.189901439134648
Pt 3.053390125817626 6.868633055940497 7.282856122777157
