26
Energy = -124.0005321 eV
Pt 5.128439211428082 9.413667467375914 5.661170170406171
Pt 6.627220632125157 10.30367730835898 7.744673068992303
Pt 7.588014459934615 8.620001670205331 5.940369954090573
Pt 9.910658608347676 7.4601212582793766 6.460935943631075
Pt 6.451654847454191 7.7828183706353995 8.171108534888406
Pt 4.320555633517543 7.382568388144898 6.856605704460117
Pt 6.1880874113578 7.811374857720827 3.882557964337534
Pt 3.601949788680413 7.777325886073427 4.3380087462393
Pt 8.890087805229681 9.12657637732524 8.245842422486868
Pt 10.808352806570733 7.545270871283804 8.90372613246889
Pt 8.30898452948146 6.552520735349378 4.617281400511078
Pt 5.9526483415520755 6.648764174293661 10.379615653841288
Pt 8.403308444035575 7.159583631649629 9.981203267845391
Pt 3.7117727720746827 5.652773282753919 10.774309638664104
Pt 1.9214856937538258 5.982420695270503 3.6161168211442742
Pt 10.217903039419928 4.982164929532873 5.7010259635507445
Pt 9.099071069398846 5.6244323835984344 8.06322918259992
Pt 6.667028445971414 5.530988168140716 2.8176197790219724
Pt 3.8815236520862637 5.346747385099563 8.33125447450347
Pt 6.496735154460725 5.186420678211662 8.330804228760313
Pt 4.366794534104287 5.281931058586412 3.8133998448399
Pt 8.702380282825395 4.092655888035948 3.752161319321056
Pt 7.710050076784416 4.391149345372332 6.194071475449013
Pt 2.7266796296522116 5.47423182056471 6.006545713001333
Pt 6.142997309511672 3.366730977382996 4.146633535280926
Pt 5.152040241450418 4.479506811962844 6.246153480873539
