23
Energy = -107.4472421 eV
Pt 9.259078062599304 5.715323315815177 7.009936942897321
Pt 9.5236564973599 3.6891957835049167 8.730000009013798
Pt 8.506832594085875 7.582320782893042 5.3400940440141405
Pt 8.597626576388341 6.007872253265288 9.572932691922741
Pt 8.168696452695999 8.066397056790754 8.006528783993582
Pt 8.036554292478657 5.027009591587457 4.6486743913867015
Pt 7.687206948271371 9.421773531394111 3.57050187856212
Pt 7.518843690196818 9.872198229332499 6.207962427886143
Pt 8.38966584698257 3.187588278088053 6.435699035464979
Pt 7.403061984751865 6.896512106744452 3.0141246720701655
Pt 6.936988194364296 4.232927860292481 8.418098679686182
Pt 6.10113336907464 6.704823573862038 9.334423987850853
Pt 5.023264262450261 7.810870758314374 2.5967747644288
Pt 5.542791900275225 8.824918697355347 7.553229484967319
Pt 6.626785278831311 6.274509568689043 6.699649124329066
Pt 5.5326897311912635 8.782448511512053 4.885197373786111
Pt 3.6797754276265517 7.429876031123595 8.726398591391664
Pt 5.893897255696318 3.805294244181502 5.836254082129328
Pt 4.4982756514443105 4.96321751066471 7.949561484816374
Pt 4.054956942407805 7.094382100965651 6.102977243311414
Pt 5.28251122812428 5.762483377489311 4.098032008835215
Pt 3.4222656027672897 4.593678721538306 5.522714308015851
Pt 2.051245359560333 5.870840834298812 7.365003431852008
