28
Energy = -135.89088031 eV
Pt 3.9768983346573497 7.938031645933834 9.881338855516203
Pt 5.858377956917128 6.191203285044944 10.105096347369624
Pt 7.748529881360226 4.455286081086801 10.39067325310394
Pt 6.086070634436227 4.15694970919605 8.314122524727074
Pt 4.157398697044838 5.970564351942761 8.112226155893845
Pt 2.4988663709561614 7.962600766143556 7.676315856928159
Pt 4.678120523659589 4.294680314467842 6.16191318084601
Pt 2.872020596377549 6.262419163245622 5.786484390510084
Pt 3.2632947434376947 4.546407673589896 3.8826832014581028
Pt 4.197342925010415 9.962032791894224 8.10485557035161
Pt 8.791309113864518 4.064125912734093 8.053483240379899
Pt 6.249427330005865 8.443032264852777 8.681811386738238
Pt 8.010288397990173 6.508159391387431 8.62834946453572
Pt 7.2368610668948135 3.748396561446259 5.956448122872433
Pt 9.874221879833119 3.657578817101624 5.745686782021407
Pt 6.2964032528814835 10.165760215071145 6.614268447676629
Pt 4.429435331634173 8.432115462860892 5.954131658288246
Pt 4.934753305252021 6.648573147104863 4.095576676724387
Pt 5.81631485049633 4.1251765403642295 3.726438862730429
Pt 6.367245831888556 6.408512425077806 6.387508506565812
Pt 9.432251708831567 6.138795844394 6.461223122255894
Pt 8.35219072294796 3.7210224404669088 3.574153517397062
Pt 7.502746037175716 6.197608569752137 3.7993060996399186
Pt 8.217376997105948 8.405169155090183 6.954952674497885
Pt 8.412405562327116 10.414725805682613 5.139570032598759
Pt 10.097258016395639 5.674904730066051 3.969703757979733
Pt 6.5748161952497455 8.611768639486066 4.3988149698014
Pt 9.22996000737875 8.030920098602595 4.557587643870101
