26
Energy = -123.80576534 eV
Pt 7.106652718893052 12.042316201053778 10.30119124437065
Pt 10.222439324197332 6.56668742756082 5.764646993719057
Pt 8.539061711249568 10.822809512839891 5.23578040567577
Pt 10.759194669192118 9.22052330651257 5.61732184458043
Pt 5.286645089902541 7.854952577738828 8.171070269302257
Pt 6.248247763638531 6.989348873671503 5.86604839068626
Pt 6.466979014581505 9.571832548411981 6.469936474010115
Pt 8.124459810443303 6.185541779946474 7.366715269333531
Pt 9.904659888798632 4.292988879764592 6.809223802009209
Pt 5.612178561206916 7.308762978823293 10.789957134430228
Pt 7.501209629138163 8.356230687409736 9.362743277274571
Pt 9.973617643352489 5.530164000584813 9.02795800038077
Pt 9.565276272478721 12.31792888557426 9.453542194995936
Pt 8.359059100725068 8.18910834283252 4.988746577499871
Pt 8.91503343289173 9.042680508987596 7.429439357825283
Pt 5.778753861398919 10.295597844607384 8.926371384264844
Pt 6.026370686080393 5.444283736708695 8.720903314779504
Pt 10.682256877874392 9.997256534428907 9.104145566755845
Pt 8.80333532986937 10.116281930221625 10.924338682829266
Pt 7.75789192556096 11.526746457221842 7.695611855412717
Pt 10.020373522659371 7.80235279547773 10.406351843337253
Pt 7.901623227494453 7.949217738199796 12.195319778579742
Pt 11.05122569481605 7.696489313793633 7.952486233435759
Pt 7.919675589007185 5.993788509666622 10.431722407186394
Pt 6.181756342413645 9.869238835023062 11.48843761297907
Pt 10.364204060503164 11.559297232237641 7.047111557382977
