26
Energy = -123.6733145 eV
Pt 3.5165293467094365 9.966236809040888 6.623717511174513
Pt 4.085439652802588 7.113287473463327 9.586833496481974
Pt 3.29503825759727 7.444963025194465 7.135072703065566
Pt 5.991562866124499 9.89272892657812 5.829677731543724
Pt 6.688264762866798 6.892505502430623 9.538975312906416
Pt 3.8959078956905833 5.042463288447819 7.83238414721878
Pt 3.869189057836605 8.34015833668985 4.688708667780731
Pt 5.420784178720789 8.826324902830336 8.131240511579442
Pt 9.072722661279968 6.043941019739791 9.77608307877372
Pt 8.460027043042825 10.25389988439673 6.224084225909028
Pt 10.286606746107148 7.6415448793202785 8.06678810671662
Pt 5.859996923026041 7.173532077698551 6.006546564936066
Pt 10.661754679982995 8.946880795616494 5.927963569091077
Pt 8.34541448530739 3.700922562830416 8.66647091689198
Pt 7.966521655339718 8.654276791310753 8.109120659686775
Pt 3.6450151118970293 5.509683743594469 5.2713045011769175
Pt 4.188007650375808 6.5146270590481805 2.984703390719128
Pt 6.428738986723181 5.205798127231251 7.677789383608939
Pt 8.391227773689765 7.675570534432599 5.6677015885331485
Pt 8.956566565381404 5.651129983057139 7.171661072105883
Pt 6.118612893823627 5.3552966028294176 4.173780137716572
Pt 5.142523920330056 3.5629034702260065 6.092326565012474
Pt 8.207616713506294 4.276498067353307 5.204047521583848
Pt 7.390384370377401 2.4014370281574138 6.698087563448021
Pt 8.459224759563103 6.218665778403338 3.6276638573086117
Pt 6.534712613878484 2.573114902058998 4.165658787010296
