24
Energy = -114.16647127 eV
Pt 7.366679959216109 9.64834642902721 3.971389148814076
Pt 8.837500926515682 7.620348301725844 3.629563969645359
Pt 6.220262430068944 7.36105994939223 3.8305331600500643
Pt 3.755137744391242 6.923386530189376 3.4114337345483663
Pt 10.323067652746621 5.680209495865334 4.574628798967621
Pt 7.8498138038599965 5.156496104569605 4.085597468452984
Pt 5.307300188097693 4.949992236797061 4.079676159512361
Pt 7.580602149575582 9.365738831229647 6.47407473661141
Pt 9.18063162315408 7.454886270618138 6.092599914011456
Pt 5.438325152279181 8.087955900025598 6.175577614324957
Pt 3.170689833646019 7.036725692496185 5.839334012762653
Pt 6.7524792108554825 10.388055625381828 8.622476497178873
Pt 8.875670943979555 4.915765119021659 6.614378406315062
Pt 6.694735696353117 3.6065524746008815 5.787773677525432
Pt 4.805510432089292 8.794572432440138 8.563070280449125
Pt 7.294050327404698 7.81913746561112 8.72297917537554
Pt 4.408396426707439 4.9119837043182795 6.407098545260699
Pt 9.646833703496274 6.75261791179113 8.499043904442999
Pt 2.8037200104498043 7.219171115314937 8.313098385166018
Pt 8.037840413183506 2.7828975160888927 7.885302887400536
Pt 5.2062923306475755 6.205473660389305 8.68562050006045
Pt 7.602816575387169 5.239527587777943 8.794080851958613
Pt 5.624785865402844 3.550950153754456 8.311062865373136
Pt 3.2380496232193687 4.549342514301043 8.650798328519024
