25
Energy = -116.92626826 eV
Pt 6.301309070777485 7.999302249336278 3.0198404478620895
Pt 3.900751968527007 8.257094291213377 4.5958868384889024
Pt 6.010781553826335 5.520374830824951 3.100730666217238
Pt 3.688861444182554 5.795689544870685 4.608458990135627
Pt 8.53486240964897 7.7191825586192016 4.229105188070697
Pt 10.356160237124195 6.337240284574493 5.586818428812522
Pt 8.669908199228475 7.913288870760474 6.846773675620757
Pt 6.35271147320817 8.120569156117831 5.6762624828682595
Pt 6.06527317756241 5.396398523707965 5.704163022091875
Pt 8.284721328901085 5.181597011023555 4.278760786577283
Pt 8.352467498402289 5.106709978477588 6.888252040548516
Pt 4.650736399636266 9.83875659391393 2.8506529432367196
Pt 10.935140321709891 9.455364676327251 9.409629319518634
Pt 3.827752957946666 5.740241008060176 7.153387451473532
Pt 6.200728909969094 5.394562044325539 8.29390321061246
Pt 6.545576283055652 8.11222420919934 8.263312325573589
Pt 4.122179891834211 8.263390810243653 7.1163532671011644
Pt 10.708624851960503 5.004345423088904 7.987262052889511
Pt 11.033258239215881 7.4873598350149955 7.922361854343233
Pt 4.0601162393624035 5.796598315246864 9.724854185714094
Pt 8.59990989259532 5.3741182247004495 9.474326322964934
Pt 8.951546620199382 7.925088449551481 9.525815503325132
Pt 4.347413973634146 8.257848860364943 9.678066645893445
Pt 6.481497553167253 5.633328584193219 10.913696975200114
Pt 6.7400126746556905 8.091628836574184 10.873628545191615
