21
Energy = -97.67443781 eV
Pt 8.438397787688437 5.609777383142843 9.8559245738057
Pt 9.49934337123105 7.115641735110167 8.064052654109918
Pt 7.446471536374191 4.506391373704302 7.815024749355042
Pt 10.007501431683096 9.046865906696972 6.506880477084456
Pt 7.824941135578924 3.349606528593968 5.545866722320233
Pt 8.032684976486154 9.41924564024371 8.06707908152021
Pt 8.389533023215591 8.306526391269017 4.741543474424635
Pt 3.4892289287377034 4.0139357048039574 4.712170746638771
Pt 6.848891804183048 7.129469294514036 3.068821478190104
Pt 6.445130548184699 8.437472947738708 6.313845517097046
Pt 6.90110204831686 7.135221425703484 8.518713199313153
Pt 5.146455189727919 5.238039206643902 8.907053252667575
Pt 8.190136931762593 5.814326511379957 4.848668516747387
Pt 4.430569449371519 7.652181114536665 8.04910336752805
Pt 3.985034131124658 9.16162731582115 5.900860286417972
Pt 4.925576304708917 7.073504073846492 4.753754767698959
Pt 5.3284846112026205 4.005753977880697 6.545105144287687
Pt 9.654188849229085 4.969889357273895 6.6952899540270865
Pt 2.0855356023348692 7.878256498247402 6.917689018414637
Pt 3.5531012763934813 5.820154691017108 6.498586242902247
Pt 5.8655734243347935 4.803995283701632 4.161849137319187
