20
Energy = -91.19202403 eV
Pt 4.973401758785608 7.538203597650306 10.538336243733196
Pt 8.788815712241878 9.534847049519293 4.796577084461295
Pt 4.499249492267365 5.86046388850424 6.293127144178953
Pt 8.050815241309326 4.068528584657157 8.733081173019048
Pt 8.58140540878031 6.278894701004792 5.853853829417768
Pt 8.244258963200636 7.5368659516515 9.437201000579213
Pt 7.739013303832358 7.4672138742667515 3.808157444059769
Pt 6.639609972395787 9.702399088817938 7.8037937493987295
Pt 6.644833207503071 5.65017104884143 10.230016440224471
Pt 9.697976977451 5.9663666454504725 8.122352209821974
Pt 6.70501165750699 9.32453573948612 10.284376999076912
Pt 6.570892539220705 10.452565009554549 5.4134044761985995
Pt 7.627242478486937 4.733594430301661 4.00973496818391
Pt 8.880194586684677 8.503416295258722 7.116962320543926
Pt 5.824162525730083 8.02847325517757 5.623219240289894
Pt 5.014872604307501 3.7356920225833665 4.791434963286798
Pt 6.966407913436576 3.9824178601658926 6.410805353650533
Pt 4.7319779831232465 7.83476931766408 7.991155673472725
Pt 5.487756135124053 6.09991001125417 3.87432283109867
Pt 6.699456310014953 6.220913897449128 7.736730422587591
