27
Energy = -129.12138382 eV
Pt 8.18192803912545 2.1388723844062194 5.763621739804541
Pt 9.208704063538457 4.256368115525107 6.943782494925378
Pt 9.836415397610569 6.118494420954466 5.138948034383656
Pt 7.7220647276750105 4.662724905007215 4.921839881085473
Pt 7.807658067804691 5.033898906599686 9.165651994815658
Pt 5.778128528968238 3.1146631630089163 5.384406538636789
Pt 6.930516938480481 3.1156597787251568 7.825353825884611
Pt 7.37740746773238 7.1384592337453245 3.9476035456063716
Pt 8.985211870060064 6.832023931808932 7.565926480267577
Pt 8.884325709043482 8.471403034839376 5.591886698122395
Pt 5.739343273676062 5.101027247531576 3.3408634533417096
Pt 9.971206954908856 8.066290220698473 9.652345180666476
Pt 6.639268557136466 6.5811432279012205 6.380769839861593
Pt 7.767166633942414 9.79316381137532 3.6916710865843374
Pt 7.854110794548204 7.0715348945385195 10.613039489617687
Pt 4.930011925177433 4.718757174432339 7.450740256468606
Pt 5.782316390373632 6.648327100736903 9.004635853954055
Pt 3.803130380047376 4.738016363221264 5.026817567098827
Pt 7.686266636989581 8.810807613420167 8.680932282669152
Pt 4.667169914021787 7.163821882427455 4.4953314536624065
Pt 7.516362639696587 10.292612758883468 6.596555931024584
Pt 2.32990334855716 4.657256343492771 7.1582271804942215
Pt 5.5553610302011 9.589662990870403 4.861050906368733
Pt 5.464638057200618 8.753291639138526 7.385316882425035
Pt 3.6147239292161504 6.957347148483784 7.566406786733364
Pt 2.0707671440833413 6.643147080228641 5.451160124545699
Pt 3.2951561097688487 8.930489157582898 5.794379020535956
