27
Energy = -129.21995536 eV
Pt 10.667912228307205 3.8017369847081937 5.677964450103441
Pt 9.709258409284164 6.14660093618007 5.423613063711209
Pt 7.865119715866612 8.365008862571647 2.522051431393635
Pt 8.15615038993806 3.875259633000354 5.18808899581902
Pt 5.683248804170161 4.403880692339773 4.626267281444495
Pt 7.38033308165506 6.283765771000922 4.181205771307992
Pt 8.706347711594024 8.477704349955797 5.034028208911103
Pt 9.348556314941321 4.803922473448674 7.623398524043642
Pt 5.684049323035917 7.040369157857631 2.470309401986706
Pt 4.012205711224418 5.196480902259292 2.875302587462445
Pt 6.487581575625763 4.059129258080063 7.1048908699750895
Pt 9.092395864731055 7.590158447586411 7.497533092544709
Pt 9.266816449173314 3.8052723176642615 9.964424055970387
Pt 6.698736592644215 6.6294483094466115 7.009473209531101
Pt 6.151562859352899 8.784781407177423 4.507112167665305
Pt 6.763325924746631 4.058876185349442 9.631993751107327
Pt 8.311922650652368 6.121355941501372 9.60810469101814
Pt 3.8814652750779928 7.247932557537122 4.391521566897318
Pt 6.9651200587574085 9.212267578498961 6.936898101102137
Pt 4.441232618337769 4.4041387470106 8.70891600032313
Pt 4.332445746371068 5.688486224822649 6.408534854322823
Pt 4.390178807360853 8.917057195874044 6.341943999590933
Pt 7.665071729219434 8.528842835823514 9.480540271481741
Pt 2.245367871488799 7.485707148537039 6.378475154761779
Pt 5.2589877158733564 8.62549253599413 8.888096197709032
Pt 2.8138604669985505 9.211441377979867 8.395601751209094
Pt 3.5341029493065994 6.748239013529174 8.637067394341452
