22
Energy = -103.86978414 eV
Pt 8.148582686247336 11.026902268845769 8.454398274666165
Pt 9.880904883208698 8.495817383354776 4.616778398567691
Pt 10.545793656494308 9.820170289211443 7.226388997659136
Pt 8.236538222995367 9.82858976026181 6.133331189339567
Pt 7.2296338271558795 8.348203917934876 4.340171522330836
Pt 5.960665691565149 10.198869829534631 7.183883522468853
Pt 4.987393401532204 8.44934711062396 5.581297463667104
Pt 5.8595668615631995 6.075850328022879 4.4920963950775805
Pt 4.177131640968848 8.523664786562945 8.214411715639454
Pt 5.173401818516907 6.381359281272741 7.0296056881107045
Pt 6.599110906945818 8.976206495994981 9.377727226492242
Pt 8.477809504455387 6.257332655366776 5.227021275075343
Pt 7.683738942321255 7.545471230786888 7.415716159230795
Pt 9.272952208800655 8.789629422002209 9.21836783268784
Pt 10.32703054747746 7.27521379990961 6.8887534752047275
Pt 7.727805677239466 5.279733703155555 8.919904206753957
Pt 9.654286015996309 4.746205550964198 7.090712214284958
Pt 10.047090825933887 6.318444833138344 9.281662417135486
Pt 7.960769199537588 7.181914654968641 10.825685557533781
Pt 7.001806723944659 4.627481231542123 6.5032912264270175
Pt 5.601943961726007 6.640486484822176 9.571681990837446
Pt 5.344891312456516 4.2206539848544375 8.522320570190583
