28
Energy = -134.49906183 eV
Pt 6.029390666868229 5.934040341839367 2.284213345629697
Pt 8.18630039869662 5.808726481338908 3.674219003882259
Pt 6.855233195982399 8.220282709362536 3.6644672437301904
Pt 8.922713520444157 7.9176472178585175 5.365777105032482
Pt 10.22878602680806 5.4137099532450055 5.259155840863238
Pt 6.094183565329357 3.945853164497934 4.189710772447716
Pt 4.139468792331399 7.658408055635283 2.9231088787916115
Pt 8.506180255901414 3.387719827454036 5.000477402799564
Pt 3.7819877810914653 5.059532169662778 3.4459426825431483
Pt 10.268176242070995 6.836636459235617 7.455475772453506
Pt 5.619419055566878 6.452612347833457 5.010302718821422
Pt 4.467429400713801 9.337089657845995 4.871193846175939
Pt 6.5780853432366975 8.925155797385427 6.26131516843852
Pt 7.775575364923943 5.844243888788105 6.324958861551007
Pt 8.622327239404056 8.852217136738236 7.880945678734632
Pt 9.327631845360276 4.231351886292975 7.552801807029381
Pt 3.096729153064361 7.055423103770446 5.337317532923123
Pt 4.007538045642108 8.747777493381594 7.33544098664393
Pt 8.140445428976903 6.501497301533568 8.935248449257527
Pt 6.5574513611385274 3.581583954767253 6.781195827471062
Pt 5.6087978421993965 6.44927605725097 7.559650624325935
Pt 6.285777463414471 8.637075311853858 8.94371363957523
Pt 4.0604270518036385 4.540662633159093 6.0203671720589185
Pt 7.292895547601908 4.046061723428465 9.279508816602066
Pt 3.090677626324195 6.212996394323438 7.886205353915998
Pt 5.7639489956573575 6.08586280794036 10.07659930201711
Pt 3.886724158469346 7.8854341172859765 9.79979636622642
Pt 4.6857920077972395 4.139682019114476 8.558585211098393
