29
Energy = -140.59210422 eV
Pt 6.649030457633273 9.320008061033624 9.19990766875445
Pt 5.275089586436594 7.082957706925793 9.327827338011106
Pt 9.281968483883562 9.292052586225845 9.427811003855192
Pt 6.541440671301399 4.740491179364953 9.469632736454418
Pt 10.536057687182995 6.9513377531164116 9.066586695467047
Pt 9.178062532485258 4.6840928097147945 9.602191958307804
Pt 8.288238907805283 10.479983409560093 7.285948253015572
Pt 6.726819867918095 8.411405617171583 6.6842163726160395
Pt 10.316584903596173 8.782412795241068 7.058790118852374
Pt 6.1059035634547545 5.919952921412978 7.110274622541269
Pt 10.433500007672384 4.989170598310731 7.218515911751289
Pt 8.035158479029379 3.944586212600561 7.330950719447319
Pt 6.817623750856931 10.941322918107904 5.125889716603499
Pt 8.701774437077294 9.073026456017727 4.892717480265539
Pt 4.96469578344209 6.750132727758085 4.745900371004002
Pt 10.136506822144614 6.85665820347635 5.270934419913401
Pt 6.4034088710510755 4.339437618317465 5.095935790126416
Pt 9.028341758161172 4.481853817589142 4.950709437601373
Pt 7.885833520363234 7.031846406212346 9.8318149597949
Pt 8.589614015553078 6.850970517891431 7.340721149619752
Pt 7.638183782335474 6.625837820662358 4.418169780672953
Pt 6.278522104071073 8.771160543298485 3.7863249769130785
Pt 5.697528139573109 11.12009489705296 7.436446015793961
Pt 4.4998119679339075 9.277990608646478 5.756523172507392
Pt 4.132993136113106 9.272445344283238 8.379230988742213
Pt 3.6228677534895484 7.081993817786434 7.075639508970226
Pt 3.9584572030063545 4.902946317818347 8.652900339139466
Pt 3.8985881931887945 4.669232249671294 5.9895945914337405
Pt 5.5511081547821854 3.1497231153060357 7.435769486124111
