24
Energy = -113.17893778 eV
Pt 9.150907688964988 4.817593511478034 7.750784508780979
Pt 7.645593245350897 6.358651185696008 6.3658036762086985
Pt 6.360109944554876 8.184342779280344 4.653443588347139
Pt 9.148803477195289 7.9079975528364335 7.747759981189881
Pt 6.360144520159312 4.535576484483156 4.652058798872089
Pt 7.66713291933724 3.0472854574040538 6.359193973995395
Pt 9.145288963309333 7.894697107925262 4.971530104486743
Pt 9.144516895522546 4.821323700556579 4.970785094278026
Pt 6.3621286955693686 8.190059699152133 8.066108301950338
Pt 6.3622062438172335 4.532193305845863 8.0669905185077
Pt 7.6824307514531505 6.359201394520596 3.303530604558808
Pt 10.82781255275226 6.360342388218184 6.366873792393978
Pt 5.076886913277494 6.3629946221549964 6.366671638172457
Pt 7.687133031745536 6.3616265314481435 9.408677794191163
Pt 5.039401320373205 6.362639864921279 9.411292005600574
Pt 3.5750684423243757 7.909564898801144 7.752077795334193
Pt 3.574904143315631 4.821239379749806 7.754077399503285
Pt 7.668300802764278 9.674406714542714 6.356241019824361
Pt 5.034965101321189 6.360351653829146 3.3065478245619584
Pt 5.054778024525833 9.675373770472419 6.35761596826304
Pt 3.5742466748684545 7.898595421010267 4.975159444842196
Pt 1.8956612762530303 6.362150900668523 6.370565140697915
Pt 3.5767330753907904 4.823072071058343 4.9754685354327535
Pt 5.054589977863242 3.048464285955637 6.360487172015257
