21
Energy = -98.14057577 eV
Pt 6.308280795504618 9.033878321642936 4.722067065680729
Pt 8.776214769555803 9.387038959938605 5.783512797423744
Pt 7.656999348694453 5.054389480564501 3.4051526866865673
Pt 8.32645499308141 7.071168340389273 4.853318161637431
Pt 5.799570492938138 6.500819512406937 4.374222484693475
Pt 10.692212692873188 7.588931742122326 5.767555514814059
Pt 6.345805259026852 3.154441295445511 4.550193279220287
Pt 8.03020837260167 7.578644274458599 7.467624656522395
Pt 4.03637258930647 7.981361656264517 5.3418782163236855
Pt 6.358342435156305 9.46639905335018 7.27891489695235
Pt 2.412793235428811 6.035794564784114 5.632096799585201
Pt 7.329519046599332 8.916433526221137 9.580185952706055
Pt 5.000332011439852 7.35674993359498 7.582427226238268
Pt 4.167627964285271 4.53886499456015 4.5609011276354785
Pt 8.070331237189448 4.527456775453254 5.966284414025604
Pt 9.787124347081605 5.790567000246402 7.344341604651849
Pt 7.349992716240013 5.236398055381979 8.386704306439036
Pt 5.5442840507163575 4.610665688750595 6.647179112756365
Pt 3.4675216400971327 5.353947768380772 7.830017236341124
Pt 5.94687292552803 6.846725888123502 9.86368632694479
Pt 5.099598423225811 4.475782514490298 9.568195479292081
