29
Energy = -140.05755596 eV
Pt 6.475445775817578 4.3083994062745 3.981601703618179
Pt 7.575612820254672 4.011775954007913 6.44773538820021
Pt 3.8461301903045806 3.7731699420899156 5.384914032493096
Pt 5.451510799944928 5.643605951460522 6.184169821823384
Pt 10.361972168946863 7.952889862090753 8.343262325967475
Pt 7.900126287095684 8.224444975798823 3.830402916117248
Pt 3.6821063525539093 4.302123153013926 8.008190629602282
Pt 8.045307055126075 4.3604908417840536 9.031810694893533
Pt 5.978763605925877 3.0240990887449772 8.28917163280446
Pt 2.1443426407318227 5.512311777782693 6.2023518815109275
Pt 9.208387428605434 5.881552503628649 7.2609707216126935
Pt 10.472381728266155 10.171899488206458 6.9181658089435984
Pt 5.899226948973588 8.283809676041741 8.583402893144871
Pt 3.981980408519621 9.343377828188236 7.0857330202747395
Pt 8.074977995135326 7.005664455235745 9.431782942943308
Pt 8.228435263941948 10.111409597518316 5.573834654624097
Pt 5.8151493710486974 5.677549308016586 8.925241463160743
Pt 8.278138621622134 9.402617055506534 8.205861205696731
Pt 3.9729077036963227 1.8204312607826076 7.178165264715594
Pt 6.216440419850341 10.654148387746265 7.2299308327853975
Pt 3.7005938650936305 6.902257029073883 8.004068461011187
Pt 3.5672770164236676 7.435210558949201 5.322168922437332
Pt 5.739381126656404 9.08420626401956 5.156880703428638
Pt 7.2216048644769835 7.448291469307749 6.516513972074226
Pt 9.85861467308158 7.927520280847744 5.660327971291293
Pt 5.4905102977736755 6.832552308950058 3.773924525808604
Pt 5.910740358092575 2.2579681432915355 5.425162068123656
Pt 8.602268022619452 5.785093457433444 4.757512055724536
Pt 7.50601418594849 6.0636605958258984 2.3893924787494134
