22
Energy = -102.54856706 eV
Pt 8.954876904659793 8.383711172738284 9.932853552572203
Pt 4.441021107817526 5.859363329515792 7.685485526068343
Pt 2.7949804445413 7.900717203941099 7.880585583039813
Pt 5.008412426638776 5.156056989812828 10.121569216563856
Pt 7.523089196051581 9.298741706797252 6.159948774591217
Pt 4.8188130680225125 7.735208143503824 9.445024434549934
Pt 9.413144882997495 7.068801912446759 5.0021046500030035
Pt 5.981645711313258 6.854318815506897 4.754118339670102
Pt 5.264301905282768 4.5388343172140715 5.726689683493314
Pt 8.829094642430404 10.515208754293186 8.105371983089734
Pt 9.654317749642795 8.25117953523952 7.280472863639099
Pt 6.7702318982863 4.909774183083991 8.054474079885608
Pt 5.090023689396939 8.244199968195755 6.763146767409682
Pt 9.209401916343717 3.986758271756011 7.364860793330314
Pt 7.068986914575458 6.619029906712043 10.25835039357223
Pt 7.6561131506842415 8.502930970410214 3.734177212438601
Pt 6.84383342896116 9.033223943289562 8.69972155876598
Pt 9.110270684059774 6.1277937968907565 8.74484341487346
Pt 5.460830116370826 9.64220239603538 4.629649850184488
Pt 7.737387633823014 5.276672190502856 5.709523352377158
Pt 7.901169132983813 5.953456310663498 3.1589545744948735
Pt 10.834631801015334 5.946588583950713 6.800947398255666
