21
Energy = -96.27673267 eV
Pt 9.20853835330409 5.197439432055595 8.774474069343844
Pt 4.266336151208402 7.9833339351111405 3.4144500483337197
Pt 5.136069053940572 7.833484453175696 6.067347944796811
Pt 8.786643499595217 10.759999041036137 7.756542867810449
Pt 10.236584007221273 6.941866879858019 10.201726290101892
Pt 8.773110497216894 8.844942191770938 9.312371470591
Pt 6.883157567867347 4.300301347540099 7.727641817298527
Pt 6.455987353349496 5.083038741395832 5.38286476952076
Pt 7.440376282392609 7.349237743218096 4.585049202826672
Pt 6.700642367384364 9.990930858448392 6.560492015734615
Pt 2.7825243630176164 5.385897802240058 6.981006414415356
Pt 6.113621619192478 9.507344044057353 4.173400861830207
Pt 3.9989857657363665 5.802906804079594 4.897749295801193
Pt 8.803968829199665 8.340356951508623 6.565668682374841
Pt 6.6778364879306755 7.940907529598613 8.139722520498754
Pt 8.810792807656371 5.853999431807789 6.250872555675999
Pt 9.200703721667454 3.418475582233912 6.990464528362349
Pt 4.929747598794033 5.999862555531057 8.006390530372252
Pt 8.06509427483875 7.478465213938114 11.38098805400953
Pt 6.897287805607507 5.989194856610123 9.738126489014208
Pt 5.828088223379158 5.986227730400672 3.041452241318497
