22
Energy = -102.16421571 eV
Pt 8.738012318082568 4.952943297275034 6.516215819599582
Pt 5.885268564730549 6.9995346742792 7.357516856746615
Pt 11.019952360736417 8.462351194217721 7.121906004679138
Pt 8.515330831569976 5.849001915720646 9.406990418834285
Pt 10.71870849729223 5.935570460529231 7.950044696183645
Pt 6.9499751735865924 4.095804769822729 8.187224540155162
Pt 10.002339252973705 8.072723345056902 9.527357806238559
Pt 5.9083399132956265 6.041832251238659 9.712127387746234
Pt 4.432158823983157 4.8689472664925075 7.752090100437662
Pt 4.762338843785175 8.423450697493303 9.143412197726464
Pt 5.094112343843781 7.509434899340533 5.003911744866616
Pt 4.413133121266157 9.529915384938935 6.740261265413658
Pt 6.236211726247303 5.132334399537455 5.686204399922418
Pt 3.288826338152429 7.14484882257858 7.042822815863487
Pt 6.895279655412626 9.347102455304604 6.032902918471515
Pt 7.725116238066206 7.1042014390123205 4.6903129952876315
Pt 8.468063435159811 7.390594139272981 7.229679725282976
Pt 10.319399453544403 6.657806956639741 5.27797725111875
Pt 7.367461017048361 8.322147373338858 9.61163578310934
Pt 9.381685781189297 9.191398932363054 5.196870639350212
Pt 6.39483341156924 10.465911016369628 8.356410944987388
Pt 8.87128360707946 9.889975060753017 7.843954482516163
