23
Energy = -107.22776571 eV
Pt 9.720016235039559 3.2202659532924596 9.405919999920178
Pt 10.266379021414432 5.478610275458993 8.573353905495813
Pt 9.79912018700628 7.993999003953001 8.660600031084469
Pt 9.33014825721194 7.763333037629318 6.193235530482764
Pt 7.459372354567057 3.734647003200527 8.599214569163653
Pt 8.676617647553481 5.233340891595017 6.5367542560582965
Pt 7.0938912189073795 8.299958246669666 7.313095024292392
Pt 7.855103132520753 6.272729647713837 8.834708804644185
Pt 7.551147945299051 9.126794521507474 4.917039038751734
Pt 7.967042909681426 4.074001271022369 4.300547998118046
Pt 7.888042379581824 6.617984465076753 4.375839622610616
Pt 5.56141150152296 5.12986347780318 4.013196589796381
Pt 5.325971641975705 6.72073615388625 8.483045842594162
Pt 5.6322944618931725 7.7186370363814545 3.867559480384425
Pt 6.367263008572454 3.8933866673005126 6.275509508631359
Pt 5.768831379321717 10.32381489883478 3.575981930565815
Pt 4.880814550422791 9.187453415094598 8.137311899100505
Pt 4.949757227621596 4.233820365150838 8.379479628584333
Pt 3.6857369381713263 7.772002603172781 6.416210351152159
Pt 3.3191671172080994 6.522443100238587 4.111237225514876
Pt 2.8552119069740622 6.016815174144892 8.143949661124838
Pt 3.633370425085295 9.20841015431194 4.401470897395271
Pt 4.01197088583114 5.055634969943841 6.083420537917246
