21
Energy = -96.96467324 eV
Pt 8.291014253610943 6.592377008889459 9.313304724682487
Pt 3.4484913558530494 5.424127059378969 5.937146446646344
Pt 9.39769794344828 8.836403266586272 8.954855152762178
Pt 9.164743243410971 6.054573658191404 4.379273638612146
Pt 7.305493869553925 7.83329300918757 4.618561835826855
Pt 6.224255712334389 5.198296936134523 9.16443408409523
Pt 4.236467366337167 6.000149810298793 3.6260201730414194
Pt 4.718250730577101 7.673427003450259 5.510895184998529
Pt 2.691572002528855 4.83162123933711 8.269685626436384
Pt 5.707611923084906 4.391852786738238 6.598304431691142
Pt 9.51217914696616 6.256821483262183 7.057310739767302
Pt 9.61599025689065 8.412944858872011 5.560089955830044
Pt 5.19532238568616 9.032683366002134 7.6494304337392025
Pt 6.556716488459485 5.335211557320942 4.35640245196671
Pt 6.013939707096423 9.934210046613494 5.260535433106635
Pt 6.897881820937788 6.879888661248359 7.108590149492946
Pt 11.262135511537595 8.102849527428184 7.484050529116988
Pt 7.762401479059334 9.394835118785247 7.157611747984926
Pt 4.627143389905118 3.3099643759419646 8.617457266014735
Pt 4.363071892206517 6.7245988233852385 8.258398508369666
Pt 8.219244370677858 4.3069988261213545 6.095205306369575
