23
Energy = -107.25168982 eV
Pt 10.040465737401988 5.91542235663336 9.640187062265102
Pt 8.841285685923923 5.696162469926945 4.72876809035589
Pt 9.32667188180615 7.903684096158975 6.252341577901849
Pt 9.02707092672634 5.532010888818824 7.285192854155833
Pt 8.231776176229353 6.411580876700131 2.2835933470519736
Pt 7.665296122033958 5.01165429390716 9.390869379696628
Pt 6.603729424936587 4.90420597246225 3.5537052024290445
Pt 8.297918745142008 7.597474220503977 8.768677435818349
Pt 7.56157448189998 7.922414772100028 4.33975309057213
Pt 6.615586206168791 5.5859839089496255 6.279717354623653
Pt 6.808328673040437 8.249211704176139 6.789273275903167
Pt 7.020045423609006 9.064981327243792 10.260990546968197
Pt 5.689570429472823 7.342312483183677 2.6857945973935196
Pt 6.130164118314284 3.05080574563513 9.167570352342057
Pt 5.058539209883279 8.746060476665383 4.757577421551122
Pt 5.441564953299975 9.54601002882359 8.459131657336997
Pt 5.43890907598445 3.31927348824709 6.755357790907462
Pt 5.2978055613725985 5.472947106477799 8.544286879631116
Pt 4.5307814932716814 6.243263661422265 4.73660570107109
Pt 3.844192501117061 9.98700043233861 6.540135171511305
Pt 4.558547933149408 3.6786409026788296 4.404715238569308
Pt 4.290509300670337 7.516182749120221 7.419504332937375
Pt 3.4627506313185172 5.085800730598679 6.739336331780195
