27
Energy = -130.40822757 eV
Pt 7.078298213103601 3.1902953478034703 3.787251872696708
Pt 8.838403042188832 5.101078662540582 4.3127788037170935
Pt 5.525475526712848 2.4104497006160113 5.871049877743295
Pt 4.457292061891011 3.792635047566288 3.767351296421835
Pt 7.647967544674444 3.79003088327864 6.2524371861431245
Pt 9.948098559028544 4.886213619774592 6.720380698116174
Pt 6.272661950206506 5.664906834050305 3.711130565969759
Pt 5.875760050809288 3.458538423541524 8.227012035488418
Pt 8.027585826867975 7.555788114581803 3.7365092572033793
Pt 9.84857153714318 6.814931524193305 8.543413360460193
Pt 4.506347482631026 4.753141501669354 6.214016297862375
Pt 3.6616142475916 6.226034979923858 4.132285778779099
Pt 9.007326628971725 7.230293355463183 6.105192847876622
Pt 8.177611085784767 4.787811945481802 8.597992193493104
Pt 6.281242642540873 6.912146106636878 6.252136409185475
Pt 5.522037993785431 8.205033798698397 3.986872102009502
Pt 3.0144098934340566 8.71943001711315 4.50837389887576
Pt 6.361318940387604 4.865106020916503 10.402651194480931
Pt 8.475649999239272 8.96076842097606 8.036930594628195
Pt 4.923546712681178 5.913577934720444 8.499027074299017
Pt 3.696581814055974 7.245656914364289 6.632763751715838
Pt 7.393255376256957 9.28187430095768 5.601669751823737
Pt 7.310391472436583 7.103767793892874 9.445688151887166
Pt 5.3090077868661645 8.461005461775711 8.319876292502219
Pt 4.739838732548105 9.834365977702351 6.071534024017148
Pt 6.962393052855078 9.608287638918068 10.066583709833193
Pt 6.56373720577329 10.682483676818617 7.677564465766386
