38
Energy = -188.34887016 eV
Pt 9.939932931447228 8.672478201676785 8.462495723361291
Pt 7.772095276793329 7.567774581308619 9.712279604999884
Pt 9.912209814456567 6.091960394943561 9.097102531749703
Pt 7.6555542018507765 10.17563795128793 8.596484775649529
Pt 5.539124604824576 8.992481528531801 9.610202001418747
Pt 9.359036593887812 10.522382904002024 6.546547480112365
Pt 3.724280361123302 10.639630983024537 8.83822620920593
Pt 7.5230843713577205 4.901449094463857 9.259162725568737
Pt 5.402906121629625 6.430579285623969 9.445215337683177
Pt 5.583189095544535 10.317088701492974 6.987597072761618
Pt 10.20938053141107 6.901915083685761 6.6183916752075165
Pt 7.663405608896851 8.05050375965204 7.216888598372903
Pt 9.682967287363795 3.520871374498614 9.27535544914867
Pt 7.362047053102426 9.459818393402653 5.132074937080097
Pt 3.185231300643254 7.934950408499443 8.757535623156894
Pt 5.181251114580973 3.8572502996959326 9.217858519709974
Pt 9.82548107946607 8.651554762008464 4.82303648726917
Pt 5.216151622221996 7.500335381934416 7.0760476527257765
Pt 3.0151323881595418 9.6970911605903 6.554041905467787
Pt 9.19754566437482 4.323216695928653 6.929523622431761
Pt 7.769919599603641 6.0720795708488815 5.6418654433996505
Pt 3.3298824934352256 5.401559267909349 8.00023996931878
Pt 10.66506938378196 7.113389609232249 3.040181469686952
Pt 4.863376708657744 8.759584639342492 4.882986908215095
Pt 2.687883182820547 7.184065069276802 6.133863780006928
Pt 10.27758420793415 5.200520963607302 4.710515638342819
Pt 6.75564172077974 3.3432031382719885 7.087602659850024
Pt 5.369842407495852 5.21513270128084 5.901369351092522
Pt 6.700729494386061 7.369051944612952 3.6702135733956633
Pt 8.532636045335268 5.7026825227887645 2.8135596979101365
Pt 4.070115410468823 2.966981386696178 7.137558598478568
Pt 7.970519135626632 3.6651796333957503 4.641286810405282
Pt 2.66543543184809 4.69750501529519 5.475790369742306
Pt 4.153889952804496 6.414972628509573 3.9743622694459617
Pt 6.138511473941442 4.837245274918858 2.9733844304190944
Pt 5.506600708431714 2.8584978353312724 4.738614371333158
Pt 2.9905882221028737 2.1402004793979446 4.958037492376368
Pt 3.671551237480097 3.9189612131014315 3.1322830735690173
