35
Energy = -172.74203578 eV
Pt 7.727387215297727 6.866812086577593 2.8683924492959343
Pt 8.34566008282883 9.384819481871325 2.3719522298132247
Pt 7.164807548288907 4.506855633295486 3.788120152686538
Pt 5.223292394296873 6.368446995798111 3.804510155525421
Pt 5.997351804685052 8.93021567036716 3.4522971667189446
Pt 6.486650956388109 2.1604830198414575 4.821277882085673
Pt 4.62667720631894 4.035297718272419 5.004651671526625
Pt 10.023924799628832 8.036201341598359 3.821254530359102
Pt 2.912034846195232 5.968174548113733 5.1868848533162595
Pt 3.750732092464703 8.506728295557485 4.529138534597924
Pt 9.454935628141778 5.624161702945705 4.7886423005738905
Pt 8.752281983212656 3.3455844241175376 5.812159545848614
Pt 1.435763110104679 8.09454862227706 5.686441761703065
Pt 7.407679596229151 7.225119175665028 5.4233046605245345
Pt 8.186495672792935 9.680824900356548 4.988855183486148
Pt 7.685420478170054 1.2362719730897442 6.945723654041401
Pt 6.7303796929796045 4.902558234116451 6.3844730648898205
Pt 4.930615897307263 6.767594441740733 6.617480101174212
Pt 3.4261170610962863 8.794260999843708 7.266986128251758
Pt 3.7330378362352943 4.567855126916583 7.534847566961519
Pt 7.081385909436175 7.116430446915024 7.963946456375654
Pt 9.819739206205684 7.8313524899630735 6.433396654219241
Pt 5.9203038159595565 4.785049317754173 9.12012192237811
Pt 5.748273136284157 9.46395020174631 6.097112906499629
Pt 5.583767043416732 2.7585372732971627 7.341631824050958
Pt 1.9620515807321857 6.548315358164355 7.703464064085308
Pt 9.318528598566274 5.415904971686823 7.48156016482606
Pt 8.07173280970168 3.2688378094168646 8.528182836497022
Pt 5.513359324868104 9.115015202063432 8.76943173308295
Pt 8.015241134274662 9.584059810002469 7.574597934855218
Pt 4.121757673674599 6.769362978025319 9.181785865611118
Pt 7.755598516077618 9.331363621038921 10.238255171347172
Pt 9.355192154449139 7.627868344456522 9.051223264111293
Pt 6.441972314709156 7.079224220383322 10.458246162030404
Pt 8.393075669542268 5.331729900102888 9.987454620908442
