35
Energy = -171.99934414 eV
Pt 10.804630965319522 3.619108277618876 7.269259543463335
Pt 10.666452276581284 6.14762893748957 6.639179531389764
Pt 10.390334842871448 8.657077650074521 5.966800282293117
Pt 8.690872122048853 7.588407912443461 7.663326980186644
Pt 9.26592392447956 5.25463641085477 8.682277280005902
Pt 9.254773103884455 4.346299897524401 5.303711321927237
Pt 8.00579352955726 9.713715850292516 6.342868873625085
Pt 8.974404065749004 6.820486404072937 4.69638647617312
Pt 8.317806435581844 2.917140820415837 7.7799913948485555
Pt 6.568665026545461 8.851344799794745 8.32055839430083
Pt 8.789320004367028 9.325746987149675 3.84704312017765
Pt 7.089993053853243 6.553615044527571 9.363510247294247
Pt 7.297213095482572 3.96177242362196 9.85739182097689
Pt 4.3929643016368125 10.10107953885731 9.0470466753898
Pt 9.428196457475156 1.7950492014840624 5.793221543860446
Pt 4.58314985046114 7.48521746246325 9.253827775197466
Pt 5.62293755584415 10.671950172020523 6.708864847567833
Pt 5.761476513117547 2.6783283239042017 7.840225894222481
Pt 3.2607168176116796 3.4214856506713804 7.963729421327657
Pt 6.254278907623479 9.499978387316933 4.4477826713533855
Pt 7.007464786834345 2.9729940282129252 5.473978943780757
Pt 7.173147269786591 7.540507505488156 2.946943596237166
Pt 3.033388387210423 11.121385722651794 7.064991441251605
Pt 7.344750701288012 5.039040787765105 3.8029506094769974
Pt 2.7963857871536453 8.548488675429594 7.582417890519114
Pt 5.160489161924944 4.995588170154925 8.829125486396569
Pt 3.8492149110408675 9.373553076670925 5.303461622066451
Pt 5.472695866458548 3.2831015944362574 3.342763818811273
Pt 4.482157980579897 3.4888084674066078 5.70205460729188
Pt 4.6262731416864575 7.566266559995126 3.7061013910459404
Pt 3.0755945219263725 6.00798815252323 7.740345852180215
Pt 5.491474910728068 5.701606894712842 2.1516949336127085
Pt 2.712449920666218 7.091431353571112 5.381126516774498
Pt 3.623430149045902 5.144860660423004 3.867711880185398
Pt 2.0306977886997855 4.581949685912941 5.825123820055741
