35
Energy = -167.74071175 eV
Pt 4.230537515219989 7.125733300224515 5.015385068839678
Pt 5.5130791916706725 6.574838698265726 9.812790184193455
Pt 6.453493679231514 1.7185994830909679 9.832409741789462
Pt 7.9968790790059305 6.999306445385673 0.4028441543646688
Pt 7.616748073047943 2.0741011186257885 7.640379883335357
Pt 4.455427525376289 6.14014514096129 7.398241354905897
Pt 3.7979973996831506 7.60256793909522 2.5028689913755517
Pt 4.347352230377265 9.840110437848944 4.991440813278279
Pt 3.399836092026894 8.129145360692469 9.494198415951262
Pt 9.847277648049364 4.830962034416335 4.3678561018904825
Pt 3.3359312553671834 8.57193249179531 7.008417474945525
Pt 8.740550698876723 4.028187868179319 8.813577418675168
Pt 8.011535147609745 8.772598341682789 7.065293514498525
Pt 7.8123249736226175 7.7069754930213 9.404136029495877
Pt 5.011254726513865 12.247837942293412 5.104329615567817
Pt 4.467701071887082 3.2554988317619364 9.332219424342691
Pt 5.959909337585757 4.085594452728384 7.417008274624676
Pt 6.695921196243864 8.66330894292132 4.739248634648555
Pt 5.608411364624766 6.720111992451936 0.8452906656390613
Pt 3.245092075448006 5.4557909144703345 9.510552885074581
Pt 6.545073408978413 6.1307205660669615 5.858996528434203
Pt 8.069935306368029 3.83082950050292 5.8588218580002325
Pt 5.699067237575944 8.79287474201833 8.257220400052143
Pt 9.790825117700377 6.024673903231584 9.996747790542186
Pt 8.871383340958754 6.366175064067668 7.472193251459722
Pt 7.72854459160401 6.175428184385523 11.485796173095821
Pt 11.838695249311892 5.444988849330304 8.729006512667777
Pt 2.2449396355139695 8.611689514064462 4.278688906766012
Pt 6.295334324618515 10.592064483178001 6.449182840902224
Pt 8.589910166302266 6.180920579769586 2.6190728118749806
Pt 6.620533882133119 4.295286680054568 10.213911926959618
Pt 10.447163482614132 4.476965287603313 6.904632244722512
Pt 6.193857784624796 6.581612629749846 3.2638132936864186
Pt 8.8090138876686 7.1251737462552205 5.002060092294554
Pt 3.2227355913359914 6.34152232858511 0.4256400098832813
