39
Energy = -194.52971399 eV
Pt 7.518651744062052 10.207174144940097 5.302694779635285
Pt 5.640781553136702 8.164816432913188 8.851080456693431
Pt 9.892271254128689 9.53830520559695 6.1971993067603695
Pt 5.307689657818149 9.953989233169015 6.8171423924415375
Pt 8.107453041026309 7.557680451026838 9.714646454182954
Pt 8.762212737896645 7.308642632388091 7.150595287859418
Pt 9.33642928504067 9.185965468967353 3.6576237909317766
Pt 3.003064426663105 9.407802761730998 5.454977424068409
Pt 3.863700626589783 6.493795267523746 9.731899259452753
Pt 5.184910050310264 7.473000430951189 6.308281213883514
Pt 10.229013139833924 7.033086279969114 4.8965378244779325
Pt 6.731519079095817 5.7236363345156684 7.707148171185883
Pt 2.7310803208663765 5.422222168040645 7.633270084557561
Pt 8.74304845371694 4.843976248892622 9.30307282449225
Pt 3.084728023433818 8.05580221651069 7.7262782557942105
Pt 6.984459499774789 2.9960660244437096 9.227260736276738
Pt 6.335986416887655 5.611550762412199 10.268565562044857
Pt 5.160714918181213 10.249207945997215 4.202397175112913
Pt 4.673839046076978 4.128919430097566 8.886115957245183
Pt 3.009643254413961 2.7571316826009005 7.332939189488157
Pt 7.663102061393218 9.529698867243248 7.861882645560445
Pt 10.632850788999107 6.517876196886225 9.2555468269362
Pt 5.672760770690838 2.471016971776477 6.982868629099379
Pt 4.796142780781171 4.945918066696795 6.117853395984865
Pt 2.218755818199418 6.911316749578692 5.4043413760030115
Pt 8.093575051702834 3.5573782399865426 6.850531679459617
Pt 7.27544919179248 6.473289788482888 5.2592976037561945
Pt 1.827518772257278 4.286597872884062 5.476058075326023
Pt 10.14484389977468 9.114917766329471 8.816495402333898
Pt 6.86210293609228 8.38938125411833 3.427876387036953
Pt 4.3608670413900885 7.724637140051905 3.865778207152994
Pt 10.210295273036271 5.197241827540016 6.96392438739683
Pt 4.02184564810266 2.7591499800443087 4.866997392728075
Pt 6.064789361939234 5.8172260469328485 3.055183652424614
Pt 8.662385884612222 6.582975995566903 2.820148615314017
Pt 6.535233240190594 3.6789245874408163 4.640645603330777
Pt 11.57860664599517 7.648337591580335 7.070097892146795
Pt 3.632926138128971 5.222836966316794 3.8428562422932853
Pt 9.037309738298408 4.6510645401868125 4.644447411462647
