36
Energy = -178.01386363 eV
Pt 9.449056271618515 4.127043004817458 8.378401906957784
Pt 10.068851109410433 4.509973892756848 5.866247010563479
Pt 9.791411607642862 6.624210954862714 7.603220161715948
Pt 8.084218629500862 2.8386660698067776 6.364398597184064
Pt 6.917037418374143 3.606772885208885 8.683576467608134
Pt 9.615091344004115 6.827386078278557 4.828398672626094
Pt 7.709214844710885 6.123649685703432 9.266957634689518
Pt 10.028396392131716 8.976324229610492 6.53610522724176
Pt 7.866864352999484 8.538376760596083 8.057410485940567
Pt 7.517961511562627 5.592218705263741 6.75342357144153
Pt 7.777309446099589 4.730084606264828 4.351595222902808
Pt 5.993142262206111 1.5476424628350445 7.351290350070785
Pt 5.401308140987266 5.168662542226825 10.12524193371088
Pt 7.197712683146273 7.95109191803462 5.573310780781209
Pt 8.91574186558097 9.333957204259164 4.230752719495432
Pt 4.3179801916920795 3.4707439567384566 8.440773588619995
Pt 5.53796303861796 7.591899812469831 8.995794198495622
Pt 7.856775732662723 10.61678527199507 6.407646440496383
Pt 5.351985138975663 4.297732357108551 6.150106354559482
Pt 5.497106524716948 9.657736888652101 7.214517612278411
Pt 3.6173960953979223 2.2313859432511505 6.214791026668512
Pt 7.133621412726115 9.552177819870863 2.3377331140912436
Pt 3.427132501565356 5.932844268268757 8.554075563053146
Pt 7.465656303269557 7.067951751843439 3.185110264292062
Pt 5.983571634599719 10.037948825654146 4.6301292027486705
Pt 5.332986675506287 5.667538990324799 3.9189188758422273
Pt 5.175067289773062 6.773763014846202 6.474807108366976
Pt 5.990366763126301 2.24892565132639 4.82023578030499
Pt 3.2496902720057133 8.517026517867793 7.931571512343436
Pt 2.0044415010642673 4.144081377303252 7.182984318229081
Pt 4.974750823209845 8.222938660595448 2.965447348372755
Pt 4.641444431488764 3.35697653511207 2.95597260330628
Pt 3.0424551089562035 4.331751673321081 4.752764439838604
Pt 2.511903964485385 6.540542644542421 6.1868521259349825
Pt 3.7817241224873914 8.694768284588466 5.326028218938089
Pt 2.9505212476075022 6.749694088371352 3.5900982608590426
