34
Energy = -167.71135315 eV
Pt 3.941209183130877 6.769985025743099 3.43808219349004
Pt 4.236944976681051 4.560503200607143 4.89665231354702
Pt 7.571997824573289 4.882059196939 9.95152466992766
Pt 7.556722559986676 8.073293989754584 6.552837730888599
Pt 6.575877742337718 3.250435216205581 5.0303025998843225
Pt 3.8272249169356853 5.203655965375806 7.481203473916289
Pt 10.987954676658445 6.949591624146768 7.68528376240296
Pt 4.732767447710577 2.821637884158625 6.829326457760766
Pt 5.154350844846119 3.8846042163834626 9.264343627751217
Pt 7.1889742793428875 3.3558471954915983 7.714199605830906
Pt 7.60917614184649 10.733413443029171 6.897234177270905
Pt 5.717108758941269 10.487897131113593 4.925139886528043
Pt 9.577889221906734 9.158094370332625 7.781480697628121
Pt 5.19784012285032 9.66490078131965 7.277405174083603
Pt 7.23200675877733 9.214427223072223 9.032566728349169
Pt 8.217454676971034 9.616859987531925 4.534863895735569
Pt 10.340724617877674 8.233857098802593 5.453691855339411
Pt 9.197936749783967 3.1185272638279824 5.974294170729589
Pt 8.926365171185193 7.100590250353152 9.335161447429838
Pt 9.306102929830436 4.902687173574022 7.93736828278937
Pt 4.732628049460083 8.942045088991298 9.731059261589033
Pt 4.370663467721661 6.362257921734687 9.823460204261766
Pt 3.6414720660893547 8.818178096892353 5.231740293942397
Pt 2.4731532204543316 6.473033329747179 5.636431983477322
Pt 6.127240422215348 8.243596087886374 3.645214415769534
Pt 6.294227851818541 5.5778963824569505 3.430756133296024
Pt 3.3574896792709836 7.815193588670614 7.774494237933632
Pt 8.59292384028035 4.383304150613908 3.740879004290592
Pt 6.680620932177311 7.306267665381294 10.740221928835163
Pt 8.482866139791616 7.060190267446452 4.004742517263121
Pt 6.36547482136375 6.299526798839816 8.148492802997419
Pt 5.337507055555429 6.944130895259646 5.84354028833965
Pt 10.22707565369393 5.571512013908016 5.526856194050161
Pt 7.504818754624743 5.505270859849111 6.011711439673845
