31
Energy = -148.4244889 eV
Pt 9.86960818201488 5.955691134757016 10.385025939852252
Pt 10.268691087990497 8.506771914354538 9.906355171994782
Pt 9.925617163625422 9.342239912499153 7.56533985971723
Pt 10.077562708424946 6.770791353698045 7.875193041476987
Pt 10.320414057311433 11.41339571071817 6.246136811001916
Pt 10.151221338933338 4.106243836723708 8.396633509888032
Pt 8.905003383364903 7.599174392338489 5.656856111581435
Pt 9.007309513567268 5.10197083473513 6.215737482255635
Pt 7.8603931120489925 7.557869247769145 9.788805237014524
Pt 8.25827715871317 10.161622957712172 5.692599042512832
Pt 8.084822224641117 2.8588384205209296 7.418758798764996
Pt 7.562491543765415 5.953968806253884 4.251838292509304
Pt 7.827709400364842 5.019560183159464 8.967567884366076
Pt 7.207044480756884 8.454869210295493 7.388302691683955
Pt 6.311644302203059 4.34994306872658 2.6759508679980337
Pt 5.749430291871309 6.486684048213051 8.60898196628886
Pt 6.978265677308856 3.613941606412432 5.134978580482139
Pt 5.673362776741439 8.98746689832748 9.37874553259491
Pt 5.773806770788776 4.155018859182496 7.614465925264671
Pt 4.872549220417556 5.255969172451824 4.569403857027966
Pt 6.536591583782998 8.493606925792827 4.763972309086603
Pt 4.62463230714634 8.358473212081451 7.0320186999718395
Pt 3.868067010891237 5.8255514116809755 6.8763566329752726
Pt 5.697932075387863 7.007516049673839 2.756838001905478
Pt 5.911174493997718 1.7404754254361239 6.507024306875489
Pt 3.8629805991038024 3.3261440316577406 5.960206354202328
Pt 4.0070196691384385 7.910362901736663 4.497180456252552
Pt 2.3335184974390533 5.127776355664046 4.919429237135572
Pt 2.3507903475198884 8.98942054919218 6.143862896281221
Pt 1.4561412734854515 7.5027430290274415 4.374768914408612
Pt 0.11002811800585593 5.509998909960427 3.874765957381746
