39
Energy = -193.89100144 eV
Pt 6.625051222965151 4.019108371220834 10.044149193081248
Pt 4.713503405267762 4.115354813641797 8.032935183618033
Pt 3.149016726037273 4.512738986777981 5.94042601141558
Pt 6.377533928287565 5.573183456358814 12.1554021751071
Pt 4.732066383819737 5.8750782758076925 10.114901655546566
Pt 7.122569794900704 3.1175287535566505 7.665061117228261
Pt 3.1578125556380887 6.354345667617993 8.148305102873326
Pt 5.609299014590934 3.545970100623335 5.527274679987479
Pt 9.125554840664444 4.43610299808839 8.920116480970394
Pt 8.182587198549715 2.8711437572793006 5.2468470213055385
Pt 9.625905731171516 2.390914197362876 7.3752214487623675
Pt 2.000507462773353 5.573996397989442 3.836964418717894
Pt 8.016093154895817 6.376963783243838 10.222965529149452
Pt 6.737829133291178 5.855593287226812 7.862816650403664
Pt 4.816813622176671 6.452357445547267 6.067115176448028
Pt 4.495842853537338 4.998724626015083 3.5061986807295202
Pt 1.5886876842476665 6.818538640868234 6.138876111081501
Pt 6.159833382716496 7.956299412805924 11.116603666929107
Pt 5.02046949838539 8.181849242533632 8.822763912224424
Pt 6.914473565406442 3.9301150235949454 3.245846517279397
Pt 6.1192406578559355 5.76020010931105 1.5742972005575384
Pt 7.224172688532314 5.739306926678503 5.253689692480297
Pt 9.662033548014637 4.816408172391592 6.35404827234352
Pt 8.520387714719378 4.784120764030774 1.3148236387933188
Pt 3.4328939150273095 8.792799363615941 6.821544455077228
Pt 3.295888162870776 7.751498309261599 4.3606575260750535
Pt 9.231800320142476 6.913128641514418 7.9140848075853265
Pt 5.682104765635034 7.503213514013071 3.4085655809997197
Pt 7.706231872685099 8.783174932592198 9.15697440457172
Pt 6.723046035049789 8.074420357174985 6.446111515727294
Pt 8.22479118250906 6.954318131901262 2.7963583640133884
Pt 9.471884353520924 4.819501151830247 3.770872051451547
Pt 5.536844850235331 10.239787415514504 7.348857075153934
Pt 5.056014314010265 9.63265455935593 4.7906012593946325
Pt 9.464109341929316 7.190523730400132 5.218284362863589
Pt 7.743673143792155 9.052333846072909 4.192769742146561
Pt 8.972943252121517 9.302019357884353 6.734374657157804
Pt 7.797243396700805 11.164764394375144 8.179017040298382
Pt 7.246248207945223 11.17397410495092 5.581122358646475
