36
Energy = -175.29794313 eV
Pt 5.251656327675306 9.317037006590153 5.585501184850737
Pt 2.137297675891588 6.905145717418982 2.7360852336896175
Pt 10.066869111814654 3.2029555006416897 4.772644076765287
Pt 5.442170676138065 6.08969706942555 11.412915785862095
Pt 3.1432039767875843 6.981099613205158 11.607596446630675
Pt 2.684402788574671 5.2814498767470495 4.758674951967095
Pt 6.9344464960962355 5.985676546257408 6.572410458731927
Pt 7.615580716072134 3.6680769428515654 5.369431780992433
Pt 8.2826454709219 3.6070602801140095 8.075968353091975
Pt 4.799935244949804 4.521562744528239 9.495030383458978
Pt 3.4778708983223114 4.887542697403503 7.183662856189662
Pt 7.972387664339659 9.666882296885774 5.540002143234267
Pt 6.394658259941528 9.599352140874055 3.2616542479018693
Pt 9.996913961340992 4.9092651210943 6.6617473517695025
Pt 9.254851771933925 8.069462875803563 10.033282459885042
Pt 4.245733126816768 8.442200547468454 2.4190243488110426
Pt 7.022652068215446 5.233817690567645 3.370348893569815
Pt 8.118116663650863 6.715539157597365 12.01099133182676
Pt 9.191129367795456 7.455150063864237 6.186899177297589
Pt 5.785216056208381 3.6004847545273173 7.304193605399721
Pt 6.346684968256432 11.55295625275999 4.869672649675817
Pt 8.6458804977919 6.133143858377402 8.533859125227854
Pt 7.56555956169791 4.748919492293766 10.533984520147232
Pt 8.885419386868488 6.289175655408642 1.8123835718448542
Pt 6.492078205129356 2.5896055555994297 9.648873967315964
Pt 9.501672204973628 5.6551311184758495 4.2318660163413675
Pt 3.571291129319798 7.673488539830325 4.749300579153408
Pt 8.524913576771803 8.010842205366929 3.6706984005581393
Pt 9.162101957698779 9.38941879732036 7.8757273315998635
Pt 4.444919812368518 7.366894057099376 7.1127738979525095
Pt 3.3131293956070937 6.527199152542233 9.192271482912002
Pt 6.51358212123666 7.353669425903437 1.9582314773957754
Pt 6.713157217119945 8.502268590171928 7.628835077804113
Pt 5.209233203337874 4.694146067692156 5.06459487453321
Pt 6.791532047147973 7.638607612942879 9.989433062110567
Pt 4.522492134258311 5.756460717422005 2.790814636573297
