37
Energy = -183.45340037 eV
Pt 9.064667161724413 7.420754405344972 12.092094666313015
Pt 10.381650878169765 8.92298802786906 10.256630354883415
Pt 6.51166097717634 10.205252117739317 8.411531098865135
Pt 8.562982015787528 4.858321388660778 11.779661910340147
Pt 5.409214007183423 8.09028996384357 9.486208441588177
Pt 6.7152776005502925 6.643731530616211 11.257028023949816
Pt 4.039475677344178 9.50373507982709 7.779734972405369
Pt 7.869520443618462 11.802668378402302 6.763550249207356
Pt 9.158386198031257 10.400028817832705 8.514513601096711
Pt 7.777030677780451 8.94001355976497 10.32430019825915
Pt 5.504336423455489 10.960638403877168 6.036725658860872
Pt 9.999369111401958 6.348351081704509 9.892751033081188
Pt 4.236557462739311 6.337941078022374 7.641237612257973
Pt 9.359509547342238 3.8829452104222817 9.506084537619044
Pt 8.928182806679022 9.5795241503803 5.968136800205584
Pt 4.613530081285719 5.619264529146864 10.059855511137073
Pt 3.4630633050764024 9.533188301340827 5.24951784198056
Pt 6.111612136435225 8.13527042450527 6.768863773645928
Pt 7.491652142616693 10.955462836560505 4.249833467500853
Pt 6.893764159952271 4.622255678288939 9.501617612742614
Pt 5.785848470564127 8.978893686609082 4.2287709155145485
Pt 2.2859478509603295 7.787910966202292 6.781071887919781
Pt 7.816596215785772 6.96498478773057 8.493280454260997
Pt 10.108592323021043 8.052595987085088 7.750119375104325
Pt 9.924447911056546 5.451055844742223 7.367422332674865
Pt 5.8102772896890125 4.406626473940157 7.110756853143729
Pt 8.188858635968197 3.2840051327825557 7.354829862387472
Pt 9.685675859229095 7.154395252077252 5.35220941215673
Pt 8.264137874719443 8.531973046853862 3.6007062508898713
Pt 4.184489787395849 6.972910219934048 5.029888341393269
Pt 7.443555097068328 6.101862971445369 6.049180608040286
Pt 9.047987953398266 4.320825839074155 5.105146853203863
Pt 6.79577517172395 2.6590436939432958 5.285859331235154
Pt 5.020695573676932 4.546821381916814 4.6723202387507685
Pt 8.981142587480216 6.096156155652219 3.0596318039699706
Pt 6.407923947323187 6.529039306769819 3.6630438278354496
Pt 7.260246505786359 4.10729693343934 3.1481150925385495
