39
Energy = -194.06544951 eV
Pt 10.251278315286688 8.671653356414408 7.516042410405398
Pt 8.962744234950415 8.038344541292545 9.789160489823153
Pt 9.974064561729346 6.127810054085633 8.422264051487561
Pt 7.9299323639849835 9.726383139523229 8.017949981366186
Pt 11.11359213172028 4.3949944166234705 6.869473097680031
Pt 5.50471151372401 10.660667778560047 8.631088694583925
Pt 6.417302626495768 8.329787667154243 9.731285438095819
Pt 10.205048401476393 6.654077118809077 5.780147292573585
Pt 7.32264486499073 5.795971089156928 9.12543757242031
Pt 8.651781506617352 3.945891435233838 7.721476279422337
Pt 8.735396909094748 8.771890971246187 5.25158932466473
Pt 7.744424014398044 7.20360302528122 7.003035989999195
Pt 6.758378514477506 10.409140876845896 5.709384028369625
Pt 9.915843286797566 2.181401542190071 6.165144295325694
Pt 5.038650146467842 6.824610358579399 11.269980890387718
Pt 9.798442607715836 4.361625030263528 4.581083557310924
Pt 7.440797903817112 5.0772379049967125 5.520563763561601
Pt 3.830406212164312 8.372887725418593 9.54823347599364
Pt 4.611427957427347 11.794669052213699 6.486670686574769
Pt 4.627930810470781 5.772982864223192 8.996121810140288
Pt 8.605299426321015 2.019658333861047 3.8891912652879332
Pt 5.457386192306417 8.515935757348847 7.196212430185521
Pt 3.141271614607208 9.827910021946991 7.501574965714443
Pt 8.114130765083633 4.278871145393366 2.5827812702935127
Pt 6.045814075591889 3.9602242571472077 7.737360863237823
Pt 8.603365918714992 6.665108108578751 3.650682169050726
Pt 5.201370588213375 6.1684029245419305 6.221940791488527
Pt 6.446548475306345 8.279512063849637 4.054013265933365
Pt 4.3689008056679315 9.614492092711812 4.992536632947532
Pt 7.310623211098532 2.134608157947345 6.257798115310019
Pt 2.901286855626392 7.057540811046596 7.446174236409122
Pt 6.235697576205095 3.1804008668181063 4.021205881615661
Pt 6.0663695507777975 5.799646197647377 3.2341944704816403
Pt 3.3261577052555618 4.357771511831818 7.1551121239551625
Pt 4.020814141665715 7.177543715770542 4.096760188171903
Pt 2.051100064265264 8.507315171446637 5.454625517341686
Pt 4.742506371062314 2.4543588046449014 6.032634383053077
Pt 4.057289645678287 4.509663056590118 4.499975225041627
Pt 1.981547151586043 5.887686071605922 5.35137209313575
