35
Energy = -172.35235327 eV
Pt 9.34042212210355 4.940629935897502 5.210631565430547
Pt 9.539597667467516 6.267836306218031 2.9675030496090953
Pt 8.238542491498341 8.492601416082241 3.444553108358619
Pt 8.463690124875802 3.8794814243778504 2.9904226526681623
Pt 9.543644026105817 6.339039194105257 7.411738754911634
Pt 6.932210494203475 6.075946184615077 3.203989967755357
Pt 10.14414685832512 7.6256833974989044 5.238258675743939
Pt 6.690159608711831 10.502779044468973 4.097603042338132
Pt 8.66662091984792 9.815334252996108 5.827074201997227
Pt 7.995763048022348 2.5302847319014425 5.195651286430502
Pt 5.989576866731494 3.5756788953978154 3.8554805360887747
Pt 5.52056943276452 8.180112088071072 3.7691410509592145
Pt 6.589892521724406 5.0177242027887194 5.9306951007935425
Pt 7.557094843823375 7.419856224072882 5.7198956149047
Pt 8.403363938566617 3.849560912253373 7.499112858255455
Pt 4.5332195757306515 5.787843826436412 4.246084411248058
Pt 3.909609301550869 3.3910088991886114 5.38709048753697
Pt 8.81441914654048 5.266428735787947 9.659034066668562
Pt 5.979696782748571 2.689645157828613 6.9171587007695665
Pt 7.803116294696419 8.91495262400681 8.103539929351973
Pt 6.933162116181051 6.342834296555464 8.15344518259459
Pt 5.972743889233746 9.955220726398725 6.553016904819612
Pt 5.100487389226379 7.239879133155616 6.531817905089643
Pt 3.093214965444322 7.903854834365517 5.032811187725624
Pt 6.229415278838891 3.9409267408009607 9.183038285149916
Pt 4.15144095223882 10.292794121883757 4.710281194599807
Pt 2.4376004984315194 5.586006202288218 5.973257221089057
Pt 4.1607640295203 4.615846072077513 7.695444163546993
Pt 8.87009925142927 6.677357948019516 11.796451552658386
Pt 7.094790287977876 7.8129460393432035 10.343456868856116
Pt 6.728664489957091 5.355865012130163 11.337350183108963
Pt 5.172389740956037 8.662031480648654 8.784521241128365
Pt 3.2983379002647037 9.541210831424994 7.08002605430614
Pt 4.765953352678675 6.130836346224273 9.769546296795815
Pt 3.023446364453534 7.101355428028723 8.093332736944467
