31
Energy = -149.22650094 eV
Pt 12.11336002722996 7.666382893248018 7.913772082344707
Pt 7.95002549233085 4.995301950821499 6.549054613471278
Pt 9.79475305316301 8.302537363959097 11.836952404783018
Pt 11.907950193365762 5.080578461846938 8.20186324123938
Pt 11.739619653925391 10.19718655627035 7.572075897579503
Pt 4.684016897244997 10.455354840260688 5.053783731413653
Pt 8.001773279863059 11.81444632433506 6.548762785542317
Pt 8.979278605115558 8.250996751523916 9.005096608428131
Pt 7.811676787964979 6.656978469845398 11.092916441419893
Pt 7.886327696992166 7.489799221220319 5.761861952949731
Pt 6.38217416857358 7.808435189123857 9.211758055407412
Pt 7.235006321141674 10.463126629590205 8.834458513968029
Pt 6.92004356883827 5.260865718047273 9.004909513863065
Pt 8.30366399897932 4.161090957685749 10.961264862130806
Pt 6.24476343532724 12.518771631028466 4.819913135598153
Pt 7.218181756383273 9.85793742051916 5.1301663921935345
Pt 5.389957853608807 7.948946398245139 4.866305160992588
Pt 11.104494980160803 6.640866210465297 10.194132021991997
Pt 10.967934695813693 4.080116382593969 10.55623849151544
Pt 5.506276129169926 11.782301902399743 7.246049255479058
Pt 11.380197867083417 9.172805442005277 9.912424679475158
Pt 9.942064156370755 6.657649993010266 7.059076056092323
Pt 7.340588996968054 9.231555052024213 11.17926966605823
Pt 9.69204806404596 11.768124835768988 8.304863908263068
Pt 9.396179213158254 4.5463099154735165 8.597266149410865
Pt 11.671881916700473 11.742833596512384 9.876802273119488
Pt 9.93832317552177 5.757791757034928 12.3814004144135
Pt 5.469919665759855 9.199025299525044 7.2736117950694394
Pt 9.388049244899156 10.683903103040228 10.6756997479031
Pt 5.814218509996511 6.5608066478216145 7.04195852748823
Pt 9.432145900674445 9.443852812079513 6.642063736648255
