30
Energy = -144.30913182 eV
Pt 5.6914987414424925 3.782387088513721 3.886056465756896
Pt 8.050276802257667 4.485773327719242 4.250620620866149
Pt 4.335823108236145 4.872963343064872 5.683787686783109
Pt 6.5173490767574895 11.398118585149025 4.470640964418423
Pt 8.614687267454727 6.994209573447894 3.6966028156942903
Pt 10.498069667737202 5.210153938411487 4.374346342986963
Pt 6.884848324379401 8.8004898483109 4.353294418993447
Pt 6.055525594331059 6.368522495175606 4.408463791441495
Pt 4.643091312199867 9.705323094064909 5.16221070872807
Pt 5.45504110674301 1.4181970308445235 4.859422882419698
Pt 4.167148309085435 7.413846133924904 6.117636182192139
Pt 7.479567575689572 2.5611274299191655 5.929021769229815
Pt 5.109712450327777 2.8182171201404755 6.9816462933488355
Pt 9.269821440607453 9.182007840372624 5.36740476710628
Pt 7.344065221775897 10.374151489592862 6.7120968547007225
Pt 9.292869982654645 6.674200411244997 6.148343209407423
Pt 5.167649857212474 11.726536266208608 6.789868876556259
Pt 2.8237565313524673 3.10894975707209 8.03751966305917
Pt 9.397822293520816 4.1549230675737565 6.615258657072396
Pt 6.730830257941735 7.411161701897902 6.745334180122213
Pt 4.241815484453953 9.53658652332935 7.77592987989738
Pt 7.318595906948235 3.9141526951608876 8.167697513146468
Pt 8.962603000579014 8.647726909358193 7.853190090853972
Pt 2.840843046209969 5.6376528490659386 7.583235072110223
Pt 4.83137061229908 4.537584299081651 8.915321344180882
Pt 6.442724096005555 8.926797442032555 8.904934871386219
Pt 9.173839722548738 5.799266063018237 8.643013536908724
Pt 6.66935889603871 6.221536212048237 9.159843527876818
Pt 4.305506134061393 7.276066159771713 8.99337842006038
Pt 8.47136455225928 7.828847677595413 10.201354965806239
