39
Energy = -191.94177302 eV
Pt 7.771920780174201 4.761713030650396 6.6226443651149784
Pt 5.165244971888066 5.262265166983569 6.659585711430596
Pt 4.715574480015418 2.952470550654785 5.619313045943933
Pt 5.082274884426927 5.1954803673818395 9.608929824663667
Pt 6.091529404879028 3.0760650684879107 8.141005214179842
Pt 3.5271552848840297 3.7123016530017203 7.9705846806429825
Pt 3.0278604753788945 6.31893774466365 8.139575437636273
Pt 3.835663857989232 10.017058807752884 5.610193499462684
Pt 2.814793489840443 4.975292744410953 5.631853169595303
Pt 5.788277626354877 8.958209939397578 4.059939766948174
Pt 2.8669928153504287 8.969297863382993 7.965387948946719
Pt 5.189886695999755 10.234989760217552 8.144100192942092
Pt 4.733387642128891 7.92373647927011 9.602635811285001
Pt 2.476328277845763 7.5774426799472785 5.627111513089787
Pt 6.799560535675121 6.805657710439493 2.7255424776122688
Pt 4.829597137801382 7.889855075936605 6.644698887883702
Pt 6.341623031367165 4.466351416538631 4.069887343911212
Pt 4.430930672876154 6.51202964241964 4.080046848324485
Pt 6.802922117823681 6.806561817798346 5.346658949301644
Pt 7.307209162808148 2.4505705035174357 5.604192781678036
Pt 10.14508649755991 4.975399330826864 8.135902535847848
Pt 9.031325682600004 7.091435172639157 6.676106579584705
Pt 7.227426996179544 9.0206452186182 6.642040340418892
Pt 11.090987673051464 5.965807730741388 5.617825851605109
Pt 9.857517475888507 3.63912026008865 5.610665427898373
Pt 9.590719589937285 9.415573352919376 8.139636822794522
Pt 8.897119761409044 5.670486874214987 4.070778818581836
Pt 8.546074574303969 8.435213577402855 4.078064905901918
Pt 8.972946526767343 10.628275396092022 5.625397957394841
Pt 10.756635066828737 8.703841014813676 5.632508783955729
Pt 11.278872048059622 7.367144612667282 7.969463618225434
Pt 9.149848003450321 7.103241420401533 9.606275409565024
Pt 6.797278241253768 6.802529007790482 8.171865162170636
Pt 7.641823380949155 11.221871799503857 7.962707072186637
Pt 6.807825907667994 6.807026997399583 10.842221374688208
Pt 7.811221694432182 4.684544430185939 9.592308592004631
Pt 8.71126847836967 2.7504287974588424 7.957669321405025
Pt 6.226644395671955 11.141495529692325 5.603502729352038
Pt 7.262123183903081 9.111110020441677 9.592649706654342
