39
Energy = -193.64369429 eV
Pt 9.170433044485153 9.219615513653803 7.378272858924837
Pt 11.186825446688292 7.7149575443682155 6.9471978519172355
Pt 10.997197114192275 6.121186349551805 4.886343576173873
Pt 10.559389587228237 4.492395616955602 2.770014058166296
Pt 7.511188575850302 10.130058227184763 5.379102069409618
Pt 8.824150380172172 6.330139242202597 3.1773421331233793
Pt 7.126279788232434 8.207860874414735 3.553463446909037
Pt 8.067982526417898 7.528955316928655 8.942789675025583
Pt 9.768159154191267 5.630218315312788 7.233691483475754
Pt 6.6346520406919405 9.483327594266177 7.86277119465238
Pt 9.256083498068017 8.109909062930544 5.084948865138546
Pt 9.322849473997412 4.053051854328772 4.984685649992116
Pt 5.0559349423467115 10.826463447703954 6.132538437467321
Pt 7.9913423302494895 3.7814329266451927 2.777602446391692
Pt 8.33129206691666 4.827441754408055 9.232753846604147
Pt 5.773819243670271 8.159782427488688 5.79396594526705
Pt 6.232190789436051 5.8459782096184085 2.83382329703374
Pt 7.472601059404365 6.037139671958811 5.635506965166991
Pt 8.794703708751733 3.1944770253556727 7.283182378835249
Pt 6.631141950682629 6.033645603551201 10.694323716597653
Pt 4.574825460961821 7.764819143898036 3.480042390499778
Pt 6.370411874291307 3.335982887920996 8.106480876378534
Pt 5.324192543892843 8.003491336970466 9.490223461285101
Pt 6.192068406818962 5.950283384865341 7.9491259570764585
Pt 3.8722829556034104 8.89223539136727 7.486835776770804
Pt 6.755357603768719 3.3297422876618716 5.499062615667847
Pt 3.1881660154764115 9.356634553905032 4.971921375754334
Pt 5.505433331416809 3.3310542060624733 3.2136122117076407
Pt 4.805582228846349 5.7833025168992105 5.821234305422529
Pt 4.113302687054701 6.4225323318153915 11.252356913667825
Pt 4.500470274809997 4.526587779292358 9.533823507535699
Pt 3.0279228183054565 6.881042412997145 8.915206894152977
Pt 2.0565816067748877 7.210892257923249 3.868694172118281
Pt 4.022614127156502 2.4228985925853777 7.930801881500765
Pt 2.4546062166743834 6.989955633080897 6.399933171616234
Pt 3.737630578539972 5.195206551085402 3.4780307850027414
Pt 2.851886857772515 4.667901243834142 7.49544516342144
Pt 4.068822807565345 3.276339185499301 5.454133666617535
Pt 1.7418133941954597 4.784311864201453 5.115181998834384
