30
Energy = -143.86630941 eV
Pt 7.254433802307404 9.099424951875697 2.949462901594119
Pt 8.191559322462247 6.86228244537029 3.532610650826865
Pt 3.8156281009321784 8.296112783091367 5.7027692945001
Pt 6.125374324237026 9.464810859950642 5.15836213364407
Pt 5.758383859714903 6.962826229398304 4.523133017683857
Pt 9.53103706206691 4.751452088982093 3.602468657219454
Pt 9.214134156434396 10.267875942210647 3.997267285385962
Pt 6.890593872793034 4.597266268751994 4.230613320408002
Pt 9.851808120403312 8.101109694747196 5.075307176414192
Pt 4.76796311225026 3.398150464787056 5.1392751451385
Pt 11.160018916430372 5.963386665978659 5.229767532558182
Pt 6.825048762513555 6.8748514638333535 6.9035981831517095
Pt 7.849358342988469 11.1352774601838 5.9262718014982605
Pt 3.7767017225569752 5.671365173742474 5.5795648036289975
Pt 8.88211361900408 5.081753728630807 6.058012539579958
Pt 6.594393411531403 4.172107689174298 6.840157340789254
Pt 6.343114487448023 11.677700633586346 7.85505450601475
Pt 4.381243551606844 2.920213655605383 7.609993632366873
Pt 9.900012275891863 6.887684285372931 7.647500242097492
Pt 4.400971461636172 6.988048819721546 7.925906713656647
Pt 2.8987399989333924 4.9270558042393215 7.85077976782094
Pt 5.353722839210698 9.306181675156031 7.580365185504481
Pt 8.44069035139182 4.8219029581811235 8.589636970497905
Pt 8.515543089265254 8.98157286322729 7.069044842258542
Pt 6.381841022779696 3.606344801963643 9.429927888897616
Pt 4.163160728589588 2.531586676318423 10.10830637237976
Pt 7.315430369828796 9.680996201448067 9.1894880071325
Pt 5.495068429953396 5.919140932454467 9.94863371177553
Pt 7.6208043295191334 7.155113965865928 9.322834742876504
Pt 3.2483036203172095 4.843599881148716 10.371082697697323
