32
Energy = -156.43064555 eV
Pt 6.30145408567142 10.28948754480959 5.27843496588775
Pt 4.890867861118374 9.751516038439885 7.501876229258821
Pt 4.134821470123118 8.814611444113664 5.210876526221581
Pt 6.092719253165851 8.31731077963281 3.44813765378538
Pt 3.5755099932755643 7.837604593013843 2.8387330110369304
Pt 7.665125513939114 9.785689651065182 7.4178914107723495
Pt 8.078783417195696 8.29831859025379 5.220208451724934
Pt 5.934799293191428 4.36851417026299 2.9416160325203293
Pt 6.179421801151557 7.521246346420526 6.926401913685308
Pt 2.764816364393254 8.032238736152062 7.285795409419781
Pt 7.753673405028913 6.23767734252723 3.5615438636333514
Pt 8.889355427682931 9.335861781987983 9.628174819994552
Pt 2.7582936726564453 6.518903091208191 5.117315162872965
Pt 3.5291934625940597 5.25275770567216 2.8054845371538453
Pt 9.321457642130822 7.738058157486698 7.598902298253904
Pt 6.194724685809277 9.799827928128922 9.736318698540261
Pt 5.3463703652404 6.183778085958102 4.719920793266453
Pt 3.86097733550325 4.09611929029966 5.197173881855412
Pt 3.953015093352167 5.639098045825649 7.374331249002171
Pt 4.635595486892597 7.538149161337886 9.075978041100731
Pt 7.1683192103151585 7.422726025061803 9.704182959060919
Pt 9.477480135521134 6.053184910969417 5.478467433599254
Pt 5.764747160915969 2.4203539409738757 4.672444314897729
Pt 10.83774102996002 5.628463869940627 7.658812809167733
Pt 8.074913967816942 3.7393422450771516 4.468590997622329
Pt 7.192914264370128 5.219338840420493 6.399545136870977
Pt 5.456671429457253 3.470364205835674 7.171991868112313
Pt 5.87946893746285 5.199398658115465 9.17705003560521
Pt 8.484212167300338 5.4914427207594 8.766695170903205
Pt 7.512424178568774 1.8496193539791417 6.44047084442854
Pt 9.31480346191068 3.6430385302392234 6.912154400183956
Pt 7.518488897184588 3.083884015646996 8.8240033246669
