30
Energy = -144.38170284 eV
Pt 9.636399724871394 6.5652811609053945 2.8951032909424974
Pt 9.136719981559041 4.343878042359811 3.869281136846897
Pt 7.411631796120896 7.560589674906367 3.681209861562678
Pt 6.09928868159915 9.39164921317232 4.990343173340788
Pt 6.805535663805867 5.044667902288647 4.510153660846147
Pt 3.4623474270336505 8.995305607871991 5.200815908630137
Pt 5.023232067181683 6.981227091439005 4.572858972752463
Pt 10.442496758616903 7.392750950965366 5.111453331665343
Pt 8.558494232182435 9.214861511454071 5.408969273597039
Pt 4.607867637285524 4.626709292291084 5.769028658415296
Pt 9.927028032236848 5.063428061951312 6.130835492662756
Pt 2.6962472142335114 6.618995738547911 5.804423457474119
Pt 7.880382526836656 6.742279625041778 6.2659853548034175
Pt 4.6747325149748296 10.962197106374704 6.399174671743262
Pt 11.339171036170189 8.219607734628212 7.279388638512344
Pt 2.3698045138792603 4.381068658382467 7.120034985882297
Pt 10.062371968135537 10.430846681439133 7.002995708006997
Pt 6.943973091666291 4.188679787328816 7.005927171109293
Pt 5.507713703357283 6.64306625337513 7.244176153365151
Pt 4.036718834249528 8.836413991114693 7.65974167347502
Pt 10.44605652195362 6.096481092548797 8.377405653419938
Pt 4.547405276449671 3.8827434325512633 8.3554490216418
Pt 8.818448846832856 8.430398000195176 8.103376589060792
Pt 3.1237868763167755 6.491206382885363 8.451101386793095
Pt 9.139587275825372 3.879645709073465 8.403752574257767
Pt 7.9179723923589185 6.19031810517698 9.104506992613969
Pt 6.447024911774929 8.356111047712389 8.97606541796858
Pt 6.775019797579507 3.7310835356911016 9.598145055005805
Pt 5.393246134980252 5.898619564281266 9.876410926670255
Pt 4.086811144061976 8.1574056281763 10.149402391063727
