33
Energy = -157.70336104 eV
Pt 3.9234751786261852 7.0526269893476705 6.463988335171588
Pt 7.178149408610349 7.198109178133986 4.985760388815511
Pt 5.67191582225427 5.187325230990383 5.5693832639805985
Pt 7.865614949463832 3.417309567782103 5.43310845916089
Pt 5.452857635745398 9.144819473607866 5.119169985167378
Pt 6.143309004330704 3.4740656892970114 7.432965488058435
Pt 8.90907454952828 8.55447805501411 6.8908813111553755
Pt 8.995873177787702 9.47828736306939 2.346599885602521
Pt 3.817302566830246 3.4051187876039 6.319514008489329
Pt 4.774418983615053 7.054209154858459 3.7215608769712634
Pt 3.338277476598 6.876101688732573 9.96990978588066
Pt 9.095060021626697 7.060755526023427 9.144309844671106
Pt 8.183411384054587 9.66902035302459 4.686283004494827
Pt 8.620396154794372 3.5278545865648905 8.047259118253892
Pt 7.541858746402592 7.5211682614983095 11.101617063786527
Pt 6.62445177102341 8.467979944306187 2.7308310354419825
Pt 2.4952107344309056 8.434217317801474 8.160892356206194
Pt 2.511279686043986 6.6618395679229065 2.797910156016632
Pt 7.045041381175367 10.308722792606615 6.887991104659437
Pt 3.674790086950592 5.013923672806233 8.287755066263973
Pt 5.509156897584592 6.816934045421445 8.570008137211428
Pt 9.144683487849878 4.679808010732204 1.551099967899126
Pt 4.8021393070154925 9.334078480262633 7.638166690439498
Pt 10.839520522795048 6.981085189092339 7.308779578260374
Pt 5.246383763831159 3.743988415450106 9.895689132761719
Pt 8.61512794391444 5.313237096351818 3.9096806866990264
Pt 3.0467479610719743 5.310917698278691 4.794121219796558
Pt 7.563860336266553 6.021610203355777 7.2814556840899405
Pt 7.063953041237438 8.839279882790875 8.996983972853458
Pt 5.560405384954712 5.952412966719536 10.95482265945599
Pt 7.058887528863982 2.064610696229632 9.421888821165725
Pt 9.702459744865166 5.042529333968999 6.233558127085073
Pt 8.617615126027287 7.024284546523951 1.9787645502047388
