32
Energy = -152.0784116 eV
Pt 12.407684549267124 6.056492568687678 7.260058882572649
Pt 11.306054010520594 8.01741131439852 6.183623826065111
Pt 9.99744626425122 5.611770143827223 7.1635390625668185
Pt 10.062318885092642 10.13158191169258 5.569159666876969
Pt 8.45346175079889 3.8627044752270643 8.155602813842282
Pt 8.91196639547802 8.412807214195611 7.125945390621408
Pt 9.372719643778172 6.825122121263661 4.909221141487324
Pt 6.7193039961137915 1.9731862462051255 8.733313342123548
Pt 8.314742713915113 9.004170032158664 4.165925247521173
Pt 7.589739614093918 6.359206624161534 8.114938780299243
Pt 7.986058728041724 4.777397335032667 5.606779459663837
Pt 6.963472582237939 2.5948251181469626 6.2558014306912835
Pt 6.91587696019213 8.934831280142845 8.619370875144265
Pt 6.497734568878182 8.49120303081367 6.084521813166849
Pt 6.478995898529474 8.931804392884773 11.05170150920697
Pt 6.166652369531196 4.392596894884156 9.413844984121052
Pt 7.538043732363796 10.378736650306983 2.236380922372542
Pt 5.648934396606255 6.842080802875686 9.974950810723557
Pt 6.923609472912674 6.595602276708878 4.025077637733772
Pt 5.669186739570978 5.809272020278152 6.278497787269001
Pt 5.637601202222725 9.083501330952329 3.481633494163884
Pt 4.606801019190412 3.419033802608331 6.0878322286897255
Pt 4.003709724193184 8.117561738373665 5.231659042852344
Pt 4.275349719383565 2.781472913479329 8.533289364927413
Pt 5.557474496062904 11.551260459930319 3.0936712782759286
Pt 4.043415100034325 5.536893143524944 8.426176114734698
Pt 4.571988820825219 8.078093141401014 7.8100582358230755
Pt 4.559774827032012 6.807306041572344 2.9894040762078764
Pt 3.564963583378047 5.432667316709796 4.837529391513275
Pt 2.624816836009975 1.858962956113469 6.789766478286205
Pt 2.2863304399616164 4.383649040749459 6.876098668054232
Pt 2.362104768599426 6.965129469759159 6.932960051468777
