30
Energy = -145.44757867 eV
Pt 8.251715964781726 8.858638080165525 3.3240707852789058
Pt 6.216410610698049 7.287488437581166 3.4849578676633723
Pt 4.249889998136704 5.632900027421279 3.959025958870161
Pt 10.593664619012975 8.478994369086532 4.615675356741273
Pt 6.520656019198839 9.35037847378474 5.153426631702294
Pt 8.597973066371702 6.697039839154925 4.786993182750589
Pt 4.325004444706952 7.8283485981619885 5.352807415868242
Pt 6.486916979871188 5.206407891261984 5.199967769080789
Pt 8.97553212407243 10.382691402904827 5.434959222639586
Pt 4.720603757247482 9.860222256833529 6.923008999929861
Pt 10.602551376166195 6.677958988513994 6.4895608798562945
Pt 6.080284722751534 6.850136520257392 7.196910452170561
Pt 8.440638983781739 5.1353747471708315 6.925187263580511
Pt 3.7533021113086584 5.363774492420507 6.4567477579742825
Pt 10.572520482739792 9.318329177472744 7.157009366199763
Pt 8.29626469755941 8.070534627293858 7.0094158250675465
Pt 7.193320216889955 10.659434388852661 7.365158813226188
Pt 9.546595706878774 4.31688189817601 9.087595896214328
Pt 5.950991413996989 8.89032644346471 8.969474435157256
Pt 3.6481070537488542 7.746320450243904 7.972496857015129
Pt 11.477431819998383 6.0702938389392775 8.720050811428663
Pt 3.07043580784251 5.368823371715524 8.88872747741689
Pt 7.170295273839684 5.340295251169309 9.578924008998378
Pt 5.918151191936746 4.220544904259085 7.547367240503853
Pt 11.215628319172392 8.603915611319383 9.494842580778332
Pt 9.23870646079001 6.8517966574688 9.610792126426478
Pt 8.653047274779293 9.398935248171167 9.23377654657688
Pt 4.977262319494371 6.656427641153513 10.094172742028428
Pt 7.197713090655827 7.748073119713781 10.877379383587941
Pt 4.932317371783393 4.002646526079675 9.963449625479189
