32
Energy = -155.88674743 eV
Pt 11.180987723906547 7.2176037765914165 10.515571905975502
Pt 5.377925536056256 5.3483858697269415 8.792334740179985
Pt 2.2243984572667017 8.544878935345642 4.2088694009992995
Pt 4.91767196949228 10.396028348888002 7.380442127069638
Pt 7.96197577751916 2.4633003130573443 5.448839023671239
Pt 4.913258552577733 7.963180154896915 8.483950885377318
Pt 6.917807674727258 9.342542831596399 5.968846837075466
Pt 9.203337348318549 8.573245845067875 9.80819700153962
Pt 7.0705476687635525 9.499330921570294 8.613356713717913
Pt 5.288222847474403 7.176558008474391 5.915321893413416
Pt 7.06401912223009 7.1078140937016485 9.87549528284349
Pt 8.513217839747009 7.515902309718056 4.855438946542121
Pt 4.397646933633699 7.312250082305511 3.398905020608946
Pt 5.299297375578641 2.454582413512246 5.228039517210434
Pt 6.8633233615705835 3.538456467046934 3.2640977905776856
Pt 8.892658851407218 4.862182310501301 4.45815560884879
Pt 8.968333802702473 4.131944644183569 7.166119678182246
Pt 6.3889546845885326 3.1312652731587027 7.606660493091919
Pt 7.702236507263525 4.5254268730284775 9.449748003458946
Pt 3.0167561981043107 6.190152319875546 8.015558460419594
Pt 4.491072072712798 4.663491336880632 3.894926248855103
Pt 6.742897627552688 6.150471450289145 3.3119673655654536
Pt 2.8498983244901313 6.249406662277464 5.335536895392326
Pt 9.187231068392565 8.56477830288608 7.212904254336804
Pt 6.581599103554548 4.889132260550169 5.6794204951789355
Pt 10.231178530068535 6.26896570586747 6.266458393643306
Pt 6.685370654507944 8.722825070759496 3.4113531871765255
Pt 4.571039426979333 9.626926808167443 4.834774857708978
Pt 9.803666810927878 6.011266024442893 8.85900195671147
Pt 7.499862567034044 6.622472707949562 7.378262763426856
Pt 4.1205997350075485 4.340444531226441 6.604884438560241
Pt 3.0550375882511926 8.576819088864491 6.738591555047682
