32
Energy = -154.0824464 eV
Pt 5.430000459094445 4.384061645127447 8.508777210710381
Pt 6.805510990530707 6.805191911928705 3.6167288965010504
Pt 6.805406879239647 5.454908764406299 6.164537566991812
Pt 5.396644029582095 3.3166473114222983 6.039575109839836
Pt 2.494498869769962 6.8054062903020025 5.461108943493441
Pt 4.565896791898258 8.1467651889972 4.442460233300051
Pt 2.446376351080636 6.80550138639304 8.300202298739586
Pt 4.664894038268243 6.805206717308261 6.952798548917245
Pt 6.805245280694967 9.451233627847387 3.8442290363242777
Pt 3.3054794393094507 9.003570192827471 6.891848493786967
Pt 3.305627196984184 4.607171204888085 6.891839490599556
Pt 5.396903915337697 10.294417378869289 6.039559551749193
Pt 5.430080136016417 9.226647464123179 8.50873394961642
Pt 4.53391345190549 6.805138699622291 9.801978845082175
Pt 4.565938541445119 5.4638807420439965 4.442461783258622
Pt 8.94634512189989 6.805214022416023 6.952982182279079
Pt 10.304676553595915 4.607434138722947 6.892007720646919
Pt 11.115628061299857 6.805344292470107 5.461533383147621
Pt 8.214192373409256 3.317141624273701 6.039551872697898
Pt 10.304987955583503 9.003265921261587 6.891988523837448
Pt 9.044513059736385 8.146602669748894 4.442587479389363
Pt 6.80518998984507 4.159497672062958 3.8443302176347425
Pt 9.04444238392558 5.46394453664824 4.442547004957752
Pt 6.805385552742446 8.155048834499567 6.16467343305694
Pt 8.214045864909002 10.293850393500357 6.039526428530181
Pt 6.805922301712276 6.804852005964424 8.404697843994725
Pt 6.80519764483208 8.177406506616276 10.583771976078001
Pt 8.180560937447794 9.226322764142425 8.50856914102803
Pt 11.1638669081653 6.805428780679597 8.300175583497296
Pt 8.180516453445232 4.384283821840659 8.508647536453626
Pt 6.805164012574119 5.433288561332261 10.583604930021599
Pt 9.076683626285606 6.8050599713980375 9.80169982752129
