39
Energy = -195.0199374 eV
Pt 9.639900035677815 4.956437137557962 9.324244245978091
Pt 7.019330152658221 5.155901540664953 9.975171917457251
Pt 8.609334410772536 7.196182485208941 10.388081333096087
Pt 5.509634197154971 3.4641614102637592 8.647556150048416
Pt 10.096279024891343 4.791867041934148 6.756200620620186
Pt 8.004352674636419 3.474059739816183 7.8361782678288385
Pt 9.739570744014655 7.231944597947244 7.964352960441565
Pt 6.047768432132131 7.6867458601412775 10.357133076570767
Pt 4.419818064162909 5.6298692127093775 9.65591650017134
Pt 7.397895757426639 6.099386271515322 7.589539706014148
Pt 10.42542494148893 4.65751437255042 4.143477850765894
Pt 6.186743538272036 2.4250092201406557 6.197843744520002
Pt 3.015034398076982 3.8923550836838814 8.037242722753085
Pt 8.452834379175604 3.278080408497859 5.191537638364962
Pt 7.70243634248848 8.945112498508513 8.64198239569823
Pt 5.379271705622021 4.907103140016805 6.511505484472268
Pt 10.013609999924348 7.053034693639011 5.319394783947995
Pt 7.693224945046127 5.758914322829596 5.1164869620997555
Pt 3.460127998938446 8.095910687984997 10.049159532199655
Pt 5.088245358094565 7.195579452777115 7.621890715790081
Pt 6.902149634488713 8.090174065265716 5.956465873821126
Pt 8.172420680418316 4.961790475789837 2.7638944333525397
Pt 9.138718713641865 9.28301248130245 6.442695214772649
Pt 10.061117045125682 6.8472885499882645 2.701465673740136
Pt 7.583142516376649 7.741903216471194 3.0127481026719147
Pt 1.9608855811810402 6.205174304954387 8.939922666453963
Pt 4.091122999351436 5.740597915313488 4.269665200027506
Pt 2.662025396573183 5.845816827085129 6.418875874572693
Pt 6.794425752272987 10.695361263378423 6.946766989358049
Pt 5.109092873670614 9.619543733334396 8.677871233316354
Pt 3.6346341218929075 3.3747390181373302 5.422900463224525
Pt 9.459631340662344 9.235057152449274 3.8290311533689305
Pt 5.995342318616835 3.8888695811892102 3.9479948227534787
Pt 5.7934770063309395 5.973207848146844 2.284738952581387
Pt 4.58615523357331 9.651548081312969 5.926459211091438
Pt 6.890554072026253 10.056786796315624 4.3412315858793304
Pt 2.8151483464027747 8.33770967276513 7.501515715976339
Pt 5.168725253020531 8.044250557643785 3.8755133593991107
Pt 2.7711246867061994 8.002729953756432 4.906077537788269
