35
Energy = -172.67518358 eV
Pt 10.53584083377098 4.348224997758783 8.55371572148653
Pt 9.137974442122099 6.364306482232421 9.394878718021044
Pt 7.70125305811017 8.427650247339816 10.09987216759566
Pt 10.399965785707384 6.453322645524785 6.9513251197988675
Pt 11.651300025639571 4.282221545927291 6.124942920768484
Pt 8.661900046099982 8.270685750291038 7.644063237481068
Pt 3.953991911361983 10.283697416023141 8.267882477717697
Pt 7.942938092882791 3.947787339678063 9.133558525982478
Pt 6.498834833059816 6.115644940793371 9.825201553991874
Pt 6.464897760610538 9.668410260793959 8.015264439486263
Pt 5.122131227032603 8.337506498375621 9.874897357257858
Pt 9.191790183915517 3.5679218091634417 6.48774083383291
Pt 5.316549206057901 3.907697806922073 9.107956510183175
Pt 7.619300274827688 5.673468688749218 7.088184062692825
Pt 5.545808669035717 7.272995314468415 7.402970364872945
Pt 9.799755203927374 5.314934150679127 4.5029439122997665
Pt 8.841346233347851 7.649089816106846 5.110058350870198
Pt 6.32649009942237 6.5954122524415535 5.0648241576618425
Pt 3.7083628726196896 5.9805296239155 8.828359113854477
Pt 4.8610334807305415 4.757872587555266 6.667608074529775
Pt 6.911319823232362 8.790665480458406 3.7275806363431645
Pt 7.883603664799857 6.240803396566954 3.003461055908723
Pt 7.5700145569355355 3.9473208614928796 4.504755455997206
Pt 5.2015054857635565 2.9396901685190358 4.742567681210303
Pt 6.731240283461661 2.9817932354882957 6.946533238613196
Pt 2.59405551290817 8.216887123373079 9.549903735633704
Pt 7.839040441770522 9.967040153257567 5.8370404564671095
Pt 5.910687937902477 4.489230035046534 2.5016354308921325
Pt 3.1020483863657375 8.278366079262424 7.017435826208658
Pt 5.1653590490068515 9.644220280420171 5.719828666201307
Pt 4.544680436425173 9.524019189495922 3.081928883355365
Pt 3.479439264376486 7.7337899330627105 4.544639539222232
Pt 5.2927575139448395 7.052015029686432 2.4958307705172285
Pt 2.6121458163094893 5.915801145117359 6.197649864005034
Pt 4.101770301201282 5.238132909379165 4.1617439461873
