32
Energy = -154.68237155 eV
Pt 11.094304013122947 7.563167655305494 12.890797882886512
Pt 6.8115965424436 7.777614454340857 11.248495068256798
Pt 9.116126912926106 11.282844999799154 8.372362391728933
Pt 9.015256039660263 9.024432414978355 11.902634103331408
Pt 9.698344805349874 6.6693559659389186 6.405847714561205
Pt 9.584999318026757 8.785593853651392 9.241146458688066
Pt 8.079192235120628 5.142635003647291 10.453984927683308
Pt 10.537271053798674 5.380094420843416 11.353936469584593
Pt 4.784866369280245 6.327515643059637 4.974910634902027
Pt 5.456999263347231 8.512362513358083 9.064665210563831
Pt 6.192535720917786 10.5878440860992 4.977103750434397
Pt 7.390937496400384 10.101009109058293 10.115035677882576
Pt 8.534809637205866 9.610132346085736 4.2798160688396685
Pt 10.086842168567058 9.406757104724413 6.471921066723368
Pt 11.687107511459422 7.780948660504856 7.752483694174494
Pt 7.381811732738124 6.113016240744877 5.375130688167456
Pt 6.362318394609952 8.129960778503943 3.9856289865856938
Pt 10.147394361106594 5.928641682440566 8.836021235848584
Pt 6.583981212262073 10.480312093181842 7.643166959752302
Pt 11.759464137377629 10.118302210155257 9.001929788840222
Pt 12.110364749527186 12.031480950193705 10.690719363916514
Pt 7.6704046460197635 8.426093307903104 6.534770070243619
Pt 8.42744599845077 11.544587500148642 5.991169284797413
Pt 9.627968936716398 11.376486020222453 10.83500024767579
Pt 5.573274409102764 5.811861902560234 9.954581843903792
Pt 5.124441153037962 8.569281548593105 6.418018355524551
Pt 5.461922199982871 6.076655243176085 7.425231959452601
Pt 8.642691584032447 6.5415155726158245 12.644068169895741
Pt 11.59991460910476 9.813054998987981 11.831595110233932
Pt 8.028798412332966 4.890345929362427 7.620534930163102
Pt 11.646923780741348 7.575365734856338 10.349326162035927
Pt 7.636775144519187 7.164600723886908 8.801345575815283
