38
Energy = -188.71618535 eV
Pt 6.574935846828056 8.452458524915752 6.574935846828056
Pt 8.670011233479007 8.670011233479007 8.670011233479007
Pt 6.574935846828056 10.338683849999999 8.46962329051139
Pt 6.574935846828056 6.574935846828056 8.452458524915752
Pt 6.574935846828056 4.6974131687403595 6.574935846828056
Pt 6.574935846828056 6.574935846828056 4.6974131687403595
Pt 8.452458524915752 6.574935846828056 6.574935846828056
Pt 4.6974131687403595 6.574935846828056 6.574935846828056
Pt 8.670011233479007 4.479860460177105 8.670011233479007
Pt 8.670011233479007 4.479860460177105 4.479860460177105
Pt 8.670011233479007 8.670011233479007 4.479860460177105
Pt 4.479860460177105 8.670011233479007 4.479860460177105
Pt 4.479860460177105 8.670011233479007 8.670011233479007
Pt 4.479860460177105 4.479860460177105 8.670011233479007
Pt 4.479860460177105 4.479860460177105 4.479860460177105
Pt 6.574935846828056 4.6802484031447245 10.338683849999999
Pt 6.574935846828056 2.8111878436561106 4.6802484031447245
Pt 6.574935846828056 8.46962329051139 2.8111878436561106
Pt 8.46962329051139 6.574935846828056 10.338683849999999
Pt 10.338683849999999 6.574935846828056 4.6802484031447245
Pt 4.6802484031447245 6.574935846828056 2.8111878436561106
Pt 2.8111878436561106 6.574935846828056 8.46962329051139
Pt 8.46962329051139 2.8111878436561106 6.574935846828056
Pt 10.338683849999999 8.46962329051139 6.574935846828056
Pt 4.6802484031447245 10.338683849999999 6.574935846828056
Pt 2.8111878436561106 4.6802484031447245 6.574935846828056
Pt 8.46962329051139 6.574935846828056 2.8111878436561106
Pt 10.338683849999999 6.574935846828056 8.46962329051139
Pt 4.6802484031447245 6.574935846828056 10.338683849999999
Pt 2.8111878436561106 6.574935846828056 4.6802484031447245
Pt 8.46962329051139 10.338683849999999 6.574935846828056
Pt 10.338683849999999 4.6802484031447245 6.574935846828056
Pt 4.6802484031447245 2.8111878436561106 6.574935846828056
Pt 2.8111878436561106 8.46962329051139 6.574935846828056
Pt 6.574935846828056 8.46962329051139 10.338683849999999
Pt 6.574935846828056 10.338683849999999 4.6802484031447245
Pt 6.574935846828056 4.6802484031447245 2.8111878436561106
Pt 6.574935846828056 2.8111878436561106 8.46962329051139
