30
Energy = -145.14173877 eV
Pt 7.94677264467827 8.610736862346746 2.7529631331899544
Pt 5.5202533269605825 7.53017138406693 2.816442153443501
Pt 7.609797077892894 6.13292912525437 3.3985204226721764
Pt 7.511846414514722 3.733162453197042 4.403196202951403
Pt 5.22638898639774 5.083555186231294 3.720703116235764
Pt 3.2710259988042973 6.907380276356387 3.9926362770527533
Pt 8.895152436151129 7.844262854530766 5.269946126019447
Pt 5.069112586670975 2.7845239410136426 4.899415450725262
Pt 3.012968082109079 4.36874070973033 5.070550127737894
Pt 10.931105593617307 6.77929427196175 6.412517062001903
Pt 9.663240326379533 5.262926373256038 4.736958263382029
Pt 1.3368021374173895 6.233943104553469 5.674964912212901
Pt 7.363506912852621 9.788358926201056 4.912527679267979
Pt 7.358970566247681 5.71007822788715 6.185859476597959
Pt 4.939321820576708 6.354578369497171 6.070204557742264
Pt 6.688286790805246 3.162278525807964 6.9212248965789485
Pt 6.800710700862138 5.765399555606831 8.88868465692666
Pt 2.8898297257401286 5.7078416789997215 7.687428225666928
Pt 5.072272548130638 8.782754311164863 4.954942436347482
Pt 2.9155058144546384 8.176209664515332 6.524767614297759
Pt 9.292839514540786 3.4596191620584644 6.531947744070044
Pt 4.131650397504435 3.473571049458208 7.230769850240114
Pt 7.718553448294599 7.92058000339324 7.652846046187628
Pt 7.262953191158989 10.40134573388172 7.329460719032234
Pt 9.30757879068741 5.716022532552965 7.999871472544352
Pt 5.604228796573526 3.4294114252687993 9.352302220430058
Pt 4.776341111189881 9.851382533537162 7.2169542828098034
Pt 5.055449088759588 7.610614087662085 8.33345743113389
Pt 4.279376625044854 5.5937029971048675 9.786310124530438
Pt 8.249520437929641 3.5259865658500202 8.97298921091749
