37
Energy = -182.03438651 eV
Pt 5.715977353434024 5.872778905095225 10.692216020893325
Pt 4.657923844260919 4.986197274903208 8.505044790445824
Pt 3.562861481589913 4.0875266451690155 6.330201252720342
Pt 4.929098031434173 2.4003873396202446 4.795169742947814
Pt 5.9372301943117405 3.1470455574617415 7.131576729605022
Pt 7.25795329893847 4.437333644333818 9.042352178985919
Pt 7.415098266059526 1.8751161383217645 5.390729853512473
Pt 8.284400514056392 6.337810594476154 10.680954081653375
Pt 4.5104821041299825 7.644224478557315 9.132268515796927
Pt 3.0605016216909977 6.580683468851083 7.16520078884727
Pt 6.582712077709705 8.353834760495388 10.740650556544937
Pt 2.0672815844537413 5.709348673430576 4.855436852268041
Pt 8.703422545442345 2.8696515704003827 7.487227094885751
Pt 6.913898231296299 6.990692667598266 8.167167907224858
Pt 5.5161604189860896 5.989353860715537 6.039106836955738
Pt 4.360910104663255 4.824990752382601 3.880326091680672
Pt 2.9598775921784517 9.18791183742951 7.742199168833042
Pt 1.8767177007271314 8.248110768116229 5.5080138857046474
Pt 3.763561598781705 9.99915514687509 4.86667775562982
Pt 9.090143390384013 8.727028821566556 9.862777829038667
Pt 8.004448367294282 5.1749126374548915 6.458345363644291
Pt 6.889170076703982 4.04456751255484 4.065735799663667
Pt 3.958394795160347 7.432380770946264 4.149580428867507
Pt 5.259909856005575 9.070264078016265 6.689885210640159
Pt 9.587915137765085 6.610601455626453 8.415201547027634
Pt 9.47522488567059 3.5388822494126635 4.900827206708387
Pt 7.008625344703803 9.618869788194546 8.500349748932479
Pt 7.517572300874837 7.644700494209785 5.606846698244861
Pt 6.270642347825129 6.49523100183364 3.268734498884456
Pt 10.586141619955855 4.6906285473898945 7.011583820788768
Pt 9.385056233851337 9.096585717301824 7.30551520455109
Pt 8.810557844435733 5.857709620424709 3.857368058851003
Pt 5.999372903637827 9.123609056372915 3.8760704838456594
Pt 10.213163546677881 7.006308253060465 5.82504221929283
Pt 7.44852082355237 10.275247082772974 5.918844780364293
Pt 8.250694895717086 8.239735722105024 2.8901822926432916
Pt 9.636369649000619 9.294068074720034 4.715773368884181
