39
Energy = -193.66728872 eV
Pt 3.501313444722453 4.901579810429077 4.271547957281746
Pt 3.145544407334205 6.632095707666746 6.2213948535871815
Pt 5.781190360659383 5.004574404194198 3.07540256760523
Pt 4.582313998546051 7.3300417116415275 4.203953186813103
Pt 1.8390903841491932 5.629157724916915 8.23177688599755
Pt 6.880665098893871 6.795621402791852 1.3455240268334172
Pt 5.322777393335594 3.2050174236949918 5.222350570348584
Pt 8.348160459717494 4.845152022832412 2.3096367925910126
Pt 3.0443847739417267 3.8235976471959585 6.582381907804634
Pt 4.626099377683862 8.905837500787497 6.439714609441282
Pt 3.637997912604238 7.753888888870824 8.64117749011794
Pt 7.940754185265515 3.8239248654025113 4.565273261778094
Pt 6.18862627924842 5.548291506726403 5.809430850487647
Pt 5.969885161621601 9.57659016832892 4.29618038211836
Pt 3.2347169466782404 5.73696462892396 10.466421265580665
Pt 9.417888520792996 7.230543447037203 2.0368192036843333
Pt 7.220116952259813 7.19244945730889 3.9334514802171694
Pt 3.038299745514308 3.380121095526974 9.228322823576615
Pt 7.610771615079454 9.227122591837748 2.2579733701698324
Pt 7.522995155789166 2.621846762525991 6.735671008187696
Pt 4.632845010845383 5.4387296520745485 8.035247969961414
Pt 5.26441557729767 2.9160074689446103 7.901584672651868
Pt 9.56679544897427 5.991781095753548 4.42874091243329
Pt 8.182649807880106 10.939948493619259 4.191787102488851
Pt 7.012803222296173 7.92329038505331 6.3977135624818935
Pt 9.50863687104411 8.656037536510892 4.2230580527143315
Pt 7.027672600281387 10.469577370147467 6.683175488130888
Pt 5.410415441449212 4.145777477190542 10.27900168285785
Pt 8.904883384676797 4.933728116870067 6.84782270184584
Pt 6.0399540106870875 8.979631121601138 8.721445260004382
Pt 5.502159521871058 6.962351747686819 10.41916615575232
Pt 7.071338125731886 6.171924363799771 8.30266911104818
Pt 7.74035131508837 3.7869581004871478 9.05729714441012
Pt 9.590737961356712 7.471971695789149 6.602380448469784
Pt 9.636688994200648 10.207404219677672 6.288094246480222
Pt 8.70210208778201 9.203784088963085 8.462350720685189
Pt 7.578613833572985 5.4693707113530765 11.06757757160928
Pt 7.823195934031022 8.072840505181041 10.58079814190324
Pt 9.425841977258731 6.5701603808200995 9.11137786001232
