39
Energy = -194.39980854 eV
Pt 5.57623070959742 8.238610551487346 2.0830003606667766
Pt 7.509533157862933 6.425172194759848 2.274448226803836
Pt 5.115948385546461 5.681677596651615 1.4834762854323398
Pt 9.755185062931277 7.266658863291338 3.1868314916212603
Pt 7.6944651886837905 8.958521059324262 3.484787577138162
Pt 3.37785032054152 7.11214818207985 3.04021773280865
Pt 6.448571052221074 4.238621806763194 3.2788163119505493
Pt 8.854836901224818 4.934156323156638 4.174273797086087
Pt 9.837072653724597 9.16609826306761 5.04315905039212
Pt 5.212270736996827 9.263220253836499 4.502146073919544
Pt 10.485801367292611 6.632143516487029 5.726332283165446
Pt 5.579846035694936 6.669720640296754 4.388052211023826
Pt 3.807193828433747 4.47308319022034 3.467436459271514
Pt 7.2952421713974 9.393167880136819 6.133189461988374
Pt 7.8807100867341155 6.98270805435002 5.385350081934017
Pt 1.780386799647778 5.798161867758299 4.579869766254411
Pt 7.532460087831342 3.010690016923445 5.4924058598049825
Pt 2.997246172437567 7.999503646936592 5.492136273446338
Pt 5.037329598168981 2.363952822987593 4.562811090180894
Pt 4.942035749548505 6.791570043025451 6.977131125221653
Pt 9.438357628090797 4.426277147989544 6.664064301528039
Pt 3.054800385446195 3.746026601487496 5.859195717802428
Pt 4.803443991262711 9.365675304711562 7.106827508106371
Pt 9.345537070181155 8.222134319290722 7.460869669708553
Pt 5.534954492283457 4.596377949113674 5.964940635276853
Pt 2.5420947248008914 8.36749543712051 8.090961554374731
Pt 2.31848884402755 5.898489717041529 7.110618569862727
Pt 5.25288661040916 2.497625241202623 7.316736494587798
Pt 7.719249559149881 3.0391546550587187 8.201106186911472
Pt 7.264802319077543 5.69026228172361 7.545375461179164
Pt 4.638696242127852 8.627013778994439 9.70034900020346
Pt 9.934480093902078 4.305016727741377 9.170968571438806
Pt 6.95737908346511 8.340503650340818 8.51947322026039
Pt 3.143209198962156 3.8087115451385545 8.504711759227273
Pt 3.7442310068403035 6.251919493293021 9.304415219183625
Pt 8.782673436825174 6.657108073694782 9.418635619336065
Pt 5.512598908709263 4.2475223315260004 9.286231106033195
Pt 7.734593269203161 4.484668537828228 10.525113139799991
Pt 6.212749506853691 6.608285839145536 10.367831926403003
