37
Energy = -183.13439812 eV
Pt 5.189553000574216 3.512591134781891 0.9376737308464234
Pt 5.4139052022706835 6.349877195151777 0.5259355556524967
Pt 3.4392712817687237 5.206020350345587 1.7714500920526102
Pt 8.20516092442911 2.989053060813148 3.04115727790745
Pt 4.7130688975259165 7.796360294646229 2.524408426105293
Pt 3.1983936192867017 2.706762784521938 2.70831224318711
Pt 9.54358483495798 7.744171677627286 4.6731089312598275
Pt 7.293931288171898 1.137776919997211 4.778898693922876
Pt 2.077501997557379 7.137421329825505 2.6650083264474174
Pt 5.075097461126761 5.511180330267096 3.7506262747138988
Pt 4.681531582388344 1.0677581789520063 5.2055821157480295
Pt 8.982383834319918 5.365432581466398 3.7990781817227353
Pt 5.6392691982758185 9.222400309808812 4.507883062439862
Pt 7.033239854683079 5.069230995838905 2.012073045491052
Pt 5.731085133450003 2.397158732410158 3.144489232696922
Pt 1.0035277603941486 6.947017372472075 5.0560661556644675
Pt 7.125786455617011 7.201316211807812 3.7272972224691685
Pt 8.577324519497706 3.3499791132818677 5.58638205882138
Pt 3.2955293078624575 8.169895749418291 4.787748634565785
Pt 6.574298924649619 4.94237102147767 5.736132905648481
Pt 2.1540362519245857 4.7134647691220835 4.076113966939696
Pt 8.821296670717246 6.026449899750724 6.481475901285084
Pt 4.343033975334118 3.66527728000788 5.433332732502672
Pt 2.217221792761113 2.2050476039187172 5.061736300109791
Pt 6.360202899422943 2.2805280654332307 6.956311583595308
Pt 7.44621198539495 8.318538623227356 6.149723793376177
Pt 4.337610376292073 6.1261000062653945 6.201786583845918
Pt 7.888697342869058 4.1793992887179225 8.023096845416813
Pt 3.772757753801269 2.172271188924523 7.486504231163271
Pt 1.7559475879233026 5.147720669044254 6.76306930722799
Pt 5.286435794905867 4.306106358703848 8.293000931221757
Pt 4.990574114028375 8.472850072475355 7.015505879445333
Pt 6.695976923267821 6.6328138892945 8.065049973329787
Pt 2.337768804227024 7.620990715143221 7.23799028385573
Pt 2.7874168522523286 4.272970245643501 8.887735402739404
Pt 1.1894571139290397 2.7296567619405208 7.3840153716141455
Pt 4.1265003996209355 6.61063093495444 8.848830462446246
