30
Energy = -145.75719871 eV
Pt 6.104708273292671 8.896426730326644 3.161430407481464
Pt 7.276477303512663 6.6619879666074295 3.859352098677563
Pt 4.646087610137624 6.762715994038602 3.469511330013089
Pt 8.234152095752417 9.008365316392991 4.821269858471831
Pt 5.733820599211899 9.61073664061442 5.581375390446004
Pt 8.51179063988472 4.497687773143966 4.418338681740992
Pt 5.888429567663721 4.510056631903849 4.403918173502647
Pt 3.304910240410481 4.760953797815688 4.5768027049079185
Pt 9.432722941828892 6.675969941443431 5.453248985303693
Pt 5.635501196217231 7.055216512975501 5.904547367453523
Pt 2.994018326591153 7.131349702236963 5.569665710396226
Pt 3.2863646142866125 9.484265081832442 6.468955643178006
Pt 7.142566940239918 2.521369143685796 5.685222319618314
Pt 9.670620074600398 2.493087379834993 5.630981351521731
Pt 4.608321071296877 2.7421600567850573 5.922804877159543
Pt 8.697306826371285 4.4472354252027415 7.024000181491717
Pt 4.071428247714813 5.087419731506362 7.030624600488317
Pt 7.675885940726727 9.564372877421826 7.398933800305729
Pt 10.031256443288603 8.845873470901664 6.732605303574378
Pt 5.193103614240449 9.955644634467067 8.13127717339354
Pt 7.707731902794191 6.920640560160169 7.35749254014147
Pt 6.191431386614988 3.6401513917252384 7.8077479171064095
Pt 4.253962160717886 7.507708233846169 8.07651360553369
Pt 9.988550275850946 6.306664365469223 8.296774018687286
Pt 8.350290619357356 9.277550527070064 9.811553422751023
Pt 7.737195064250934 5.114581029032436 9.355045307977544
Pt 5.981029635813561 9.79185783341141 10.523609627041035
Pt 10.682962200854108 8.598762940980945 9.197162712619447
Pt 6.549337840699352 7.444556165716339 9.620705413160128
Pt 5.091239633531254 5.357835431204442 9.381732763609405
