35
Energy = -171.68396689 eV
Pt 8.091968052045521 3.321996922612635 2.3441117076845783
Pt 8.030310877493172 2.6419292973869224 4.884642877716858
Pt 5.975924536324534 3.919099944587249 3.6860405214751073
Pt 7.1421953247233025 5.805856451027778 2.213634530499344
Pt 8.689534404751267 5.081529700789695 4.197073383279454
Pt 7.866490183830631 2.1728604418660655 7.418266614762578
Pt 5.7100396286088415 2.8479104298735485 6.0824848439567685
Pt 9.3581644729291 4.239696264148815 6.538913651623014
Pt 3.823901431355436 4.348021238521717 4.921157009040872
Pt 4.933623911087281 6.299210015039483 3.6685876933027313
Pt 8.567101172064065 7.573361038425292 3.63466274571477
Pt 6.241165478643124 8.226172549451324 2.5059106501596036
Pt 9.647112558586604 6.753817572436573 5.856047116752573
Pt 5.732381816681555 3.151689951984882 8.736874451022139
Pt 3.5759014563650275 3.242290228585139 7.412224549779242
Pt 7.854244770704357 4.537724302807978 8.581589340575572
Pt 1.578466239800048 3.4842627518104043 5.826391773010219
Pt 9.527800654980958 9.298534416984882 5.2385958197850115
Pt 10.012321451265516 5.984752750833327 8.341041614040769
Pt 6.231590969501068 5.046856545232757 10.542045751809232
Pt 2.156579845539305 5.427413763212113 7.382516193441064
Pt 6.997299942047503 9.50447452371536 4.595838069111001
Pt 3.2882998677271917 6.845156303446012 5.553620150195466
Pt 4.48679411452755 8.821437893767524 4.319077988192806
Pt 10.450641827642118 10.581052411495575 7.266260535824062
Pt 4.116385408304211 5.260017105240723 9.083135827320415
Pt 9.23477018398853 8.436091365273336 7.907500895894942
Pt 7.8778451675959165 6.921096828184965 9.539654313279739
Pt 7.855356768205666 10.566614234977086 6.788553983533798
Pt 3.37887712078991 7.522898425509584 8.108768672091076
Pt 5.357905348798987 10.04209877988205 6.536862320136968
Pt 2.8846170508734152 9.334290180557781 6.302691657087886
Pt 6.734794847464267 8.957135674353461 8.487024464139312
Pt 5.298694158329585 7.421874408301537 9.976781907969885
Pt 4.31640992805621 9.728437671175138 8.897723775390995
