31
Energy = -150.64303742 eV
Pt 2.6609131626093143 6.202230848650936 8.364068917769709
Pt 4.649453092254904 6.448887991614968 10.048602032072445
Pt 3.3673426995695532 4.920423856472862 6.164875771706506
Pt 3.1196698967592096 6.2301694011818185 3.8403074562635218
Pt 4.4633699279755055 4.131977407158796 8.576481892594323
Pt 3.981590349690899 8.82965922991345 3.893846323186789
Pt 4.6501179515480455 4.025237670898694 4.046254862518134
Pt 4.077021765525945 8.545481497708101 8.42099788059923
Pt 3.111612241880752 7.613563469643988 6.118075999982845
Pt 5.351949879943188 6.464101000525653 7.4837181060899125
Pt 5.135978518879432 7.127791362860316 2.249364859874591
Pt 7.000010003892968 7.50829870894032 10.54335741463044
Pt 6.886124262441988 5.194747997558787 9.353380541457055
Pt 4.671941066028244 2.6680154074662323 6.369365724225903
Pt 6.472499007195683 4.56815731130936 6.09138022007117
Pt 5.514849783825104 6.627427065846544 4.8303967651003665
Pt 5.330975959167134 9.167391469672038 6.150979886919641
Pt 5.807460322744909 4.605055518338445 1.8312271993445806
Pt 6.8186405423004475 2.938314651546557 8.047694453275291
Pt 6.7866009423175635 8.74102365475932 8.312490431463624
Pt 8.848563821675429 7.0135216284732 8.727764029781456
Pt 7.494516490154823 6.204063184028324 3.0130339612455743
Pt 7.615961831138009 7.013119582707419 6.304388474998046
Pt 6.7122906893770935 8.7929509339738 3.7759578386951222
Pt 8.458396933116443 2.6907550057439082 5.854445401215666
Pt 8.843091270501388 4.631611411305817 7.585720832080442
Pt 7.902114843329144 9.610419452645875 6.000818188849514
Pt 7.293015773066101 3.543099842903546 3.709880583621411
Pt 10.307810062300671 6.6466358668083725 6.61323500278712
Pt 9.122436085323253 5.0971058369353095 4.830931411540627
Pt 9.128366155665855 7.736426544194172 4.367855996026571
