35
Energy = -165.2207131 eV
Pt 9.95184704927789 6.771158769966058 2.892735032483678
Pt 6.8607229544266035 6.437954743499407 5.851030266427452
Pt 10.979347735526172 6.827750259870307 6.380895661221778
Pt 5.524144821458176 2.6985803304946567 4.583486684572377
Pt 10.756163267594939 3.33300913856931 5.23250686492561
Pt 5.908367035122702 8.420239155819317 9.463904826245535
Pt 7.659008988754328 10.129473985127463 9.505578883416717
Pt 8.126016064752694 9.503022186793524 7.182955747575338
Pt 3.582294219798102 4.894534869015908 7.86073762823163
Pt 5.970980353329775 6.0525002888684645 8.30284772948876
Pt 1.1965306424053064 7.384722699721016 8.260087556461352
Pt 6.217925719474579 9.172877578885576 4.283216694620696
Pt 8.155168510975193 10.683007757361617 4.966159249374681
Pt 3.646056067162065 4.206637488551575 5.363583581367872
Pt 7.121212828411161 10.902949918224385 2.602774612598085
Pt 8.644135259550662 8.907195544438224 2.696850819273071
Pt 5.103753066565771 6.36713095691344 10.74841288020065
Pt 7.361908330254457 6.615228776611452 3.177271298731206
Pt 3.7840799069339965 7.7580090752495225 8.145177786477833
Pt 8.541830143567324 3.7235135775993653 6.57845629547473
Pt 2.7128536317204515 6.189398138482174 9.928647272124156
Pt 6.9895056557032476 4.879756833964547 11.198107241171554
Pt 8.881746373976036 8.104133598577091 5.198199042773612
Pt 9.720180835385293 3.2474796931121044 9.802348338414188
Pt 4.919399821611138 7.2699059029170225 3.3196928333398077
Pt 9.099544373951476 3.987413698029895 12.022057490129349
Pt 5.92876688040175 3.8871016439732746 6.865843154453922
Pt 7.56396271933247 4.106535020975512 8.913577293041534
Pt 4.249610002840699 6.7243608953576866 5.674722375240663
Pt 9.566920696824228 5.588462990166177 5.084305245245158
Pt 10.799325826406433 3.7695061474737495 7.6991628446843805
Pt 7.386220219053048 4.308423348467915 4.328124349531942
Pt 1.9018451415873985 5.910722599984152 6.285249420009291
Pt 5.758891782937573 8.668853224605094 6.7444220066205585
Pt 8.594919569006608 10.380227009839626 0.6686488415579621
