33
Energy = -162.73996454 eV
Pt 9.315017563469038 6.423019526602297 6.548712381144654
Pt 7.717254575375102 7.9883742776657245 7.9077671623576835
Pt 7.938152526910287 8.242466440342469 5.279988937967128
Pt 9.168068344826665 6.336290697090465 3.928908590944128
Pt 8.867437842875992 5.790793463701776 9.09130122393134
Pt 7.350396015522514 7.786441876897516 2.6481146923654406
Pt 6.452648837590403 9.937350584230636 3.92661606655467
Pt 8.173485656591515 3.053269352535958 9.178862990767948
Pt 4.94344728135005 8.705442539359309 2.1203591543105302
Pt 7.726505601736166 5.2503169714557 1.9177149480785718
Pt 7.662649509083125 1.9685353100994487 6.786268804941392
Pt 7.216515127390052 7.43226619318592 10.459521963439427
Pt 7.734023732668577 4.514051411780449 6.974255265634523
Pt 6.115567131792064 9.727104214028653 6.512588352522385
Pt 5.9649640930232595 6.625010760753409 4.7433073204138285
Pt 7.448810654609998 1.9269719262851461 4.207437541164502
Pt 5.242712002520543 6.067713049045278 2.1375208752267967
Pt 5.810211334910913 9.275722814001453 9.113342450312421
Pt 5.746458051995949 3.546418562274863 2.7492211122686703
Pt 7.467524065247982 4.5367741998000435 4.457959450282118
Pt 4.327485350503105 8.725489477344802 4.797819204351553
Pt 6.4887314656719095 4.998771830441996 9.755972374096114
Pt 5.840476540007149 6.333216431762938 7.284035460009923
Pt 4.086201706637488 8.303475929340065 7.375172076636617
Pt 5.445533216995864 3.064308571368019 5.396110405376697
Pt 3.052483151659935 7.145736438259409 3.141230208230444
Pt 5.709508167349072 3.072688810605253 8.093204792627507
Pt 4.721159465392331 6.959665501236688 9.710915532320632
Pt 4.007867250586513 4.955933825422837 4.281569819482886
Pt 2.730794707885071 6.781320562309443 5.690365170731044
Pt 3.957560929701612 4.43397626894167 9.506156761024696
Pt 3.9286611937523093 4.606693122850185 6.873188657269762
Pt 2.57408852271653 6.38235667475361 8.279670336646166
