32
Energy = -154.19756804 eV
Pt 2.583910395960832 5.788035660810508 8.237784963377528
Pt 4.715181165320944 2.8581422007946298 4.760114505389456
Pt 2.7402744434172623 4.765323967275741 4.430172933875444
Pt 3.215571815409589 3.716678928314052 6.899467638903551
Pt 2.9590229909890398 8.458113657927555 8.046344193070496
Pt 2.9334777409487685 6.9126570801812415 5.823177049899481
Pt 4.08206688371657 6.96897921361585 10.069394090229514
Pt 7.324934816718782 3.0339055746713437 5.26083140014284
Pt 5.137702563961331 5.1551163094161705 5.906139591294982
Pt 5.069347961780673 5.015483344386275 3.2540272996281066
Pt 5.640590801363566 2.666919252188393 7.272700729129987
Pt 6.713584231838185 6.961743689906784 9.668495074619846
Pt 3.9776197449119297 9.39037659159156 5.7375563395678055
Pt 5.175877660423886 7.316242373172114 7.295408109325787
Pt 5.1780549596624015 4.993500220399198 8.620991684503682
Pt 5.302441284579282 9.184663784012194 9.112526067594587
Pt 7.572462735565947 4.363495695875903 7.630090897454139
Pt 7.7221058495960655 7.287323994872828 7.117826101815736
Pt 6.334354342301738 9.729248666718867 6.626347250673365
Pt 5.113917718378746 7.528874848042817 4.330047091194315
Pt 7.47641716501043 5.686533891741619 5.122269953964715
Pt 6.866628908567196 6.828273998742175 2.547424249293836
Pt 9.707542864613915 3.983831600315439 4.723757645700137
Pt 8.956279315307714 5.844742902180031 9.255350849579955
Pt 7.615226925785751 4.282327334598688 2.93532050982826
Pt 7.8751768252821375 9.287987516066348 8.79040354383577
Pt 9.80636131471193 5.6022172626597175 6.713585035696775
Pt 8.978370642993934 9.90449091077911 6.397326039935338
Pt 7.624841172019727 8.3647798400688 4.67262141559842
Pt 9.336788198996636 6.368736398741123 3.4495449451003304
Pt 10.06743540702393 7.96046301280627 8.01608769710191
Pt 10.23764954437386 7.845312768968348 5.317709953182676
