30
Energy = -145.59594407 eV
Pt 3.6207212407712395 7.690406515656665 5.501919906785469
Pt 4.3073278583599475 10.278629406409921 5.452912162272926
Pt 3.930795916201727 9.123574480055042 7.687020463163469
Pt 3.4439470568868793 6.539688649510356 7.864481987410351
Pt 3.937764199832729 6.309540609218967 3.3551246477934336
Pt 3.980552784396279 5.160634299034465 5.765065832977835
Pt 3.526976732011647 8.071913983821952 10.006281347349669
Pt 5.4520291752578585 8.347134310850267 3.8495714801647702
Pt 4.704684090173719 4.27036397209548 8.051164613426243
Pt 6.012028685679597 8.154715632669639 9.157892486215227
Pt 6.383137355667044 9.533188721042682 6.942030153252977
Pt 6.786936778794718 10.447880623645949 4.5017776907832365
Pt 4.927288788888055 5.899348048389977 10.029265155522625
Pt 4.910984386941411 3.8489620339284607 3.6664973065655397
Pt 4.893953238323506 2.657077273232857 6.060635353041107
Pt 7.283265640572853 9.283360703780028 2.2764460898626937
Pt 6.516799216162987 5.921002084261614 3.80271304866862
Pt 6.224935243660225 3.724225613399522 10.178093350326279
Pt 7.064710082961158 3.668166328000329 5.091294906710298
Pt 6.902158670309671 2.951153455847043 7.696175979096078
Pt 8.193015745371316 7.874130388361099 4.167638909849756
Pt 7.520413970408625 6.050153460690205 9.43150497017568
Pt 8.82235821381951 9.717754597441314 6.032271466465776
Pt 8.144389863605165 7.90149831336939 7.807585257155675
Pt 8.894336727159969 5.4240456137690245 4.601732214316506
Pt 8.738788790481228 3.7593858716340987 9.319793635964762
Pt 9.025707263346888 3.982822935590416 6.730494896302211
Pt 10.011359662779943 7.464873385953844 5.986429589063659
Pt 9.831924615437819 5.927605026172707 8.184611821820416
Pt 11.178431489829572 5.188487146259981 5.973296761590166
