35
Energy = -165.50862797 eV
Pt 6.667847382232705 10.55662618711522 6.74845165558744
Pt 3.611118517469093 6.745014316469456 8.080485844003233
Pt 6.323574429675066 8.061021663382814 10.695825050841275
Pt 2.766043036233911 9.096466055280729 7.59041662682685
Pt 7.257555881200248 8.513750814705219 8.396723890051055
Pt 5.625258836986823 5.374964940647915 12.428704886706747
Pt 8.283862261238033 6.6393073968304925 3.0163648501938085
Pt 10.322800140737996 7.27833259781996 7.208419144971885
Pt 3.6425612814576156 4.324078247597994 1.8522616420573457
Pt 7.237236681902441 7.298720901117582 5.357572724423039
Pt 8.079398709824586 8.932779286352355 2.2203740030796033
Pt 5.661444571672209 5.050875202558939 8.47866934410298
Pt 7.303834881476091 5.650477328576346 10.5083539942363
Pt 3.846906831455436 1.4893615571587988 5.237234079501171
Pt 3.810872873538273 6.185207502158346 3.5821258044490842
Pt 9.236649859228178 3.0342208903952286 5.749332359525745
Pt 8.608551160611185 7.446872675168372 11.904422756600766
Pt 4.470780651899126 6.356048340442424 10.381881423590592
Pt 7.311751220846297 9.711854403292508 4.395934143185875
Pt 8.134864476512764 5.9216965153154755 8.046735440242731
Pt 5.011368824107776 5.827138171416165 6.024725599257974
Pt 4.152369876785453 3.731588501749734 4.286552466338479
Pt 7.0510378521164885 4.156788299657266 6.471413744419412
Pt 5.21218414096917 8.481751825734907 6.872825252810566
Pt 8.507559382320203 4.882646562067729 1.1524662948382438
Pt 6.059948681860492 4.529782034877371 1.3855689316884896
Pt 6.4810358134566375 12.029693891569949 4.738457004457808
Pt 6.232898531772642 5.24856528194585 3.7658845361021283
Pt 8.57678777138986 4.052804940182923 3.5375093459690485
Pt 3.078673497218026 7.571659509218322 5.563344061005112
Pt 6.4561024498438 7.551866195066066 13.261841530918508
Pt 9.217720048569172 5.6172499039424135 5.5714278720437695
Pt 4.724884122999538 3.1819330397389285 6.7893867988099466
Pt 8.834940482038306 9.063850553222583 6.355956452006652
Pt 9.406537496792003 7.611967125660899 9.549313103592903
