33
Energy = -162.84370221 eV
Pt 7.435454486823162 9.83536371519179 7.607100694980787
Pt 9.33813367421757 8.361744830307272 6.54079831731491
Pt 5.402972115657891 10.27765248572498 6.0227960459668335
Pt 7.801587183669689 9.58828918416048 4.906036232000665
Pt 5.945012874002005 10.629933085859626 3.4370467354900147
Pt 10.709950294417988 6.240439450009009 5.972008842125515
Pt 8.757494716877764 7.110607303501233 4.322369818456423
Pt 3.088538313492194 8.939534060184647 6.4135350360448555
Pt 9.54953740304245 9.17984143125028 9.011971207625189
Pt 6.61720236747162 7.997481595164543 3.049032399284668
Pt 4.460562439262992 6.421583963316074 2.7505967643557057
Pt 9.971171526884866 6.655724557029742 8.578485936132125
Pt 7.678205609709386 6.30256639347247 7.001284057195733
Pt 5.159048254125476 8.451084143934333 7.985676118184441
Pt 5.980169856397802 7.643605916040645 5.618474085659152
Pt 4.207214070601015 8.78905425497271 3.9828101364205026
Pt 8.702035874811333 4.636691285249577 5.322299285553006
Pt 7.411568722925818 7.63290355483485 9.205352308103928
Pt 5.300560654180928 5.275916786865019 6.542362873966613
Pt 10.147074960269808 4.2454681399323615 7.621078034541943
Pt 5.466502315672123 5.9380339841501915 9.128311776108061
Pt 6.6575299460622785 5.460416335065957 3.884677838463649
Pt 3.2649974173072454 6.655733891102437 7.665501113821506
Pt 7.977154452761637 4.900522583509467 9.163769072140811
Pt 3.1305197424105518 6.6964485877329745 4.995471204573269
Pt 4.200654103030672 4.345500939707083 4.348084039326155
Pt 6.4821175911259745 3.2229418255769278 5.27366520832149
Pt 8.108661604121362 2.7953211724037703 7.3301318410521565
Pt 3.3976076939888302 4.268345598764267 8.636544626646522
Pt 4.03540939872331 2.7695045303244323 6.51183344333226
Pt 2.2027791740933993 4.592939149819104 6.244800947565371
Pt 5.867206495746296 3.4147691571926067 8.530580819924143
Pt 6.064155246148202 1.2603264996514187 7.056159227053677
