32
Energy = -157.17377146 eV
Pt 3.7935568530602457 5.43556049144059 4.730406896570841
Pt 5.390352208905792 3.493738357431942 5.272857447215374
Pt 2.5358880866660485 7.7611623642690315 4.799860045586015
Pt 4.784779477533943 7.292432928039878 3.117056590767131
Pt 2.9261302834666085 6.407512794047051 6.978449594331951
Pt 5.5227851248810715 4.787152788891637 2.8406006990288764
Pt 4.207721007169167 9.644997232008043 4.05958565678583
Pt 3.194007241714467 3.7737496598457025 6.723088921130087
Pt 5.975954064457764 6.75986509547127 5.344318547785829
Pt 6.570244410270401 9.367710613343394 2.910828089173316
Pt 7.560481191076265 4.700280497930789 4.509295469765078
Pt 7.421085488530513 6.794777441197258 2.954925558227813
Pt 4.414484954914987 8.562910510925223 6.49334429457333
Pt 6.32066749852184 10.17047363624376 5.491738469945616
Pt 3.5009198655501286 4.951981131099834 9.057897019455439
Pt 8.10376316172248 8.42673699706034 4.830291379710931
Pt 5.59467887116342 3.8595555406439006 7.849645586419886
Pt 4.801710920120495 7.225345579261193 8.68498810331081
Pt 7.71261585670665 3.0445990779202865 6.5431922597257985
Pt 9.605552907169958 6.290944038678041 4.608947031657732
Pt 6.5801981096717395 8.935836421524199 7.90848789948863
Pt 9.865556083988405 3.5809037619264643 5.005664373105231
Pt 7.000645591962735 6.270161665393058 7.596738406085511
Pt 8.582888226805958 10.181847945201264 6.774520661604599
Pt 9.53598241044893 7.71652378552882 6.855711604971788
Pt 5.737124866983962 5.1859939688326415 10.23122634240573
Pt 9.34147459278704 5.118974394964123 6.993295302890412
Pt 7.938868042861262 3.9789139429739966 8.995527221456769
Pt 7.04220420197435 7.528637939247896 10.141174184176116
Pt 9.004962816347287 8.973212776302418 9.064984615100176
Pt 9.278775595860704 6.36665589077275 9.251497199694917
Pt 8.068424382044192 5.325335126922158 11.294338923192159
