32
Energy = -153.1890617 eV
Pt 9.970077545786483 7.319776715523976 9.69418804354159
Pt 8.105791780612948 3.0147806293137895 9.015026454040203
Pt 9.498982307288486 5.186968097177346 8.478694578216734
Pt 7.020582720700424 5.391643547936756 9.57726495433756
Pt 7.7916719145660345 7.326924071764587 11.036711097513752
Pt 8.946923777099075 7.363265168526052 7.1215809940877985
Pt 7.279327400048311 3.0485932166840715 6.477516752158396
Pt 9.018641829017097 2.817261940940677 4.619879935133914
Pt 9.292599925131897 5.166491610037117 5.760088622967581
Pt 7.95250440916951 8.915024659005828 9.02533579696862
Pt 8.302301125608391 4.882996130756073 3.3156994680667022
Pt 9.933236837175539 2.99497958416594 7.089236368330979
Pt 5.629420398516186 3.613124061414678 8.414189878294566
Pt 5.703989679627228 7.624567855002608 9.431615401576773
Pt 8.335869419657305 9.815265819262255 6.680725378955545
Pt 6.7910787694075365 5.8229973325893365 6.780662497068555
Pt 3.7134177566959514 11.112196803942208 1.9497520809387412
Pt 4.3317903934174025 5.470668809397674 9.728889809040862
Pt 7.8946827373447634 7.078163145539181 4.704336255557131
Pt 5.837036241348157 9.676560283479 7.657386241513706
Pt 5.024479389237319 4.1369823597794255 5.866746283907192
Pt 7.054924937289596 5.91320411463666 1.402789513272483
Pt 6.445700269857941 9.17121614623589 5.088218015956378
Pt 4.217213449944864 6.252743667738856 7.220523840725232
Pt 2.169446330583208 6.529408619333698 8.903801547089586
Pt 3.3180068933436426 5.057121797400605 4.2130034737357125
Pt 3.5794422880537526 8.535402942714713 8.305335896843511
Pt 6.286296592739165 7.844897487461601 2.7942391860213567
Pt 5.774925866460325 5.052517494109431 3.559915427128237
Pt 4.656104883121963 7.14555203473894 4.82501373614591
Pt 3.854416629646554 9.372010586651216 5.942623303162305
Pt 4.416577227387629 9.494154992624484 3.466470893587235
