32
Energy = -155.99599406 eV
Pt 3.8176699086005215 3.35869823365069 10.572284009001251
Pt 7.0676254629973245 4.353715397891519 4.598536833023404
Pt 7.752911522857929 6.52192400731414 3.2203449340580175
Pt 6.453554962417426 3.25285422729233 6.881794689051123
Pt 5.196140277205834 5.6773495031525245 3.2587529528342163
Pt 6.360136440422172 10.528293481470778 3.9759014415164713
Pt 3.9891914753309106 3.780289623079997 7.987761407656696
Pt 5.647470401879223 7.27832441699503 5.297864103513462
Pt 6.039650760357384 5.827396922439731 7.428722474695182
Pt 8.875321167202001 4.236193159526482 6.5874163764210385
Pt 8.296013020098174 9.118583246163697 2.9276862956002545
Pt 9.125966768721145 6.422983794707457 8.36942245074366
Pt 4.959154593567555 7.996167201293183 8.497047785016283
Pt 3.1755374271579506 6.222683325169278 7.333471764847295
Pt 8.05686559482726 6.732295850482261 5.910141798910234
Pt 9.913927891734858 7.70191413357644 4.358626791572297
Pt 9.659176798158429 4.918195740099158 4.127042819202746
Pt 3.9605391122817326 9.60864338491837 4.425152213874618
Pt 6.903106073671155 6.7013597636463995 9.784313093811022
Pt 3.077210749004482 8.760244251080097 6.747599458946506
Pt 7.790830568269885 4.250672591268744 8.996899588226556
Pt 5.716678961427063 8.240726674334596 2.9156151536940813
Pt 3.213591939706445 6.955027609165981 4.740888751116068
Pt 7.520272924241575 8.611539167231104 8.03027438171933
Pt 10.052437995488312 8.545180782055228 7.060094292580393
Pt 5.617275295935206 9.556180678322034 6.4714465932559335
Pt 6.1644239316260565 4.463133597265699 11.042601757076248
Pt 5.901025885816031 2.434864889024797 9.31049274815432
Pt 8.11616806277775 9.445734567745415 5.5779546034375995
Pt 4.521694600270356 4.638549891246919 5.573642715366011
Pt 10.75533531173951 6.0855474994305245 6.29098972859758
Pt 4.31221070452726 5.7838489792781695 9.708332582798285
