37
Energy = -182.16240221 eV
Pt 7.343984949629035 8.422464788722749 3.899294381044029
Pt 8.334445171498903 10.417134041797702 5.330872762722783
Pt 9.95960253550814 8.359743286926976 4.998409815361669
Pt 7.776661674386447 7.793543495142063 6.447214383372039
Pt 10.269652229056696 7.017193452924292 7.4514930252337175
Pt 5.757009219594268 10.093021141000966 5.232784431597
Pt 8.595366040520464 5.446163408939417 5.595261388670646
Pt 4.678047365125961 10.42134897852962 7.6641619024824275
Pt 9.8247643256978 9.628636300903496 7.399827223847696
Pt 5.666095519090039 8.432084453565382 9.105489968835672
Pt 8.377898532924007 8.02139631155861 9.063856723376436
Pt 7.25493936183139 10.098279937769693 7.7665247370936195
Pt 9.005782742561301 6.462820328780221 3.3060258548267636
Pt 11.116667920258102 6.014063865045369 5.120598561257861
Pt 9.037678535951663 5.4453947961876485 9.258102090188821
Pt 10.39559996027786 4.396078328489159 7.2145970240945
Pt 7.025373465012349 5.562331664882553 7.7012686224840685
Pt 3.186118301430294 9.624504825517077 5.600496439185711
Pt 7.037593227533656 3.700006215206747 3.805482604478266
Pt 5.979833354513132 5.557511260953483 5.309582042049716
Pt 8.871209351810489 2.8604638980827892 5.580851868043899
Pt 6.402290598053981 6.2060179937877855 2.8564787307707653
Pt 4.633645893597866 8.01340308563171 3.942866227737585
Pt 2.6152447190448465 4.393937967655516 5.804448722724083
Pt 3.9655228002396554 5.440011026467117 3.7539354964543072
Pt 5.234164372069296 7.7926275947853725 6.559877602523446
Pt 4.005801222540448 6.470463138130978 9.707204954887015
Pt 4.411669397264997 5.447884029287163 7.42004586489213
Pt 4.621312268106819 3.0050231798191946 4.744092034147102
Pt 4.1400795125735 2.861509422839489 7.438804287400377
Pt 6.505105970199551 2.9569626163662694 6.509047219171502
Pt 2.7399317850873897 7.014742673350715 5.559753440187226
Pt 5.977317897619881 3.7044342151233405 9.210311537054823
Pt 6.60597723626129 6.216788324706046 10.153734111761821
Pt 8.39135762514004 3.005919014914205 8.272686403787633
Pt 1.8914995139149973 6.021667849334372 7.894839817472985
Pt 3.054539386725556 8.364207155449488 8.00946159551064
