38
Energy = -188.17937398 eV
Pt 7.349544530507476 2.4968990372654805 10.31790731698707
Pt 6.622378464924243 5.01590224786819 10.275450344473745
Pt 5.958213523259715 7.5015963185497565 9.772133278329118
Pt 4.519038251654247 5.485280616763234 8.676386420983675
Pt 5.369486030648868 10.019154907119418 8.92501549425537
Pt 5.524696320311223 3.0234008659753253 8.533600116156355
Pt 3.9271296570049166 8.03130207435548 8.079370606001406
Pt 8.01428755507323 9.285606332709058 8.963990717582542
Pt 2.613011103786471 5.990885924109153 6.938975381048234
Pt 8.604139923814211 6.843650178983858 9.523886760516826
Pt 9.221688779924378 4.317021836231562 10.04496633561831
Pt 3.772856530794576 3.626251227799546 6.80223629367377
Pt 8.152684120026809 3.073013554132763 7.8776580255363085
Pt 7.1147093021100964 5.542692920775587 7.743615149506884
Pt 6.5328506067731915 8.08177378308521 7.175852142286757
Pt 7.251796257710065 11.630075988631493 8.085384590904011
Pt 0.6500632645215015 6.509168988931528 5.184248070635598
Pt 2.2476115679668744 8.381890664134017 6.0569503562471905
Pt 5.751741148568291 10.400897808660083 6.287151977703992
Pt 9.444796970887994 7.874819500935951 7.158374484277616
Pt 9.781056399947365 5.247545025762368 7.633116001135004
Pt 8.454221574643922 10.185438079014544 6.264495150303115
Pt 5.057545213005512 6.32619423197174 5.984205576724578
Pt 4.439511023048396 8.72853166786401 4.8287999766371685
Pt 6.30763163628059 3.5285151976883475 5.977895214293848
Pt 2.975636689269854 6.70631768381943 3.887121374655471
Pt 7.6502009520987375 6.390442306480748 5.3850202064151516
Pt 6.982010500687389 8.89792611157926 4.377362843424521
Pt 2.071627276198208 4.324892432944661 4.913811648474332
Pt 8.919043054200607 3.847066255824937 5.516776633152304
Pt 9.652430067707757 8.696566618964592 4.600736656476294
Pt 10.297482615644723 6.185114832118274 5.278347396523916
Pt 4.539997248659474 4.490282571043611 4.196103337967092
Pt 5.584451154150319 6.870775869824885 3.315112586961958
Pt 7.048329075405094 4.573061984319898 3.5953025755073993
Pt 8.18163311608921 7.041186188550574 2.861969476970402
Pt 9.622758463265283 4.750559591076899 3.1133612436062306
Pt 10.793337504025539 7.079926048730391 2.848935712641967
