30
Energy = -144.79073693 eV
Pt 8.89483252803042 8.033818708856973 11.9534361624654
Pt 7.727449018262901 6.203920996423887 10.733088687459556
Pt 7.5330206215453535 8.863725962745145 10.086265036470135
Pt 10.076599607310936 4.4666187320697555 6.567449246755714
Pt 8.910652621268184 5.1066167555133894 8.807848126683677
Pt 8.667840893094317 6.672912516736888 6.847010773805287
Pt 8.894756337141706 8.94724755929699 5.73849830253774
Pt 7.101012415677716 8.51366105086706 7.578963838474626
Pt 5.333418484828674 9.77189684623463 9.185740178961353
Pt 6.3387120124884095 4.682258740125775 9.147064540274803
Pt 8.592672501269904 3.519999930987188 4.55514508457427
Pt 5.612762791014048 7.161269482333529 9.4563496212846
Pt 9.368679508486172 5.979274097794681 4.383072088107846
Pt 10.20370463046833 8.286634069562771 3.677473283691358
Pt 7.5037164126239775 3.8961007278856763 6.899080061531153
Pt 3.696765724233686 8.157737955941405 7.92449680836362
Pt 7.835694289462197 7.629945912482498 2.8856161120661525
Pt 5.124364649221757 9.992653195212807 6.559743377027535
Pt 4.126099912030493 5.554530527154422 8.051538640146862
Pt 6.552186354577141 8.746462521343341 4.778298340878779
Pt 5.983263098816537 6.059712657344314 6.1554219585662855
Pt 6.955747262577172 5.30299733035441 3.611539527729474
Pt 5.064420865174418 3.1654721538577175 7.3830534310893565
Pt 5.932986202524007 3.270126099692675 4.815237330958565
Pt 3.813728835930853 4.569845438444203 5.579634515570039
Pt 5.266972346313431 7.177158681520894 3.076142580440549
Pt 4.149379359928364 7.937116601456721 5.34475666739297
Pt 2.2182391337175646 6.5546178132015465 6.471678277769237
Pt 4.61485955484647 4.539420124602927 2.851155281539111
Pt 2.8955566379686957 6.226341420791042 3.885296728217956
