37
Energy = -183.23511941 eV
Pt 9.29619772321859 6.999807450175669 2.6801057656726184
Pt 7.18479278897189 8.691274836778197 2.4132952480208982
Pt 8.692797036527212 8.866697370404221 4.528750948840971
Pt 10.169501291752987 8.789473493507723 6.742130366507615
Pt 9.973465699810003 6.711991934703065 5.2038857129941425
Pt 6.212536434029583 10.106966056103968 4.4505068569587385
Pt 6.873168543191764 6.159463567172332 2.6295216662992678
Pt 7.872682154130768 10.000618792261237 6.6829417889826335
Pt 4.608870349388398 8.468608150609931 3.0631449180270223
Pt 8.60928182005795 4.791199445473077 4.03466104622796
Pt 6.344528969214396 7.5894841499159895 5.008682498392512
Pt 10.146232226153066 4.259617093777182 6.17518868197332
Pt 9.673008559040124 6.372160145161958 7.818587228701872
Pt 5.4416148904697055 10.721379484426656 6.829237861496795
Pt 8.520458852863655 8.518256859805092 8.730525015285082
Pt 4.38713039337469 5.8589192204504075 2.558553720968082
Pt 6.925775428169607 10.592749568558014 9.06320497681829
Pt 7.513437404906229 5.825854714206927 6.428338122448448
Pt 7.849958894001863 3.06520444818913 5.812982113020185
Pt 8.472126275157837 4.038192936455069 8.240382514408108
Pt 4.351230901728969 9.777066034913402 9.079044800343116
Pt 7.8871109115475795 6.191646175374576 9.788540331570134
Pt 5.96712956374471 4.714893281022518 4.680927963802698
Pt 4.244366878785809 3.3112332596702934 3.25180049738558
Pt 4.585227621354622 8.3204799154911 6.934325908714651
Pt 3.8498314623699947 6.788473321613184 4.939578366840232
Pt 6.298318698650319 8.306592658846597 10.09029055864568
Pt 5.807037751620267 6.3031839578266275 8.24500295293592
Pt 5.355595929687486 2.294465829046865 5.550332203083858
Pt 6.630046305954755 2.0483535793312666 7.89729200521578
Pt 6.295591823840597 3.9743681189071847 9.657025956804294
Pt 3.7377383403026507 7.336081943874468 9.681994592705484
Pt 3.4435066946909276 4.263471781450691 5.455160618157504
Pt 5.550183335464969 6.016742456593373 11.140846585120343
Pt 3.3752719888871137 5.988654114628565 7.396353505936052
Pt 4.589174402874018 3.6166320763329947 7.688974723911343
Pt 3.663133885972359 4.7178040088482085 9.825943608690531
