36
Energy = -177.85541722 eV
Pt 10.47345404737566 9.69944249142014 7.979214900040792
Pt 10.745347902220978 7.927294114949025 6.076164739364862
Pt 8.531219516685878 9.467327323102696 6.196202889184443
Pt 8.87475013414607 7.733447235088054 4.180607605992503
Pt 7.99673370926765 9.742747674867056 8.802483524203897
Pt 9.365291020446428 7.412292190047296 8.58081997437734
Pt 6.015147517579832 9.88075687633752 6.838142792893246
Pt 6.679491674923697 9.304267249684203 4.387703083067843
Pt 10.102110403873528 5.53322988897184 6.749855532464285
Pt 5.483566211478023 9.735842533937717 9.352784236756332
Pt 7.838059673922889 6.896049675760701 6.520206020415514
Pt 3.4680367406634014 9.671140639182576 7.569866587739707
Pt 4.106461032764077 9.163178007629012 5.045223414316093
Pt 8.775445453465295 5.153025877634332 4.433927522890811
Pt 7.9269481042824985 5.173961690971534 8.51457168047116
Pt 6.762857301011555 7.409956121380576 9.279654765086075
Pt 4.056775216218252 7.562484548374614 9.07032218197576
Pt 5.321767596052121 7.262113219351502 6.732064205411722
Pt 5.351283371315014 5.229412496151067 8.873258406680867
Pt 8.686027425079798 3.414464339007993 6.518201489855792
Pt 2.74625700426674 7.325638022323986 6.5484998700264345
Pt 4.924419977906725 8.43466137487163 2.652826040594203
Pt 6.242829150677965 6.726986396457932 4.279747119760845
Pt 2.75047727346362 5.4238134942479075 8.421481241394687
Pt 6.21978340790307 4.786933510195909 6.134809499295351
Pt 6.997728162816667 5.0555965815723 2.4467757815664304
Pt 6.5514499709875045 2.968977379692132 8.111733238642302
Pt 7.1178639062087194 3.122920253040463 4.165630612751626
Pt 3.513237822352776 6.6847428504098305 4.104287213964064
Pt 7.141312989242801 1.3441259971763349 6.064530076780208
Pt 3.3143296348387365 4.794435718053332 5.893705733455958
Pt 3.8335333177187345 3.1805142112008533 7.992770414890163
Pt 4.657490030187128 6.050575686068041 1.6846236229837162
Pt 4.728855731586113 4.366894430352051 3.7228064969596875
Pt 4.801592603035597 2.564636492057031 5.5617865884970135
Pt 4.98899299725574 0.9189764220152148 7.593786971230962
