39
Energy = -194.52860708 eV
Pt 8.858821633256014 3.8032075740497553 11.123481628994982
Pt 10.124821679719222 5.587479815043996 9.796147108938118
Pt 11.399986562290911 7.365382648848063 8.448839649558025
Pt 9.21368908944927 8.091812734008904 9.703783452552734
Pt 7.602906679916006 6.14623995885634 10.763795978515262
Pt 8.214477225928002 10.283644002396473 8.645116123222738
Pt 6.5410650574472795 8.238522818394154 9.442086789334569
Pt 10.337117025682744 5.34223697074014 7.147778260380936
Pt 9.121164882256242 3.269958971281559 8.573518904844834
Pt 6.656732658540775 3.671778974217492 9.75418839675104
Pt 10.416961292432253 7.76916007971331 6.083829116386958
Pt 9.85684039519598 5.653247876448867 4.536968021372908
Pt 7.6661451670327985 5.655685042053476 8.231046573260006
Pt 5.730233981757803 10.11858107683348 7.727424643413437
Pt 5.175078450771079 5.9860537600371915 9.683252143184347
Pt 9.129955382167916 10.033982178922223 5.999564272468267
Pt 7.428463219141963 11.87380996734095 6.708141795859369
Pt 9.342817786940932 3.327727651188279 5.9703082068487365
Pt 8.133719373887624 7.990159869711828 7.309833031777645
Pt 5.0588616576738845 11.687553974319934 5.597453723775968
Pt 5.946420121817867 8.134717854798332 5.902450611912156
Pt 6.948197110983565 3.1344167560269174 7.064823301009321
Pt 3.5611615309401845 9.701526330011811 6.253391839032529
Pt 2.9068180373569525 5.66778653053962 8.253174056958178
Pt 6.937937333262961 10.159047686109833 4.555204232486867
Pt 4.575753082404427 3.626320210740983 8.260798385873224
Pt 7.596944544840102 5.932992891151776 5.674712990525957
Pt 4.167897234732115 8.064794664257127 8.26812212062113
Pt 8.63628855455385 8.147708464916358 4.192069279420727
Pt 5.330712693376569 5.816699424387121 6.965293826772292
Pt 7.70918654035721 5.9042073250620035 2.939819712197957
Pt 4.467777709871089 9.993132082201978 3.64975838425236
Pt 7.237248146785905 3.7115289640152795 4.437382992277602
Pt 6.087917320546059 7.931048126634041 3.206654644321064
Pt 4.832311829968164 3.375204623447694 5.557996690068709
Pt 2.153975391340817 7.573077475808968 6.584429596122271
Pt 5.254316262848405 5.4754269215871405 3.9906766838733563
Pt 3.7282231543469817 7.646900975642198 4.457797783569544
Pt 3.1526504912846742 5.354187744340612 5.626157508154588
