34
Energy = -167.04527397 eV
Pt 8.92371974534996 9.92614801974239 6.346160214472579
Pt 7.494335119931634 8.717360348342465 8.289843544369074
Pt 11.077362335841762 8.63788789132102 5.4651609857399635
Pt 7.3059895518738776 10.483346660382523 4.259932932960426
Pt 5.730585646153736 7.476869731291149 9.630653954549375
Pt 9.649044025222418 4.729496869589909 7.077601653424579
Pt 4.614983324516595 8.933072303170228 7.515504500360024
Pt 7.85986602138819 6.14260087942163 8.659934583706708
Pt 6.759985723322324 7.978999910786045 5.938899513132313
Pt 8.86077618937751 8.35683928466353 4.1365766870230845
Pt 6.420830075925937 10.683213789422767 6.7491686012303544
Pt 6.075512757505713 4.740439097792163 10.13478086636814
Pt 4.024770184102696 6.109989161858107 11.044904308904362
Pt 9.490321148207833 7.41983986558619 7.124560979617735
Pt 5.193436572704642 6.142292548249576 7.369682876039366
Pt 10.233291215463764 6.2315507240743 4.8964130582970595
Pt 3.126249119983278 7.356040526311438 8.86070419025817
Pt 8.066089033049971 3.5743697289249767 8.925130119175959
Pt 7.72752924655592 2.930713938733848 6.360666001089958
Pt 4.801819965168603 9.680100420116887 4.9104977799886695
Pt 9.300254037059661 3.886270065295774 4.466692905803004
Pt 5.687310797059392 3.196005653122284 7.982904914522276
Pt 2.3536314916847254 5.715604054127218 6.971102361114499
Pt 7.330961122833859 5.4977570620317024 6.053404876540266
Pt 3.6330731712793636 4.61302857856347 9.023267500418342
Pt 3.672124986502107 7.341530249729525 5.473242458967105
Pt 6.4270902798079605 8.129197835272462 3.3507062737693554
Pt 5.27969016403778 2.209154637695823 5.583061568301347
Pt 3.812496144764047 8.02955509719512 3.0350328533033797
Pt 7.969652654337334 5.9590382330056535 3.4058972243089127
Pt 3.2575774072827373 3.1783022801291874 6.96502654289644
Pt 5.298377457527452 5.854765491044803 3.1539370027426843
Pt 4.323957389609614 4.7567730889487025 5.230045022270125
Pt 6.627737161290442 3.793317296461081 4.026337079842772
