31
Energy = -150.34612248 eV
Pt 8.929622544248858 10.039047627704935 3.802391953878869
Pt 6.8963997566092825 8.969873433141146 2.4269253472167764
Pt 6.465040332096373 10.788446801099807 4.404367053400729
Pt 10.335788006380694 8.569226329561813 5.495892832310986
Pt 8.32279624109467 7.49346841405494 4.073903117659213
Pt 7.83498594342366 9.297406743412925 6.102450318174172
Pt 4.938391197930377 8.74945806025055 4.120828981351681
Pt 6.005224455559499 6.604881003309179 3.1500852827442087
Pt 5.347390224695826 9.886919051851029 6.57457131267301
Pt 9.21228421290653 7.825329691403423 7.736073668143325
Pt 9.707612737888141 6.017036506227608 5.7142466302843
Pt 7.530628115578094 5.070217575039006 4.514130276857948
Pt 6.898566632070123 8.809141683113124 8.466000160579627
Pt 3.4943916336081347 6.614325189712487 4.029039210326083
Pt 3.583068503685064 8.060323150543734 6.195966785207028
Pt 5.053356133881578 4.539521592695274 4.33726665232072
Pt 2.0105244901267825 6.0028483417417045 6.122219488600724
Pt 8.997563760202393 5.23499756884147 8.093912670294198
Pt 4.245035591690753 8.741096693067508 8.598585652387598
Pt 2.4921869923357707 4.1598408754631135 4.305691597660702
Pt 3.6274592813064084 6.20212638521507 8.115154601394561
Pt 8.907340359229236 3.611366530556098 6.1403873884331155
Pt 8.14282757365366 6.973211017594065 9.880181458679271
Pt 3.7777767075774746 4.064851751753129 6.6012559196756015
Pt 6.241704856938035 3.3535579077710658 6.274468218334629
Pt 5.541205183248285 6.839180099062123 9.64734457587853
Pt 9.301823193642422 4.74742782581344 10.666243126090814
Pt 5.48016449042965 4.406790139872398 8.537523793788852
Pt 7.690861831826183 3.2512978927486786 9.190976457537586
Pt 6.704887607827268 4.9459199778763105 10.870482931989693
Pt 7.773759177355309 1.6215319085490727 7.302100305171516
