36
Energy = -172.33722856 eV
Pt 4.011672974866091 4.877727781516053 4.045727707572109
Pt 9.29028275234613 5.839984604253381 4.196962844422229
Pt 7.113364149010025 11.99588932437205 9.583837835648598
Pt 11.080072940366255 7.3196508035740715 5.637100267775605
Pt 1.7849583658185746 6.845812408002824 5.800524924050353
Pt 5.273710002204538 7.238497357608735 9.582298667711736
Pt 9.77733403637828 3.331821668183009 4.371416899273792
Pt 8.802235423378775 8.66620285634037 5.789358571554896
Pt 4.538983879834567 4.72076351849855 8.327661320184598
Pt 9.227847483090203 6.550282081112148 7.305426573086712
Pt 10.85319423983707 4.788387957698306 6.154969737317358
Pt 2.238894867477865 9.12220203882591 6.838517792562348
Pt 4.812468558305202 9.346632844055254 6.539345775621501
Pt 1.5805281994052116 4.86197543008301 4.348483705036911
Pt 7.614284332858551 10.786783751815522 5.121930198397857
Pt 7.22799157760874 2.588789668787613 4.557400068498096
Pt 6.772175758322529 10.725599512792908 7.469172830838109
Pt 6.668190961729597 4.930319569840079 3.608035547555348
Pt 7.701031514823776 7.331347993526308 2.8248025982629796
Pt 6.469463961924263 5.326881622822699 10.763209891955231
Pt 5.199356268456527 3.0947534955022906 10.253458209450402
Pt 6.548480674160005 3.0052604845690514 8.074126394458206
Pt 6.140098432275745 9.717621096173243 9.817504557685368
Pt 8.928019796105048 1.2695740642443913 3.309217656483743
Pt 3.3166455198313294 6.86968688284733 7.848519226152698
Pt 6.817195926698889 6.56467299034688 5.729691627479817
Pt 3.8232314510006518 9.341200119032605 8.906231917169515
Pt 8.256630351524892 4.200585438909702 6.409934926934384
Pt 6.550605567066473 3.3730729847095837 12.298095839754577
Pt 9.9241602207407 8.35197955670024 3.4964712827105484
Pt 7.117687619454255 8.16445104576733 7.78247960877778
Pt 6.2067565905696345 8.845541033753088 4.397860212456557
Pt 7.021014373861641 5.6134041847533656 8.275026297604795
Pt 5.531103435266117 4.057627993863932 5.91825915430934
Pt 4.29449870742991 7.071141076771983 5.407611840280347
Pt 5.175353931833633 6.953399604209244 2.898852336828569
