30
Energy = -143.73610192 eV
Pt 7.352512386394308 5.06548948308118 2.5619270437724637
Pt 7.800638639257748 7.482177897067174 2.020660899979271
Pt 5.282978335272813 5.4819543561916415 3.8871866549619623
Pt 5.731604988374593 8.009025974036957 3.4011033968246487
Pt 8.776917289527022 5.118743081632428 4.601333778643098
Pt 4.684530543507974 2.97059134069807 4.509950651205326
Pt 9.469537576114432 7.584204613989059 3.9211434901172697
Pt 3.6333541067277992 7.44990384072611 4.856042795742443
Pt 6.773067488364344 3.9271464824214477 5.781390615556231
Pt 1.928259573033652 6.540506389914657 6.777721055817754
Pt 7.247894409694312 7.193924251046155 5.318006517373871
Pt 10.93919579614098 4.861344227131356 5.910999431161691
Pt 3.0902579302171342 4.816791521927544 5.257159592381929
Pt 5.521449047456635 9.170757159362568 5.694699054949994
Pt 11.32822990422154 7.280861135937802 5.572631689978779
Pt 5.2837262895116615 6.082612792866716 6.638429154275645
Pt 8.733999363366143 4.715458764827154 7.237624565090136
Pt 3.626346930186582 8.28140805835121 7.441822151570001
Pt 7.539992222545684 6.866989658823132 7.9606648164443685
Pt 4.9232611011180785 2.7167636449177848 7.08199636132836
Pt 9.298636896472193 8.542871665853918 6.411420821783932
Pt 4.844083449357934 10.443364010972909 7.883024905390855
Pt 7.419427726049175 10.1159953963032 7.124964188714871
Pt 3.409296244303175 4.660782636141128 7.792157128969528
Pt 6.583200326346238 4.567857830506204 8.664320008018116
Pt 4.738371947950007 6.818217732100923 9.229604861542255
Pt 6.347448293333261 8.781879224956512 9.119342907882704
Pt 8.982682424231616 8.856436855594083 8.943539419935911
Pt 5.538305238446123 2.3374160376719955 9.473217663229995
Pt 4.408753617746154 4.496484020218366 10.163874462626183
