32
Energy = -153.5584598 eV
Pt 7.999429721979034 4.171642956444734 2.0974426136856694
Pt 9.066928307626485 3.457566770249922 4.443209026135674
Pt 5.685723696753942 5.298233163883229 2.0022669036582137
Pt 6.559142298974327 4.331760228832554 4.286243967536925
Pt 8.75434531398472 5.916206437079515 3.8396893107757992
Pt 3.4335950857369006 6.363192494877604 1.8048541671860123
Pt 10.175962987810925 3.9801785921978587 6.648983437877276
Pt 4.057689000674087 5.351506772098882 4.146112941535512
Pt 7.625597776029485 4.038313881296893 6.723812125248247
Pt 6.602252302260183 7.260365930166908 3.3889630645916937
Pt 5.098479023185705 4.523517981499737 6.349564286616213
Pt 9.654856938022567 6.432542600823739 6.179273942683721
Pt 5.88234288826673 3.2291271778307924 8.402119052008393
Pt 8.556155203485943 8.301193943044712 4.729609084227472
Pt 2.259282072364198 6.175508292505958 5.775408454014122
Pt 3.497965132310628 2.926081237533714 9.305981941991165
Pt 4.465957773650668 7.363229470109773 6.1091468433133915
Pt 4.1611673192812075 8.036278557656182 3.5992263274086516
Pt 5.103736505583259 4.365266696442565 10.556200834998783
Pt 7.7056468162840375 6.316404421872104 7.880674171727539
Pt 9.143393948303428 8.70575240002739 7.230626321280679
Pt 2.9384669974494697 4.778090564263906 7.72164458607407
Pt 5.980348864610578 9.141882627361484 5.072979185662081
Pt 4.93886028650465 6.224420701173125 8.471495976560073
Pt 6.292353652642368 5.2066019684739215 12.53216301022882
Pt 6.769189893400028 6.296204165790709 10.339813697480096
Pt 8.024762419965047 10.641709456485064 5.70302054538625
Pt 5.988290962003251 8.52486483334518 7.830213361294662
Pt 9.843268709864427 9.981249459687024 9.365403934504759
Pt 7.901557986296517 8.363029156381648 9.627423848397154
Pt 7.61844016835923 10.672324757331143 8.296468272154584
Pt 5.5334823298904645 10.944424686786501 6.858637147310064
