36
Energy = -178.30544692 eV
Pt 3.118203021113387 7.471923727444668 5.251790615351961
Pt 3.43371531985471 4.969027513801956 5.849252892094224
Pt 3.0074631297886287 10.027785022598232 4.6864640015427925
Pt 4.49863628845017 2.54152694596975 6.409454389965769
Pt 4.857412281616517 8.653417340611846 3.383370531168505
Pt 4.763843019221735 6.023645376619829 3.652403785755757
Pt 4.726650485681187 3.466105562040052 3.8572108862293
Pt 3.476603653545636 6.766832581962103 7.78986992480131
Pt 4.772889951600307 0.9578611778855534 4.405972252763813
Pt 4.545394694114282 4.329290166960608 8.251666572263693
Pt 3.4618208072841954 9.418255677526387 7.175555263282254
Pt 5.711377730740135 7.63070632036484 5.786430193377976
Pt 6.079576241713012 5.026450285238549 5.978633398248568
Pt 4.502724779432577 6.115922634159765 10.192880059017654
Pt 5.461643211287603 10.222746188028266 5.588007570655719
Pt 6.974494353086083 3.1216279186433704 7.621968785692495
Pt 7.151826095968419 7.260137503100023 3.373482071841575
Pt 3.9745699111883077 8.662225248520317 9.567617053299927
Pt 6.295381857775261 6.516175443881954 8.109367739957039
Pt 7.219323156769828 9.858072840408488 3.6498300356204
Pt 8.549395397523275 6.428211573549122 10.407531488675543
Pt 8.150726556096602 6.597691887419806 6.2185807519311584
Pt 6.860973622279935 2.2848985010056433 5.0833044352392065
Pt 6.064816543416617 9.403064408632192 8.043820839918597
Pt 8.4316744177945 8.333577461342863 8.514510260529207
Pt 6.716308409201398 4.602270651636819 9.79704548958552
Pt 7.125961875956006 4.6354825538635325 3.560541980541371
Pt 6.422697729735807 7.9268589902816045 10.265422609854573
Pt 9.46184906453634 8.55825824705526 4.049171876227088
Pt 8.747902451892413 3.9065209682835302 5.68085713537675
Pt 10.244850664645783 8.121368287392936 6.471976211924087
Pt 8.89112055660686 4.793035255843615 8.273512566603383
Pt 9.385447408641406 5.9116171543598695 4.031473732471037
Pt 7.919142471601379 9.435068379421764 6.175841921440541
Pt 10.696336147375973 5.525159771886444 6.374957520457813
Pt 10.586893197895662 6.758231893165266 8.717551747703217
