35
Energy = -169.47214053 eV
Pt 7.897328218886948 9.061734926944025 4.813497905592931
Pt 7.761329061339815 7.777096678721861 11.561453655970485
Pt 6.932360194963817 5.799855198918854 9.991566488777174
Pt 2.866240236743271 8.175615899803125 7.641948375909608
Pt 7.430700133817969 5.37785114655391 4.786763478306428
Pt 7.172164773441825 2.814269437329303 5.679705984759733
Pt 7.7864012450905244 7.320860856423396 2.853713294941037
Pt 11.415349808353032 5.313958935371206 5.518090109789516
Pt 5.60892254465304 8.547719972676978 3.6519108629897503
Pt 9.483868462938535 7.028009093262754 4.904661893608343
Pt 3.43790378771671 7.570485127260052 2.619097704915961
Pt 6.917008297974486 5.911977239270247 7.421397572598163
Pt 2.8208675443254063 7.693617453348866 5.098338482580634
Pt 4.976146916752481 9.593556113015671 8.613978098516897
Pt 8.844584157906173 1.208849365292788 6.505538351152075
Pt 6.037119109702028 10.886563366093927 4.63723564923753
Pt 7.433413298151079 9.107705105073599 9.323153618683586
Pt 5.369866692984625 7.757264183285964 10.4451961504342
Pt 5.449545453198715 3.8172358927167953 7.334292241439256
Pt 4.25547560152299 6.105764987180811 7.947967693390947
Pt 8.519988916078688 8.053480010435297 7.148257479381008
Pt 9.715126253542184 3.434185867336602 5.963903870592784
Pt 6.905440036977457 10.138173026037064 7.014576402117813
Pt 4.8028148988196815 1.8614765606104444 5.751670003355802
Pt 9.11725675278995 7.00486738664905 9.481724451796774
Pt 3.040848269162302 8.865818634619577 10.206618643671053
Pt 9.498644561774162 5.650043269873165 7.295043959055922
Pt 4.608865025535902 9.223021149678468 6.060945863562218
Pt 3.330535378316512 6.288594297484606 10.347045511128535
Pt 5.030272906444431 6.486019203574107 5.531797642878991
Pt 5.112028908316252 4.057812446813391 4.559274839871272
Pt 8.865275151092762 5.547424148692171 1.5116215035366591
Pt 4.921232512111797 4.334370886360325 9.77875494643385
Pt 5.475437159867702 6.051659519141449 2.9333277068897656
Pt 9.73181299093661 4.705237876379839 3.6381048243623018
