37
Energy = -184.01073298 eV
Pt 6.8042395983353545 2.1620036626130648 7.790247284257465
Pt 8.937882899263492 3.777161248806397 7.865223652463486
Pt 6.663112841439081 4.2685673878494725 9.318813738240356
Pt 8.21853598717266 2.3829248128635854 5.6012990052176965
Pt 4.590524536562985 3.6188337384280906 7.763616557070645
Pt 5.509825533384646 2.531864136360686 5.445863790786767
Pt 8.644682896834452 6.033239629703101 9.234638651865096
Pt 10.514356433592052 5.904277354116354 7.474418183260866
Pt 6.684521181122626 4.649477261619969 6.389129580004658
Pt 7.280028538826412 4.035313972327099 3.7571481528734636
Pt 7.648507387147717 6.959999184984599 6.998936216549366
Pt 4.380123100706166 5.594292637260224 9.592116394216871
Pt 4.74438025130917 3.6006174346588433 3.1621196261637623
Pt 3.3816938127238783 4.124485374664185 5.377418430101595
Pt 6.5847549422845 6.327422005316465 10.839422516984316
Pt 9.566388953410625 8.497986131395976 7.9003093086765395
Pt 8.018229754324153 8.397633739593847 10.099491609905202
Pt 9.211639033531373 4.819969429493663 5.366880182129167
Pt 5.0754918403752995 6.512447328119353 7.276821453685684
Pt 3.8481757348496735 5.997785927719286 3.6589486175112103
Pt 2.6698460137113593 5.35132348208717 7.577897254523019
Pt 6.002694854002947 5.750870921549937 2.227257805139479
Pt 3.1616690980622764 7.866176707401051 9.752679282372597
Pt 5.5751597848271865 8.389631653808753 9.306300733141079
Pt 9.876621845661486 7.3753203962767735 5.471427733134706
Pt 8.367881425862052 6.40274250680734 3.4342038466675464
Pt 7.309899671436334 9.958226379278786 8.158578479072021
Pt 6.149739819714732 6.707780091633705 4.912811176804986
Pt 1.8760525928806349 6.36852928368106 5.304220382147594
Pt 2.8025666020860447 7.969776968649998 7.234460719141348
Pt 4.489762049761644 8.089145449206702 2.2418893241077553
Pt 7.945213816044575 9.367970862112376 5.780028880820416
Pt 3.5583294349164465 8.355538894868781 4.776927455055019
Pt 5.2057917954492545 9.140934615714196 6.715910279821621
Pt 7.095792498989493 8.196783553305057 2.025388936243811
Pt 9.107355636613653 8.918915760903754 3.5334148145632476
Pt 5.96895755421613 9.176599664338617 4.139098247265581
