38
Energy = -188.80704391 eV
Pt 7.420144647032744 2.6001800529756958 7.956802082991502
Pt 7.567764933574861 5.667409909729531 2.2512183261866956
Pt 3.4775276511801483 7.77707218896086 1.6408319396222306
Pt 6.064868880998077 8.757854747066839 5.262083833063121
Pt 4.789217803094141 2.049441856955387 3.4226292395583573
Pt 9.792814309770739 3.5094271287175096 7.870355814984819
Pt 9.412016979969332 3.9893610372365 3.188143290037728
Pt 2.1824362267973854 2.7336254092922303 3.7459911073652643
Pt 1.2071055278460192 7.239814492042056 3.3476076741497636
Pt 5.639516700496573 4.620624456155431 3.5700610718254313
Pt 4.833775072971902 6.5129863361206075 5.238201489814696
Pt 3.3843402052577063 4.386839209523171 5.5098846053675965
Pt 4.9623706585534535 1.7876148177063846 8.061589848714535
Pt 3.2738028854191628 5.761872662416267 3.262635080657832
Pt 1.9878438497226838 7.105297099449184 5.8876142946901355
Pt 8.140173500861284 7.592249914140671 6.495139238897736
Pt 7.938617259852694 5.275625740068503 7.675767835420724
Pt 3.4587203926938797 6.100630549141104 7.8518899666282636
Pt 5.938077597566079 4.334844704602715 6.077225233664439
Pt 7.321389185439865 2.5386933402989214 3.4684587661386925
Pt 8.70288750224695 3.0539025469083163 5.598971967041692
Pt 5.095300365771504 5.742619362021682 1.0974004211238992
Pt 3.9276306435758803 8.587134254708456 6.873089362834702
Pt 1.0036257939630167 5.1595461922519075 7.3946324645244745
Pt 5.911339707259095 6.926328545477086 7.648689481245247
Pt 3.5484904676306024 1.7568775221089883 5.77863496543266
Pt 1.1129602972471158 2.762240387912904 6.199683966508162
Pt 2.9857243115309653 3.5023552071452344 7.997435586121278
Pt 5.4454050356451855 4.411927723274808 8.572376174467637
Pt 5.78974588859286 7.711695660318683 2.771187997260922
Pt 3.5115407477748706 8.576991144091568 4.209762881951941
Pt 1.1568436976245768 4.653201392018533 2.1821214664846775
Pt 0.8116360407387516 4.97172056873226 4.78418277514486
Pt 6.105831613129127 3.3167293774123316 1.2448516013618236
Pt 8.564319086146183 5.5910535482487855 4.96965437969651
Pt 6.182267469826977 1.7716205854189702 5.709390586845897
Pt 8.095085392359572 7.79354379698172 3.8341755620368323
Pt 3.506220335302614 3.6184251978342514 1.5990062856014176
