38
Energy = -188.62841651 eV
Pt 5.898717881621209 8.274766862131658 9.488695526562521
Pt 8.459161205114947 7.5700950181836975 10.308939024744541
Pt 5.7511154725688565 9.469923887806429 7.099323230383384
Pt 6.378238941896527 6.079383990199981 10.915659863310195
Pt 8.051379066258546 8.872707543990291 8.098237962029238
Pt 3.4256851234995214 10.082332677370864 6.231929778967716
Pt 5.593355498566922 10.100582886131756 4.449827302394741
Pt 3.465253913511544 8.505468377952573 8.451236023926038
Pt 4.103210832330233 6.010441726241684 9.585386122016178
Pt 10.346093660704343 8.997390453043367 6.880972821173442
Pt 9.91238757488524 6.631884707821565 8.186028920081881
Pt 7.987122558371956 9.883759294671073 5.6573898140594
Pt 8.714157296503082 4.963898467393047 9.847210868145865
Pt 4.8319335580583544 6.757290109456554 7.150887956835138
Pt 7.139595527753787 6.145340414113861 8.133695446991872
Pt 6.128684386879861 4.0676043841482485 9.21979684741057
Pt 5.916064924331765 7.615084484229051 5.026206063875652
Pt 3.245531049755299 9.257683386807821 3.7173970549580595
Pt 8.286194103422057 7.23775744381972 5.973263074884767
Pt 9.961027998021326 8.717054743016243 4.2719625786912125
Pt 8.426705795192829 3.2546063633508773 7.946417682570867
Pt 2.6446628734282274 7.672509106453289 5.741767210980846
Pt 3.9706834749049618 4.182708129416913 7.705162620188623
Pt 10.968466224253394 6.708420952632315 5.707254772949115
Pt 2.131669625532837 6.170155471893953 7.81085811268014
Pt 7.5246251615843995 8.726697585882265 3.207560363831466
Pt 3.888336517808266 6.749795453649433 3.580269093796408
Pt 9.021111607850115 6.311824549832087 3.6951589224276153
Pt 6.321978733266742 5.155936553252724 5.817539278473718
Pt 9.301842887035965 4.739367350076132 6.070765152709996
Pt 2.9059334344953434 5.0991034106208115 5.446475432623459
Pt 6.087396540746021 2.776709586856686 6.925902021232142
Pt 6.468461799148181 6.266639609589344 2.8808750434946693
Pt 3.832200823789039 2.6655370609466655 5.570995079804954
Pt 8.497920499787986 2.261918398201646 5.5602580609960555
Pt 7.678821902778307 4.093720340071102 3.8264171024921754
Pt 4.903381452170749 4.349141227434402 3.7919279951846203
Pt 6.137964152181567 2.032488919171424 4.406711734856862
