35
Energy = -172.97829274 eV
Pt 3.2373264226840357 5.645385599823633 5.936005788603339
Pt 2.3274054026195086 7.291448208670671 7.746356444546499
Pt 3.4321236235267083 4.929862165361664 8.428150213051035
Pt 4.1017402110755805 3.9037836409532156 4.126833572782275
Pt 4.348255182208821 4.85852679292042 1.651148586958097
Pt 3.7078619165309825 6.619081872927119 3.508106078817593
Pt 3.5826166440758382 8.243516762152682 5.5957838864821134
Pt 4.88164474740301 3.716030675057545 6.6592884489663415
Pt 6.236469238450001 2.4316725353129804 4.8822099112531285
Pt 4.364630867218261 9.080788432557908 8.025956120713971
Pt 4.133115986046366 7.110370233509295 9.6149662762508
Pt 5.471023146093279 8.637341801836884 3.846016103983486
Pt 5.889864156424933 5.760139490401332 4.86004868953164
Pt 5.803571127915802 3.7181357220257896 9.146326519016569
Pt 5.236720925384414 10.37414876732926 5.84921715647314
Pt 6.5909717315131156 4.191089053568544 2.8766163654191708
Pt 5.969957579631227 7.579692871866398 6.544722975053101
Pt 7.272705681325977 5.39705735641213 7.03996573043695
Pt 6.0352152391885525 6.792517429862269 2.0578700592357886
Pt 8.295318614253562 3.9688103886938415 4.857945157194381
Pt 7.335241392163888 2.7458828753906235 7.27239448509154
Pt 6.09628555678985 8.753361107165743 10.172112602876584
Pt 6.457489677886312 6.0950558058028435 10.008945708261136
Pt 8.208584882031488 6.214719892857492 3.488566872030836
Pt 6.9982253145924584 9.627692621040914 7.779939262699092
Pt 7.755796650442448 8.666251063638606 2.5064122968643807
Pt 7.608024611020062 9.560702835715839 5.095542119089104
Pt 8.379803870480393 4.382326347402345 9.182744469659806
Pt 9.811866762850164 3.7306313794380235 7.015597763836827
Pt 8.23312257501746 7.647803634938725 9.184310378663005
Pt 9.978416572435618 5.842679550111048 5.477164292721772
Pt 10.083840165945494 6.141884925294101 8.147359107391148
Pt 8.738849782131732 7.844240162289163 6.706121345342754
Pt 9.670190006023487 8.162252333872171 4.298472694232551
Pt 4.345739051935543 4.852626965014922 10.920549976691458
