36
Energy = -178.07529196 eV
Pt 8.3159312181838 3.97762310363546 8.069581204874464
Pt 6.231623693030358 4.848829130994597 9.546215714708858
Pt 10.397820170247547 5.521753253113878 7.819763750467723
Pt 6.041190086122893 2.563894874404633 8.120874855830698
Pt 9.419505860168375 4.441744827426493 5.657214811615041
Pt 8.298874028934396 6.463647052759707 9.075658767108798
Pt 11.081019842742734 6.603483597105165 5.517965666458963
Pt 7.231114067757592 2.8801607483302347 5.740129376807329
Pt 3.9318368055183783 4.191838278601356 8.336251361796029
Pt 6.152497975489045 5.0862199570911475 6.883216712023844
Pt 5.943758187581005 7.513071834673021 9.619216039285172
Pt 9.672036763195468 8.032909597406908 7.312152420836666
Pt 8.596770908677389 6.805342739966313 4.932218081802604
Pt 9.997173034033478 5.524998215329133 3.2082318256137174
Pt 8.366558573955135 3.4762539833213952 3.4725103510442916
Pt 4.554777770775213 3.1494701625688775 5.950622496632035
Pt 7.917131808903998 9.145566730051671 9.072134686014989
Pt 3.935642722925575 6.030265285929451 10.241981076356916
Pt 7.066233025252747 7.480023428971408 6.949945112714668
Pt 4.511673215613059 6.978376135469523 6.759834077465033
Pt 2.052923621006472 5.9663778668584255 8.376332934276785
Pt 5.804079961174148 3.951525945344896 3.739690959044964
Pt 2.1363826081632378 4.217346458829149 6.384899475101685
Pt 7.998962210789834 9.947962256970973 6.5575759575640085
Pt 3.477873140929396 8.165037532717712 8.764527630406805
Pt 8.08556935997718 9.162057520057141 4.0647659150105735
Pt 6.016410028186346 6.426938753608437 4.702428624225358
Pt 5.544573421586335 9.644028038791353 7.829496858861588
Pt 7.419198459714855 5.76892825549298 2.5075700508704832
Pt 3.497893385001364 5.048638387813901 4.372678497294592
Pt 3.370026904226498 9.211704195776067 6.24572281496913
Pt 2.1274459977096076 6.807145580720644 5.865953799495655
Pt 5.758891188912093 9.206474026225141 5.1345657284052155
Pt 4.721694345275001 5.934272237445576 2.2345055460306207
Pt 6.169540937182012 8.105963614796167 2.636511605330616
Pt 3.727628901835372 7.816925427172347 3.9308117269218545
