34
Energy = -162.15809078 eV
Pt 3.4599523507848127 5.359243341855769 6.0103045124949395
Pt 5.187233932244254 3.763312608670028 7.0307487606067305
Pt 3.249027819579775 7.851742651824975 6.806052148071772
Pt 5.731980636907718 11.354457492547885 5.7039494611727
Pt 8.994295176688535 0.8384750214634835 8.052213107600439
Pt 3.9105187334332805 8.236793598599792 9.254763416488371
Pt 8.614053711265791 4.869297678753691 2.7214725369734483
Pt 2.3861155442059703 7.89594954875678 4.376071828116683
Pt 5.825390930307062 4.924127368046114 4.767654099429212
Pt 11.161876278612 5.332132929996599 8.001910328212414
Pt 6.176066195436232 7.829252749200379 6.945912086576646
Pt 3.9148568053468034 9.318011111863363 2.748910069862007
Pt 5.890857899101976 9.00919592198869 4.435767134658399
Pt 6.749617469500939 3.475818465883695 11.606097752946011
Pt 3.4573495199323014 4.624985327883304 3.5263078828045313
Pt 8.077414530763544 2.390419042166079 9.836055333884559
Pt 3.567757458041298 10.023686100759841 5.230745303775906
Pt 1.3393089441457402 5.631799218911805 4.6140486413211494
Pt 6.354167407877154 4.25280326968079 9.304340800947609
Pt 4.761364797001668 6.032363102334133 8.261815082077895
Pt 7.2283070883483616 6.853381448748213 3.587463963638627
Pt 9.421209063520845 6.995080295129926 7.164765496062218
Pt 4.647953175490109 6.913301859586589 3.5828049714290033
Pt 9.13306018692833 11.128015889371875 9.073328827768044
Pt 10.007851600494488 3.148579205711698 8.329691563188323
Pt 9.622503894434963 6.362565525782867 4.520212361621992
Pt 4.825911079290694 9.929867677767712 7.59629985358116
Pt 6.951356885067517 11.314563696503484 7.92239344614057
Pt 7.480858226557962 2.6649038973600123 7.109885760821113
Pt 8.30357117201736 9.169268853126038 7.819305625141356
Pt 8.21989651016997 8.481204986474664 5.374540472007822
Pt 7.29862340456402 5.497868050157662 7.1912199775358685
Pt 7.821027317584264 3.439576393645315 4.672627197248665
Pt 9.580657016472632 4.439948431565661 6.172312957913564
