34
Energy = -168.24104412 eV
Pt 9.926768543944988 9.66954648214484 7.48533648479503
Pt 9.325391366554491 7.760498213573292 9.255169069340726
Pt 9.00999877412486 7.31922696198241 6.698527140099591
Pt 9.823135516242745 5.26542762066553 8.154955353015636
Pt 8.67461916250468 4.931583558876448 5.776929981577619
Pt 7.395620254893805 9.29603644055815 7.962113088006417
Pt 8.928562867613241 2.9220184781619545 7.435637311996592
Pt 8.329515855450024 2.466526284647292 4.831200335111094
Pt 7.819209325422124 5.645474763274401 9.677721638952313
Pt 8.26284892065235 9.471941744157125 5.433978589234452
Pt 6.8275948970317355 3.39554641701513 8.962697842542617
Pt 6.693269478338597 6.015360353631025 7.344304940285424
Pt 8.109423769698301 7.0097798106436064 4.256650643933041
Pt 6.387560657946911 3.1076752170589317 6.419101816582445
Pt 6.889690512511486 7.9900313960016724 10.20233392892629
Pt 7.2388247178599165 4.6624801855252835 3.628224935311926
Pt 5.366456313437601 5.151867505002478 10.262360040366065
Pt 4.452208795216564 7.501473079912653 10.856343856387669
Pt 5.821983056084062 2.5118528725047913 3.9185517705393234
Pt 4.158013191967677 3.9871581500573976 5.294126564100146
Pt 4.633410389539015 4.349935882716644 7.863403473378963
Pt 4.6638372019446654 4.4988158912181655 2.726242762267313
Pt 5.62943033920004 6.282328422317499 5.062141227116305
Pt 6.2046447316365825 6.7215226314019745 2.3861679373247306
Pt 6.690662628223803 9.156025963662659 3.474853544634855
Pt 5.6934414598752365 8.926543984267548 5.915162034822293
Pt 5.166441770952788 8.03027140349049 8.27093104390413
Pt 2.387586275364526 5.194625660081924 6.718580173454178
Pt 3.2513420069091974 6.361190564407078 8.870873779874968
Pt 5.025401075914459 8.881640498592287 1.4938528739539645
Pt 2.714382166628145 5.965864982863538 4.2343897778345
Pt 3.5804208612389323 6.695427864176753 1.8657617064337584
Pt 3.5907214148923936 7.460416495431261 6.289015431022127
Pt 4.088682467673006 8.331135264124255 3.8673914768945843
