32
Energy = -153.52157423 eV
Pt 5.734014363047259 2.3263089443777 8.094581862252223
Pt 8.20201297294655 3.0165834401548977 8.749428523277201
Pt 7.674582357587497 2.2972097948214496 6.271574491846247
Pt 6.109343865254712 4.403901398174573 9.69807661039082
Pt 8.457466791599977 5.679305644831465 8.979696356907574
Pt 4.210246283079383 4.544511049211645 7.782308673081747
Pt 5.2302802741301475 3.352969380065337 5.662345492548209
Pt 9.208096379259667 4.5384543294909045 6.72567235469619
Pt 6.684606188925722 4.97273230269131 7.111356033943627
Pt 6.839084424270416 6.769656438849666 10.708891756431829
Pt 4.555241208788805 6.509362420068491 9.485956691957297
Pt 7.596550195250253 4.350887736001464 4.692480067821803
Pt 3.7087689503536367 5.4531025684899666 5.360576836005025
Pt 2.7486587141424117 6.595336314625999 7.563246487778797
Pt 9.507046365065142 7.054173223727384 7.040933445561196
Pt 8.723757783873898 8.167290714136277 9.575454401944135
Pt 6.54612735022583 7.8085386686128455 8.231403306165664
Pt 7.789031258266481 5.791494485032425 2.7545408222051524
Pt 9.639351800796415 9.649212611212155 7.5547534602940845
Pt 4.077916712640773 8.811286254544335 8.388924775598062
Pt 10.23445714705772 8.687887759170707 5.210924626859213
Pt 5.259432500745458 4.653418601912769 3.3815860500465025
Pt 9.884544894084089 10.342543131046853 9.91502290193566
Pt 2.85569400338947 7.951614423478325 5.305060571835354
Pt 8.492178699756588 8.053133667924293 3.5259829790838824
Pt 1.753629707918306 8.99040305020946 7.371529332787177
Pt 5.9265149942748545 5.447811142021114 1.0336504061163896
Pt 4.82944585098641 7.187013561435315 3.786972145658148
Pt 7.737064923937493 8.784122954015025 6.023233676797562
Pt 5.168288564042544 8.551414099213197 6.140955662037364
Pt 6.386077236345485 7.8447949399317185 1.9138335417386552
Pt 6.249735576883183 9.432773289447546 3.978293993323951
