37
Energy = -183.28817396 eV
Pt 5.832263595649674 8.895310305506163 9.732281654518495
Pt 5.2147226121363675 7.246733515623177 4.981261094643824
Pt 4.732062622908832 9.783060587409928 5.411204300368603
Pt 6.800287727944293 7.565275539185366 6.96721810270511
Pt 5.549491507563094 9.752345425900716 2.8581114327465382
Pt 3.176769210328021 8.91603114423863 3.416815098852367
Pt 3.33420427869001 4.093413542778328 5.334246017939948
Pt 7.3349929389873285 9.770280645647752 4.8293663256540755
Pt 7.132379893626727 2.826299242900132 7.325084829898747
Pt 8.810006848766367 7.488641941270519 5.182698835345317
Pt 7.986745893535949 5.330115839977992 3.883133844825948
Pt 4.713023599481226 7.088222296408296 2.238674007866561
Pt 8.171305273037822 5.740372977091333 8.127998177454193
Pt 9.652084693823037 5.072207087630577 5.9781788879087365
Pt 8.255711449430255 2.888310958694164 4.855851609318922
Pt 2.8292802324603907 6.235352223987937 4.015063777993826
Pt 9.773684125288554 2.6637697479009486 6.998889738600663
Pt 4.1490406331119205 8.827624615904787 7.7762330295497994
Pt 7.239611624098847 6.804884660509133 10.46937839397988
Pt 8.823883465532099 4.745921340530528 10.887895015782464
Pt 9.921193383004436 6.9787846390951245 10.14951825600026
Pt 6.552139561530532 5.146045924236566 5.996051981520395
Pt 8.737875910893461 2.709910837722696 9.365358160421504
Pt 5.629594157391475 2.8470150708612394 5.19708378325832
Pt 7.052411976722633 7.644977443439358 3.2190882498431086
Pt 10.173635743038632 7.252544905422854 7.474082530247601
Pt 6.5352325468738135 4.302517648418749 9.499100102342037
Pt 2.3503433173569523 8.652207578657874 5.9540697904933815
Pt 3.467921528851685 6.422767887197572 6.742824872473771
Pt 8.331181345974304 8.679381215508906 8.900088295425997
Pt 4.763380825930511 4.249959198538783 7.5779249350651945
Pt 5.205589636253839 4.8734985605874614 3.600668948747114
Pt 6.526689099563096 10.097106398023907 7.367699051278661
Pt 10.455590012099353 4.7425957465740405 8.61766406676037
Pt 5.114769498623913 6.5222091472590105 8.852376205806392
Pt 9.150221998960943 9.646241548344438 6.63832603985853
Pt 0.9099124432406024 7.887297823724561 3.9677257672130692
