36
Energy = -178.84345222 eV
Pt 4.333621384854954 3.7767755420523668 9.255503137137628
Pt 5.169943351379318 6.232362325368545 9.469419363966022
Pt 2.9654948757740147 5.775160998894053 8.015752017622864
Pt 4.182557658688627 8.159208998382338 7.905499955016049
Pt 6.950551407199423 4.197090661826093 9.136919317820647
Pt 6.251110549508498 8.625704873482015 9.478870056982837
Pt 5.919700869075423 1.8651212792229521 8.163387709315952
Pt 7.913206559263374 6.638685762611897 9.1525368806459
Pt 3.7524510871956176 2.5741900628848753 6.938939013533407
Pt 9.355146368620593 4.693477477828454 8.172687889755412
Pt 2.2475150161906443 7.858726985310521 6.213741423495821
Pt 3.2912924700907804 5.690943696394294 5.348030918661735
Pt 1.7183529662479848 3.9869960893649243 6.533518817410422
Pt 6.492690987316116 7.141959359402863 6.955402114985457
Pt 7.755403067993014 3.1745107630519014 6.847359115022879
Pt 6.147173785829007 9.913346710737784 7.196307318975824
Pt 5.2965031731133525 4.736010290243102 6.957096683070631
Pt 8.513209981159605 9.080161701731388 8.198967035744948
Pt 8.106915633328816 8.908798766983065 5.582339898374414
Pt 3.0471210189020907 7.932173403143451 3.602378731040145
Pt 9.219252474569446 6.895386683498223 6.7627186255251415
Pt 5.259554638965626 7.225688045398342 4.701373471220009
Pt 8.872268152610165 6.853911739871234 4.0939191001447055
Pt 6.977986399993623 5.385230127887009 5.146930161993826
Pt 9.507059449914738 4.562647914859042 5.480795952272243
Pt 3.922890259238801 3.4226272212722075 4.370951781472264
Pt 6.2790172010264085 10.672363730022171 4.696555261549246
Pt 5.881130323270153 2.044679315543683 5.4743147179707945
Pt 4.391674360037742 5.48992617859838 2.8641580725386837
Pt 4.171949022593046 9.462163938398213 5.496096785858417
Pt 8.27313829012673 2.3438143965869034 4.408322738404239
Pt 6.944494450001773 6.198240726925514 2.210981186097613
Pt 6.972871090151681 8.594702669026148 3.286852696022004
Pt 8.784962548179386 4.468382189638046 2.919141497978692
Pt 4.9414074816706295 7.856605655468083 1.7877794344382483
Pt 6.295676036624974 3.6958432846014753 3.311614586139526
