31
Energy = -151.58957068 eV
Pt 8.01947529209374 4.610857895105894 9.053029858194854
Pt 5.646803548524221 4.2466917191441205 8.078256839475161
Pt 8.513268142039731 7.175888431741225 8.993028252244759
Pt 6.196002928870145 8.789147540912165 9.019984940425664
Pt 6.1299649789500075 6.2230611729244725 9.868996404171769
Pt 3.6012720448712034 5.735101363344617 8.736495482531277
Pt 4.092172272672018 7.835370154829339 10.15107870130205
Pt 9.015789627237355 5.533083980252235 6.849924071267049
Pt 8.569699613816438 9.692413776016483 8.35827221969688
Pt 7.726418210630972 3.2364979771014415 6.819937225879286
Pt 5.317083247513216 2.8665956935725134 5.809254919527638
Pt 3.261799430976319 3.575470268409866 7.244158870014216
Pt 6.274121917644457 10.986096156442441 7.668997379423912
Pt 6.599262852036726 6.7050855756548495 7.176361422749361
Pt 4.126230406709261 7.922748712269447 7.408975587870873
Pt 4.771897530237514 9.867359480444117 5.930097484590384
Pt 3.2501919574380667 5.838214619714282 6.057762792782697
Pt 3.1603638470490854 8.121305116618101 4.887331846917672
Pt 9.675318935615367 8.096910020201648 6.630612927129825
Pt 5.835462483665882 5.415082189258197 5.173137774196229
Pt 7.364022393255643 2.4585059596023306 4.301120179750877
Pt 10.557520242488534 6.347169649568614 4.942662126351238
Pt 3.1324014832159355 3.7282188779946397 4.521564716015751
Pt 8.437947368781474 4.771745529666913 4.4417619704457705
Pt 7.280584539348501 9.092539053850976 6.117505653194557
Pt 5.748798795723841 8.011703661890818 4.272023925053838
Pt 3.9795095733504526 6.086920932727816 3.3913866215462662
Pt 8.26838320840332 7.458945997606794 4.3448322208341965
Pt 5.29198248976259 3.7904773843861017 3.1148051755294848
Pt 6.681338187931432 6.135988624699239 2.716261598313501
Pt 7.680306135121708 3.7978184446618144 2.071719893295551
