33
Energy = -161.62550505 eV
Pt 5.04385922805327 5.578343247888805 3.2672575065995413
Pt 2.5569171320472766 6.47183413560379 3.193696278280177
Pt 4.422719357132318 8.212946738680815 2.717099957739629
Pt 7.554561734966047 5.058735699093818 3.7294469742459464
Pt 6.928334086575075 7.6246086570579115 2.9252905248026657
Pt 10.176533116923851 4.717453381180315 4.295911175173359
Pt 9.395165241362559 7.063505000724612 3.431199771419276
Pt 5.737784208768923 4.051930239157685 5.374751405489847
Pt 3.301721153346282 5.196305964299866 5.341632648422254
Pt 8.301797282358724 3.7562086810526347 5.973035835227169
Pt 3.442725754813834 7.924037743588995 5.216125962736679
Pt 5.906848094593494 6.9249157214706525 5.333281109886768
Pt 5.6071772976024565 9.537261815950346 4.64213705881785
Pt 8.526068646847872 6.46022443630862 5.847585450923614
Pt 8.277062098403736 8.965140176327989 4.887532026119264
Pt 4.001580865074189 3.994783326794735 7.435850399473362
Pt 10.533984881625992 5.0847037203225955 6.870664911049043
Pt 8.81778963299723 4.323890556828724 8.628451717108673
Pt 6.952640454167394 8.138087081262837 7.317963871953202
Pt 7.033022878804417 10.614988831892612 6.560601730776403
Pt 6.522602646809679 3.0045061540569 7.723703869683325
Pt 6.664678627946156 5.618682631787483 7.621778083295991
Pt 4.893038069573573 5.395502243598306 9.605033695150965
Pt 4.538606057645987 9.236304487311095 7.161532498646017
Pt 3.870048740388224 6.660342408797279 7.506174778542398
Pt 4.694983829390585 2.757564587352537 9.62305763495353
Pt 8.022195773744695 8.869361164393888 9.5692919731211
Pt 9.373794606982846 9.366708816235572 7.240547273129436
Pt 9.410211773073131 6.9796088658528594 8.331194049990819
Pt 7.4210108986776895 6.376465196754267 10.116872187176076
Pt 6.957865879395489 3.8052909102287633 10.332508362434064
Pt 6.05676756754413 10.50719394455863 8.991572587600787
Pt 5.287793373681615 7.947299321345149 9.391006284935463
