39
Energy = -194.57120245 eV
Pt 5.464543155961598 2.7677120669908204 3.310307756659713
Pt 7.551541176296352 3.9556564233885574 4.337385153747565
Pt 6.426195869916085 7.821522968212867 2.1935901376875617
Pt 5.9805910588519735 5.218855511030465 2.5654710379608887
Pt 8.726531452753083 8.916203849539876 3.063071524966356
Pt 10.276585746868594 7.612709501434151 4.6455481813510815
Pt 11.756128159719283 6.253551557768089 6.259097812702737
Pt 9.712940654604763 4.985388621039778 5.2245283726885585
Pt 8.252815958409126 6.321905750214289 3.4025033448345727
Pt 5.839311885672134 2.704261431679475 5.964075023559227
Pt 3.8903209296782 4.635793630548704 4.261753098971744
Pt 4.114147778163263 7.014448207869892 3.368216251670157
Pt 4.455274844122735 9.519445526011893 2.547981257897993
Pt 6.517185677653744 9.959758522622302 4.0764254351726885
Pt 7.961957456123974 3.867247902491656 6.96286427095242
Pt 5.7803160192623215 5.420666862163273 6.484668456464447
Pt 8.433903209386573 9.310906630943789 5.684232708107479
Pt 6.330873493883513 7.340447353024733 4.844698343490716
Pt 9.991529074472954 5.326541276463984 7.98446619893042
Pt 3.4355423985654623 6.631669594743389 5.9568736791840005
Pt 6.180002361012671 10.152837731970145 6.708038567138327
Pt 5.845842056155071 3.5350963295925415 8.451147473312968
Pt 10.224782726732188 8.09355233463094 7.317926796798041
Pt 6.31631318494768 6.990905536561867 8.490175239151446
Pt 3.517027845617904 2.1393741981848633 4.9860980870199665
Pt 7.778095830673471 5.075102268788238 9.391562998258593
Pt 8.121214453656213 6.668117545758604 6.6307578387553106
Pt 4.2961127293939985 9.027280152236864 5.182133446607438
Pt 3.393674358923885 4.039930202786416 6.797861873485528
Pt 5.737696179746637 9.98150339107718 9.248209379732884
Pt 9.308438092893578 7.233734507524047 9.656611533904389
Pt 3.4257725645736405 3.5699106398737204 9.373680879915687
Pt 8.089664314654863 9.182540180134817 8.327341412139491
Pt 4.282960727194649 8.416728250376362 7.710041379016318
Pt 3.540850633548021 6.0298227050528315 8.492740546233838
Pt 7.168084019624605 8.218693392165623 10.657261845665648
Pt 4.469643827834277 7.818605891450252 10.307285951000235
Pt 5.886074937767481 6.746969755190161 12.249972928590216
Pt 5.141037151569919 5.116125795348874 10.504917773159649
