35
Energy = -165.80639269 eV
Pt 2.3447235985066706 4.31079586248744 5.607811313429397
Pt 0.9102736722598858 6.4827097580773145 5.883145422206802
Pt 7.907469681743436 6.1171579633456306 4.384635258076636
Pt 7.98532163786682 9.427013148666077 6.5316942144365955
Pt 8.647371828401424 5.634227108865706 6.860197314173073
Pt 7.37881605047804 3.3971387558642823 6.889154365722002
Pt 3.7642480726641705 4.504203084657259 3.5272090125324005
Pt 9.936909218954437 10.294270067263575 5.127669730826308
Pt 4.896769554007062 4.025514252728226 7.124562834317541
Pt 9.82406902714992 7.701675680122783 5.650354398366681
Pt 12.742784421631622 7.874440173525161 4.593204782119564
Pt 6.733792474712723 1.6650316373464404 5.076268724693706
Pt 6.181869266114437 4.089388794272251 4.438706384103923
Pt 6.791138615136909 8.632839586294072 8.659058076465714
Pt 3.0201218475396323 5.204720401783545 8.468760998484786
Pt 12.742784421631622 8.350801871514467 7.871753583890468
Pt 5.301872164458958 4.61690920769954 9.556565723736352
Pt 4.208297637412714 2.4964359754239926 5.204339278083286
Pt 7.440480138177142 6.232112981986617 9.022845265432847
Pt 3.9217853601910058 11.111463475312897 6.772956639967564
Pt 11.282025611840332 6.454602919514127 7.375099877573141
Pt 3.377410948294026 6.695909202676985 6.1239679636315225
Pt 5.2000383316831975 6.425990198869778 4.377507474835468
Pt 0.7417359632441004 4.665763608233154 7.5879532472482465
Pt 8.685079224894078 3.455695605576474 4.610231387853736
Pt 6.601713633137524 8.447429986335136 4.653131367168256
Pt 10.57668126380113 9.486113651242924 7.562131270107635
Pt 4.797394099799863 8.822100036866201 6.477363422884558
Pt 5.105851723012711 6.771784752699006 8.051967880248462
Pt 6.255020383926907 10.973134201368758 7.583009585455616
Pt 8.81755448387007 8.631805431696648 3.488520071388216
Pt 9.80515010098586 5.174811975488115 9.056365897223811
Pt 8.554974335744445 10.53336009371838 8.75688163699966
Pt 10.499769140114221 5.167157484188414 5.1751790625472145
Pt 7.7138448445132966 3.642744202394686 9.387049671873552
