30
Energy = -145.71670815 eV
Pt 6.168655718686606 4.935847929483396 3.185530585562502
Pt 8.38146057370911 5.37441679460523 4.750367232190641
Pt 6.060869574060566 7.289568840639242 3.9703317272493015
Pt 4.14371725790842 8.891003914177311 4.782564159054961
Pt 10.729752871325339 6.490749928755897 4.324291535997592
Pt 8.576428789162799 7.9761723391132415 4.147906727952006
Pt 6.712723861960549 9.76639828132908 4.263885998707297
Pt 3.621927062830757 4.61558976080581 3.411122354429347
Pt 6.208483552099982 4.35609578871939 5.5977524655072255
Pt 3.8414077761352003 6.381653038184524 5.2355503343808625
Pt 10.436139458570393 5.478532249735986 6.684270769892561
Pt 8.122701026744652 7.233335921235319 6.753899117583306
Pt 5.845212881227002 9.263850415104772 6.664595197653281
Pt 10.586195869511752 8.155607153521487 6.269948332709392
Pt 8.504440239458853 9.888049835247433 6.144669687252094
Pt 3.7420330683256138 3.877141537742128 5.919725882530019
Pt 10.119009800165884 9.774223534177885 8.212196227271395
Pt 3.3043607066829086 8.18383979410758 7.143800127360872
Pt 5.704337177085055 6.520937251424241 7.22611459661712
Pt 8.057817839421825 4.465237556971888 7.325100993280124
Pt 7.561465790809674 9.333978153205615 8.60937087576325
Pt 9.813903252611249 7.280907317536306 8.86538706662848
Pt 5.458211692893517 3.908207864052745 8.02020339938593
Pt 3.276315460251374 5.5166800209504 7.873912400588511
Pt 5.207274013913509 8.459906589961061 9.076204461980806
Pt 9.890582210109208 4.768999855998402 9.132629826092703
Pt 7.3134261176914155 6.956481735646266 9.558385597369806
Pt 2.9473264910325447 7.332775112675128 9.628525776722082
Pt 5.015647065299493 5.734911864520695 10.040339328486963
Pt 7.304393570210835 4.445120390267662 9.837637983696148
