34
Energy = -164.27750742 eV
Pt 2.3081317884383514 8.897467310683846 7.644307994312511
Pt 8.35980308787347 6.157227676481081 2.9057937053917544
Pt 5.407903343920735 4.171038878275631 3.761863420296403
Pt 5.961811351430736 4.181025905102815 6.302193819278087
Pt 3.551453189389924 7.549032122380234 9.523063777507124
Pt 6.6888152872186994 4.6868045204243325 8.756960448513167
Pt 9.145007376274986 3.9360959236840283 9.331235204598439
Pt 7.277237137521983 9.690667854317477 7.613106647326098
Pt 8.784115351282859 8.431101575936074 6.019353873902908
Pt 9.95508191267241 5.056708746128928 7.01846519820003
Pt 3.3686814751255834 6.493490815935472 11.759797576818562
Pt 2.431665093254914 6.202775594953467 7.541006406893461
Pt 10.528056579793073 6.155964466635757 9.478812658272503
Pt 8.636278483918748 4.418547629687838 4.825759284172808
Pt 4.6111914077168255 7.818947788921277 1.325243741645097
Pt 10.13168213645979 6.54859537396984 4.851736210931585
Pt 4.837481541971427 9.147675267198599 7.576788999080492
Pt 3.690843354622995 5.078425817605275 5.534929928703187
Pt 11.08407430388303 7.374903348502662 7.183905823758001
Pt 8.205273479877862 3.07948500585889 7.100613944439107
Pt 8.898744380605878 7.909730189955211 8.5964935615255
Pt 5.075838542042591 6.4316771826055685 7.40098551095575
Pt 7.621026122241801 6.265558439490803 6.93630110562964
Pt 5.495136753199953 5.913448159239022 10.658080801355158
Pt 8.083087024693286 6.143479318331236 10.531824806807945
Pt 6.412317569690176 7.7352453104642285 3.134095247889295
Pt 8.745405097141514 8.61846264840368 3.4970210789197878
Pt 4.15485741127287 9.039693386158172 3.522900990665821
Pt 7.08431553087574 2.356711977079778 4.783323291163898
Pt 6.360748487171481 7.890455817995264 9.274201790566366
Pt 3.4916682117528097 10.226946240601077 5.66878165229427
Pt 4.185980731975982 6.353199465992546 3.3486210180555793
Pt 3.252998707945295 7.629842123935728 5.499838156932447
Pt 7.561791931051923 3.7980723013741695 2.4810965075065905
