33
Energy = -161.92791251 eV
Pt 10.826436658045873 7.621801379987766 7.373236813315004
Pt 10.677524034600676 6.8084034196891485 9.817714740318753
Pt 10.645565490118077 10.230850954850528 7.178595269844745
Pt 9.726709291693751 6.131909162030147 5.4196414392617305
Pt 9.36507952859072 9.127394879367989 9.225223197434794
Pt 10.096721188885331 5.130287456565999 7.895221815972691
Pt 9.258571291679694 3.547526685570635 5.972509227579454
Pt 9.699698098241633 8.79894500913815 5.24554509855167
Pt 7.74250236869766 4.941207020627404 4.085467245599456
Pt 8.168332015497954 7.504591289785769 7.3040827789352845
Pt 8.144872617445198 6.951938889378504 10.064332972717851
Pt 8.01653992908503 10.242199698831804 7.167151540275852
Pt 7.36108013815697 5.145635940509381 6.628435339511871
Pt 6.6529308897260355 8.912579292507123 9.06824956148761
Pt 6.571499081898091 2.940934382204204 5.416820837339259
Pt 8.52545790825091 7.3819741516849104 3.4382635182870773
Pt 5.623028919202326 6.864183699128778 10.39519082018131
Pt 7.827758800727893 4.628214224311966 9.093081339682819
Pt 5.776679399400726 3.2977301089948057 7.934260403443065
Pt 6.0067667203096 6.898771197275567 3.601331328415405
Pt 5.664559172695653 4.234289882997 10.414190074489495
Pt 7.028630659876656 8.869677646853686 5.035603131518962
Pt 5.254095170520525 4.3136323455253756 3.441431654619824
Pt 5.465639823023332 9.917173439793686 6.886960343440637
Pt 5.690721847345254 7.119323894452203 6.634611207788069
Pt 4.456711957583907 4.537246080680491 6.0027492512287655
Pt 4.131978244854887 8.215500054476172 8.730262588251495
Pt 4.519805730692221 5.572919728223998 8.432149085715432
Pt 4.446210195931068 8.753767819821107 4.669635596116266
Pt 3.603095414265097 6.1266877262140245 4.073335048818814
Pt 2.8959139140801176 9.355363236632098 6.734786471864027
Pt 3.0574182676932695 6.719100122433128 6.646037287669499
Pt 1.9335455895280211 8.004388413668273 4.648012149658362
