33
Energy = -157.75600822 eV
Pt 3.9400524741687932 6.961467929142279 3.656623315341346
Pt 5.215470318105099 6.8755924913474535 9.44330685769458
Pt 4.404428008746989 11.064093972860022 7.645409277752421
Pt 5.323842959978342 7.089384647915807 1.4857636626455641
Pt 7.253958121067191 4.88286183357482 12.281640067987487
Pt 3.0617680400466516 4.132227054504787 7.186143427764866
Pt 4.782717338688271 5.306434445846575 11.415964654767558
Pt 4.561732891485528 6.304168984312767 6.9780145097165684
Pt 2.4346733512904013 6.330614384532946 5.5819659368442585
Pt 9.656561905992636 7.401634973249592 7.189281666391413
Pt 6.505743109380494 4.093323345329812 9.935557031880625
Pt 9.637846601903409 9.005030686746956 2.994747273093955
Pt 5.527344564090304 3.881878488236858 7.638353610823836
Pt 7.070027671467982 6.917042816720984 7.547299149693125
Pt 6.697922970215993 3.360723659605359 5.453947549259943
Pt 7.594937337048473 9.708013602776084 4.457604141152488
Pt 5.208463172476903 2.5176718291205957 3.613525720299222
Pt 7.183351050734578 5.4549562593112 4.007218210216993
Pt 5.237797902089023 9.194386304481327 3.2460409147060756
Pt 4.028354360094768 4.442968502445785 4.872028379315043
Pt 5.181345970445424 4.779547455281661 2.5522643296156673
Pt 5.392379479294638 10.318752286162947 5.523168979886698
Pt 7.46684259888973 7.681938813737949 2.5975713993008784
Pt 9.846302322317788 9.339332453569316 5.60761822437771
Pt 9.658552193689346 5.029761204430461 8.547875385412787
Pt 5.193525433754278 8.729584662833826 7.616624542704299
Pt 7.958460051945538 3.1559272232375264 7.976149699998137
Pt 8.502164446540428 5.084765321683173 6.224689378426231
Pt 8.002529761821268 6.180857922906157 10.015879484996034
Pt 10.267244902293632 7.2922890573061085 9.634551567160388
Pt 6.429375358020625 7.326655217627628 11.67891246016761
Pt 6.1394569795258755 7.63229845927726 5.2447735128494255
Pt 9.131197025736258 7.020184383231145 4.645856351104609
