35
Energy = -171.74454651 eV
Pt 7.12600076610171 3.4400983493293187 9.18746179280453
Pt 9.345582626477858 4.671590530327916 8.508431248738301
Pt 5.022851016668829 4.699516004547139 10.144707851154843
Pt 7.415833515494796 6.006009318026934 9.953918760429527
Pt 9.614596461752416 7.244908592642195 9.033323015977212
Pt 7.03809579441925 2.651272609362688 6.6169178306075205
Pt 3.061130893283158 8.133778999862312 8.76453135116311
Pt 5.32809058536061 9.385714991547 8.362073388647664
Pt 9.38628183492195 3.814154640615307 5.968952772436602
Pt 7.439005914881482 8.68903052696521 9.922056288139613
Pt 4.804261948315301 3.6214228063985665 7.779735590439096
Pt 7.198866826797761 5.223616627597753 7.136629980775318
Pt 9.977443372547953 6.344507911698979 6.52821427945003
Pt 3.0259100438626296 5.447635862264883 8.631707767063016
Pt 5.308337403507357 6.720815436249797 8.492625906260644
Pt 7.52005939589809 7.800509801149859 7.499683716673385
Pt 9.858239630348374 8.967846221822722 7.0485659285007936
Pt 2.835133444335055 4.474976761301105 6.133963050605807
Pt 4.957931052454571 3.183526701701593 5.166116902357236
Pt 7.715708385664591 10.412621188283145 7.7636717959497865
Pt 1.7713952607545764 6.832838441797277 6.840219892279372
Pt 5.062150670506861 5.780623177128751 5.76521713214146
Pt 3.9736817650545158 8.256142743760376 6.301396063505964
Pt 7.2929198767602745 4.09304532526433 4.400509058563003
Pt 7.403699638690045 6.856201134387021 5.079903160450851
Pt 9.4812968609666 5.5737246763417705 3.9847991817568773
Pt 6.191484179095938 9.488275057782127 5.747739236527179
Pt 9.763294663891543 8.148700584850477 4.556083170108731
Pt 8.64112202022518 10.45274497059182 5.2587083126214695
Pt 3.706198790434852 4.443661212378682 3.295884739727359
Pt 2.877313144348934 6.583187598088435 4.464009935803174
Pt 5.912467464646938 5.614614885021426 2.820087176779939
Pt 8.076332042727472 6.709986777553934 2.1206692866375696
Pt 5.08343560584517 7.903171852778419 3.9528576804472717
Pt 7.477754470327297 8.853309898638088 3.4417843130049763
