30
Energy = -144.89167906 eV
Pt 7.996336879210328 8.32817034049538 1.8267587776204546
Pt 7.172655584156311 5.9793143761901755 2.101195326356619
Pt 6.454735980754457 3.630344430952592 2.524572794565002
Pt 5.848168736403726 9.259864933711391 2.9141389069588604
Pt 8.207967897928851 6.009953424452578 4.373020965180549
Pt 7.811086303604821 8.518417515574608 4.410391662022203
Pt 5.315155263858604 6.870579718242604 3.5741831182140107
Pt 9.644989203508956 7.535525168440899 5.925242865026568
Pt 8.053283701527679 3.4710962170018576 4.552712947344726
Pt 4.496627806831514 4.447061723156256 3.9624098019380463
Pt 6.15575974718017 6.038060778304986 6.196563588072456
Pt 3.499465703688203 6.486775852851038 5.52491837974556
Pt 4.140642733304848 8.904532197901096 4.787837856436772
Pt 5.88748562443127 3.45582308704421 5.80991770942183
Pt 3.4781077074946456 4.024246099556944 6.443134251388062
Pt 4.031132257467905 5.904557550153939 8.08346634928414
Pt 7.939829524652129 2.851379446964381 7.24883945067947
Pt 3.7261798365718786 8.445610174409623 7.323253675612532
Pt 9.342735301904057 4.854861584557283 6.423553794789939
Pt 8.184109035588406 7.7580318651699836 7.9222651410837495
Pt 6.204401220184723 8.618676662040079 6.402484929062169
Pt 5.83914084856256 4.0755476262261086 8.340863134766193
Pt 10.404168621747464 6.422500763606087 8.241931201119938
Pt 4.558371390217268 7.7233399914765775 9.805509850938614
Pt 8.159325242583163 5.121275464876244 8.701424581595731
Pt 4.169816858750719 10.178315027258483 9.151693401051585
Pt 7.044901480778097 7.679346757297186 10.174594410430597
Pt 6.607874098162571 9.717696339836559 8.67830612939247
Pt 5.104560174606632 5.301802640267448 10.442640673784776
Pt 7.540478726456245 5.406785734101677 11.1516678182351
