31
Energy = -150.73016573 eV
Pt 7.752709075250336 2.4582476306561802 4.5977355719553925
Pt 5.824287330172635 2.794420649830983 8.268744760305237
Pt 3.8173493021292577 2.6615896331678703 3.6143380488955654
Pt 8.28625683473597 3.697729193419927 9.481146699759346
Pt 8.253853906441133 2.848717422786461 7.056937559133172
Pt 6.074767368761182 3.951788756743725 3.2425293625372684
Pt 3.8106756183544084 5.142611122638062 2.8135658564347885
Pt 5.386988175332453 3.18541335808125 5.676162516618121
Pt 4.201426065638088 4.873461025307123 7.674546429564662
Pt 8.17770410181325 5.030416730592749 4.442757809900429
Pt 8.76068300338946 5.995467842877139 8.36614160559935
Pt 3.085420807722754 4.545474891068287 5.355911347453037
Pt 6.911051199554237 4.992920009731653 6.721360343446034
Pt 6.163475228977455 5.170848420841174 9.357505874045273
Pt 9.868250534713363 4.8133953648262136 6.38938464152497
Pt 7.179572537682069 7.430095947353881 9.979649649694748
Pt 6.612119807820574 7.501251773829408 6.600784221018145
Pt 2.109075635093232 6.725415736764923 4.084167656519501
Pt 4.882614296583565 7.300497834440598 8.509645257224985
Pt 5.085412760617146 6.283355452774161 4.924199024372657
Pt 10.0532552430083 7.41749674752381 6.449986466437756
Pt 3.215158511788202 7.009010471666952 6.514705884569965
Pt 8.27137478511804 7.621074940205102 4.662780366180887
Pt 6.65879780638478 6.568941616776799 2.881406540252262
Pt 8.404137223308298 8.689676571354243 7.994997666082044
Pt 4.159009444078764 7.658206247528829 2.5887237653001707
Pt 6.122858579987009 9.653091651078386 8.895248467568708
Pt 4.320724712632536 9.454112279112339 6.994173687408085
Pt 3.282473735831483 9.058628065973352 4.717693520640032
Pt 6.8001824503793005 10.043493953756732 6.304384210459171
Pt 5.861762961357532 8.803111770646417 4.206564630615814
