39
Energy = -194.39244317 eV
Pt 7.64198021320811 10.618074635339966 8.442117594504083
Pt 3.722140732047727 9.44424585188276 9.999866716255887
Pt 5.068469142154581 10.293928249371803 7.802203850439146
Pt 9.530713668962113 9.90184597260038 6.872367929081462
Pt 6.212738217311086 8.710882253633056 9.575450022444247
Pt 6.986632799380492 10.091707102835205 6.009379504152727
Pt 11.297069594127722 9.156854721198169 5.196078664467571
Pt 4.6540142194789205 8.911137206975312 5.53996302572909
Pt 3.180464938009064 8.433450581080193 7.693021189023878
Pt 8.483767994615235 8.104775233096523 8.518089145856525
Pt 8.870293004527918 9.447387938752692 4.218610372270144
Pt 4.388833272408061 6.852719560923557 10.017557507006064
Pt 5.503614738365545 7.127457993060425 7.5694664710137785
Pt 6.352870704993634 9.2698923133141 3.5821219547608707
Pt 10.656125632587887 7.443606466699807 7.102520974042922
Pt 7.090096921396906 6.212389463243595 9.792709964910909
Pt 5.017284684428288 6.956309484623824 3.728436670639377
Pt 7.103786958288673 7.3757586033089515 5.475544930121026
Pt 3.0901944601424995 6.8279574088393264 5.624539572582531
Pt 9.384934527200606 5.69596619489199 8.558417483896847
Pt 9.726937658019384 7.058860650239679 4.760795303489288
Pt 3.1328396340895655 5.228308352794136 3.6004743363937775
Pt 7.269343573405251 5.336411405615291 7.0629464413920955
Pt 2.903950290572823 5.762501428918809 8.067986348125704
Pt 4.785394516384587 4.85485176444046 6.282512164936786
Pt 7.5901210621935595 3.6251030767185317 9.06898876281882
Pt 7.830131943625256 7.130371383339692 2.90394318229177
Pt 5.117670538978368 4.524587814220091 9.019444354470778
Pt 10.236357805984639 4.922053929786596 6.191801925925148
Pt 2.134374519350034 4.375287102450037 6.023592603507931
Pt 6.2980191456739325 4.957278859363964 2.675978431237014
Pt 8.246525611040898 4.97410839818241 4.395423368810558
Pt 5.820042729372748 2.602785447084832 7.271536500511595
Pt 3.875405560726 2.4124516946354118 5.5468958532932495
Pt 10.059624901285531 3.1716580719400627 8.22622120297688
Pt 4.4166645208440425 3.1739171788532867 2.911207988533166
Pt 1.9402297428752546 2.8977022218786908 3.8585506604416047
Pt 8.324007283191685 3.064556153883374 6.307321368982374
Pt 6.2770361698961885 3.2714236791890308 4.7202115850269735
