36
Energy = -177.91666826 eV
Pt 4.062612215949894 8.925338071926149 4.354357370578437
Pt 9.123330967569434 7.65197494833107 3.862332733773798
Pt 6.414110341020796 9.025347807898802 10.444051087939354
Pt 4.951769128068086 10.262037849697315 8.610388891281016
Pt 4.768307750847599 7.697739200655373 8.789452352912617
Pt 10.004930347719192 9.250922274109719 7.902529652208582
Pt 6.576252307896481 3.8414959350261744 10.32551582618769
Pt 10.874128051201902 8.178022626851122 5.627069865578949
Pt 3.4530492424801262 6.3060985883093235 7.001545154966026
Pt 4.957387655186339 5.601495218524371 3.1412979886795895
Pt 7.369567216971114 2.8912348573708018 7.840803754095843
Pt 8.058379535844955 5.432733014088213 4.629734759981835
Pt 8.336826364310353 5.156497897458705 8.86464517573235
Pt 8.373159579675518 7.770425312646836 9.270964853805774
Pt 8.427339464396226 9.386125313096104 5.79739862425317
Pt 4.986032197563097 2.4190527439383085 8.822588127856893
Pt 7.563909810880567 2.8451383506445387 5.173952925770719
Pt 7.533576599042604 10.068006450614767 8.239956706933768
Pt 6.247857859845933 4.928584698655848 6.67144125278101
Pt 6.494046164935312 6.444862356337225 10.431965153597021
Pt 2.937555034059381 5.084094072032869 4.754999655799822
Pt 5.048300277584072 7.9941273561871995 2.063765333546779
Pt 5.854320032597535 9.653235058391514 6.2224344176005015
Pt 4.815903101431289 5.111914212108144 8.867257109386475
Pt 7.687419885099776 7.068039868212743 6.692425487918515
Pt 5.427783381307286 1.6165364890646945 6.391854214637985
Pt 5.391890417703008 7.025538840107699 5.426444543338427
Pt 3.3690345320375035 8.913065762136418 6.8568601116557915
Pt 5.0643373061715025 3.4954379439905447 4.6148434234441025
Pt 7.326077577933969 6.57295540411096 2.356091533298207
Pt 6.932572970354509 3.9190053372214386 2.775605252446442
Pt 6.723116813402047 8.760032678989985 3.9065672814103687
Pt 10.059342913204771 6.632858768715982 7.54956770065288
Pt 2.7596035195300166 7.069471807954307 3.1247296384478083
Pt 9.273091140228056 4.30414859857655 6.603335449321757
Pt 3.7285340714359756 3.6924365083336057 6.857140587871413
