33
Energy = -161.11980924 eV
Pt 8.389646084165562 4.714901858034465 2.577882604929975
Pt 7.117116475324166 3.756814691196732 4.672042650219371
Pt 5.7164220100182535 5.232082802692963 2.8473891816632637
Pt 9.098674662279686 5.653241882613077 4.944370843831003
Pt 5.859426183896896 2.8835701567201975 6.693670464209253
Pt 6.409908725514744 1.6632587959993836 8.879833499505448
Pt 4.446362815253989 4.38301571567529 4.984295318580464
Pt 7.15419967758201 6.122661617523516 0.7750028374743038
Pt 8.053757316190122 7.376088558037406 2.919192973980413
Pt 7.947606036589377 4.580140535210243 7.145679127560314
Pt 6.356116718861943 4.1961933730408845 9.327857584395565
Pt 6.634471163580086 6.458390162424963 4.973650131365201
Pt 4.134634940720477 2.762994977779093 8.57461730155275
Pt 2.6207181494774794 3.9630530124085213 6.858878603566398
Pt 5.566305258667054 7.795821495117912 2.0123045511791036
Pt 9.654649564899978 6.6510716223113615 7.233092951490119
Pt 4.257604548557229 7.20771708117243 4.1961931491334
Pt 5.4242529070112635 5.647607757876673 7.10278640989263
Pt 3.629062349836201 5.293274386379989 8.939034481343105
Pt 3.0853759053158387 6.492461988116548 6.368307820510745
Pt 8.234119654569593 5.924451677778708 9.513501134373131
Pt 6.329795225696602 9.074856861388046 4.220734549862011
Pt 8.810378914281687 8.36357088042476 5.185785469271164
Pt 7.1580173280265855 7.631550443325677 7.248375243945894
Pt 10.169453404389927 7.723583637382009 9.569672768358496
Pt 5.71994013462681 6.774321600448191 9.575944902095552
Pt 4.760252186574363 8.69693243013718 6.3510615908756485
Pt 3.542703474918315 7.896250091192536 8.56139796270222
Pt 7.712415926924698 8.536016511522131 9.694474897669268
Pt 7.10182944979923 10.202129678283116 6.395390789603204
Pt 9.327036540507507 9.318001589813237 7.64454218665027
Pt 5.4909262351106705 9.569162384504926 8.74988183456857
Pt 7.642545740743691 11.007523056517728 8.82951979996548
