34
Energy = -166.23326775 eV
Pt 3.7529276796760733 2.3895741928243974 7.161395355487827
Pt 6.075379897958828 2.280001628876208 5.852398823189155
Pt 5.8895949917941195 3.4096585620346453 8.273198930789734
Pt 5.099245516813372 3.6605540561440715 3.544899707725183
Pt 3.471515191088956 4.84610429457791 8.153715293580962
Pt 2.8870348834310913 4.214058420249911 5.477243186066099
Pt 3.0176723454141587 6.811464369881559 6.274056960743747
Pt 5.543333664706074 5.334275211013836 10.074055645869045
Pt 5.309820487343438 4.716524075313881 5.81593724185609
Pt 8.271602215943384 3.414843412621729 6.961107527398898
Pt 7.940317813276005 4.428378446975352 9.394474897261404
Pt 6.50210165860676 5.842793762372095 3.097251260855478
Pt 3.4245632622744377 7.36542164315814 8.861668257465897
Pt 5.648284161388514 6.405113638025544 7.754718517048855
Pt 7.745980626167056 3.703862225678979 4.270384125052563
Pt 3.7403173633740363 6.111336425324137 3.7128013131333573
Pt 5.567598180540073 7.2716931597251495 5.26101695438246
Pt 3.4962403504638155 8.773641860660481 4.4639787644765025
Pt 7.609071867849654 5.799147515391227 5.978040898412543
Pt 5.36501949187366 8.211726087819281 2.7028400978594997
Pt 7.81891022040049 6.979685907682575 9.506451500656167
Pt 5.614432423767282 8.68929316395278 9.303248689589113
Pt 9.586607199846032 5.641325123447357 7.748899530598478
Pt 10.08630742361422 4.543415534303908 5.346990722717521
Pt 4.341592468240702 9.067312927653399 6.97897197853764
Pt 9.121653748027725 5.82626531769182 3.284724014996476
Pt 7.373427672654865 8.13754722286872 6.9586463885877
Pt 6.023897188497421 9.862648730549092 4.9018211814040225
Pt 8.029653531549966 9.616529801371803 9.589756904261757
Pt 9.683509560140251 8.307437250073193 7.990094288216742
Pt 9.853002501717205 7.230675278969237 5.500467657255857
Pt 6.6649431035705184 10.48367991475412 7.4627200081021305
Pt 7.816921164071436 8.034750478432334 3.8324965981486296
Pt 8.734151756462264 9.75832166997257 5.617989727720423
