34
Energy = -161.86620985 eV
Pt 5.109200199220921 10.74957840687265 6.2679471971656335
Pt 4.403850702261769 4.865939798432269 2.3993195143886696
Pt 8.315783502416195 6.28667039348573 8.465182630510611
Pt 9.466183208217263 9.179199378939783 4.483128084025397
Pt 8.847520518075715 7.325521691682026 6.079233136178671
Pt 8.381038224089398 9.990644976134734 10.207799655133787
Pt 8.767743534899706 5.668497899700066 12.24046886239456
Pt 6.732343313094781 5.494417075679511 10.85158397815534
Pt 9.303287699006436 8.619203290538557 8.225010476967139
Pt 7.886927117681424 1.2258893948461953 4.838294598422994
Pt 5.3605188877678716 1.8130813112361286 4.7721795874209985
Pt 7.038569587485504 2.5817141243313206 6.803534131952825
Pt 5.200383942371719 5.474920012386295 8.173737232748076
Pt 7.193150372330401 3.990239703733911 8.842315770487346
Pt 6.769536052530983 12.621837917558512 6.693450430837149
Pt 6.525230678380773 0.39869662943449924 2.8750998701748873
Pt 4.407250341654621 7.065637757388433 1.3002341911737623
Pt 4.631067307214668 7.987380809644448 3.565792358402502
Pt 5.8408877294276 7.3800932017389105 6.282133504567965
Pt 3.7359006448956302 7.622405114685535 8.039941402638556
Pt 7.480501526484583 10.592394540873956 5.249741539992797
Pt 6.755775121762926 7.997095004156415 10.247921970338997
Pt 7.080698205977865 8.292504666514011 4.223731540209386
Pt 5.775222063013484 2.760415902859512 2.3290581076284655
Pt 4.840042033367512 4.091842276543257 6.008989237490697
Pt 3.3730654430382336 3.27687135547028 4.0995344568004075
Pt 4.502728467150939 6.763579531534615 10.318542460324558
Pt 5.918415284416801 5.824654532335605 4.183752693584477
Pt 5.784525991978762 9.170630181397414 8.180331259827707
Pt 9.23829854245296 7.476559523494699 10.63125095295679
Pt 7.324769290197694 3.672528456112267 4.14856378316649
Pt 7.37077154590026 5.186443068191084 6.303902013258579
Pt 7.857597280329168 10.610979237330778 7.791228020902757
Pt 3.644553007440356 8.805270201272556 5.740402716305357
