33
Energy = -160.71825499 eV
Pt 6.740487487038089 4.671766390022377 2.557308498871114
Pt 8.701630165690695 3.9208704212174794 4.181333214559562
Pt 8.176309885331543 6.653565734455812 3.50267420334373
Pt 9.6504887015947 6.971729529668046 5.761338564989318
Pt 10.721064627724534 4.697313549929741 5.380167526341038
Pt 9.334912443000752 8.893499106528077 3.9352267228581095
Pt 5.484440460611429 6.926104793163594 3.400907375329328
Pt 6.328766868606952 2.7243799284085513 4.282668174215297
Pt 4.3812670191527285 4.3967462919503815 3.686374450804219
Pt 7.441703023444274 3.1653490094704355 6.607035275890452
Pt 8.250557182716646 3.1375865490067008 9.020185255852578
Pt 6.75977612173284 5.326846190445019 5.27457735251738
Pt 9.253696268469039 5.040814568327836 7.435539097369405
Pt 9.071099367691692 7.550663126663654 8.28066872786141
Pt 6.787622641692438 8.686119555019614 4.856960799100465
Pt 8.87300777245225 9.403533980956613 6.368159785842734
Pt 4.779898899578254 3.658765755476464 6.3128474220840545
Pt 4.471041179419266 6.354204404129005 5.886020747636657
Pt 3.118247003627541 7.839957910598958 3.802192357332006
Pt 8.40083651986126 9.989762298327742 8.855536569967036
Pt 2.2364898173501375 5.504003794481762 4.405699281619175
Pt 5.966701182241662 4.606410943906038 8.45992882700749
Pt 6.684803943300356 7.042828000228297 7.167336285422811
Pt 4.359302844673099 8.966118664925832 5.7439402406361495
Pt 8.104122597646963 5.547843057434273 9.740873368574645
Pt 2.3978450003507095 4.518421746215039 6.7675351196472615
Pt 7.9989492482102555 7.9938881143195415 10.605582194401583
Pt 3.754307159787491 5.983744608860338 8.375801266416506
Pt 6.310024795528151 9.654441165828512 7.298964759703123
Pt 2.2949569750395367 7.507399790714969 6.689324318837733
Pt 5.768675097488294 6.983494772303175 9.650671993242351
Pt 4.051608103501015 8.645666859069586 8.386529829502305
Pt 5.941743823440789 9.586047993732311 9.8939516394625
