34
Energy = -167.52624567 eV
Pt 6.546794435795405 7.961493862238732 5.54714325188777
Pt 9.941957303817507 5.644091604730224 11.600846390232585
Pt 11.439302507825145 9.791094815846476 10.63544304009074
Pt 6.495922878021689 9.4766540094975 10.776087642982624
Pt 6.161098973046964 5.393959336647212 6.276194261164491
Pt 9.085300598050782 8.799640367260114 5.763231978287045
Pt 10.466120709093035 8.10169601894554 12.247370618025329
Pt 8.892043927176148 8.163142610419474 10.048083864667147
Pt 13.477433423506485 11.185053317927949 6.945891472973364
Pt 10.040478512778977 11.931398755533086 9.96054066874912
Pt 4.670793605862931 9.687643968985462 6.562519220566172
Pt 6.0740801254148815 10.735781557535825 8.438790787435972
Pt 8.561209736886125 6.397262012747018 6.668795733218817
Pt 7.843708420957571 7.508239446382617 12.282225340575478
Pt 7.4957309592785055 11.820868267195433 10.278076699893155
Pt 10.926675455221051 7.405110057233337 7.3072834307628165
Pt 4.65771673383429 8.526938544085693 8.999537749598778
Pt 9.65271624792685 5.841940479547749 8.994304848405093
Pt 9.413025391939978 11.402124646026403 5.419247555642416
Pt 5.82874582379259 6.195840266743583 8.690908276619476
Pt 9.847825036235328 9.622118082461617 8.173024416308612
Pt 5.509079921895495 7.144298744788757 11.073227555100196
Pt 7.538853641437273 5.5034071736176315 10.555834992228634
Pt 8.411040794687802 11.807384748176927 7.82320732011618
Pt 7.687493304383696 4.358157750791196 8.171109706318383
Pt 12.596126883875394 11.69918415381678 9.387327663962017
Pt 8.906539907005575 10.182719276144395 11.715687897480988
Pt 11.016226712400574 12.015407518383059 7.381412923258001
Pt 12.666726916397794 9.122215945211941 8.338124079323253
Pt 11.5221457729507 9.74452562222205 5.931863662735118
Pt 4.268753246673115 7.153789278010206 6.690196489789079
Pt 7.354402888950544 8.361463147408086 8.018704987119305
Pt 11.636443731316055 7.260014798943074 9.910089449363936
Pt 7.016426363128505 10.561329308564158 5.878264292884109
