37
Energy = -182.60115206 eV
Pt 7.644026156965273 3.3607389085110144 3.2228033651115258
Pt 5.002359900954669 3.945531898253523 3.851640896822632
Pt 9.141380687283846 5.38734508098081 2.496210235031089
Pt 6.189875454705944 1.7308551247484858 4.701714210429916
Pt 6.544920308037462 5.709749717708918 2.5642975445983978
Pt 8.745190094398321 2.1164166064816285 5.381050914085249
Pt 9.513277583028335 4.607357472513659 5.036609339216998
Pt 4.0981936420606235 5.816473556442121 5.823475919143645
Pt 8.070116553781405 7.804896072901187 2.193293761088449
Pt 6.967687361520117 4.355382402556597 5.5585053463462195
Pt 9.31059204509342 7.17292961689569 4.457800089255324
Pt 5.459054926199911 8.214960498077517 2.1525477243490547
Pt 4.0427542506374365 6.218442384836189 3.1431139090298803
Pt 6.9123983441821055 1.7337354016318576 7.2637458737525185
Pt 4.766936281094246 3.2041336750998957 6.4634765113054184
Pt 8.677474881183418 3.8192352726707814 7.503724071672553
Pt 6.793935505826156 6.901116717556737 4.965634574736826
Pt 9.092613925701045 6.405683496456152 6.994101398009606
Pt 4.5095276313774395 8.29125917870275 4.63426550534449
Pt 6.983325125162134 9.340556561122272 4.051356124767716
Pt 6.251498203930452 3.6841998007565984 8.8027656678596
Pt 8.348580653492863 8.834854624220876 6.239549403869284
Pt 6.257238288959884 5.930204808047751 7.456516452827819
Pt 8.128870813743044 5.61106416514631 9.387729878923738
Pt 3.790800458146455 4.795819219210631 8.25865493860086
Pt 8.48299020629533 8.224698453040656 8.822704588876922
Pt 3.6802840376179113 8.186283240512136 7.061280183255264
Pt 5.632902669891936 10.115265434546677 6.147533282615738
Pt 7.799838787373587 10.77635043409092 7.840837105059149
Pt 6.036828772962833 8.364175935206406 8.02699990959576
Pt 5.440318539101085 5.859320414294536 10.003105878423314
Pt 7.2989247001296 7.418351836722367 11.10615240542217
Pt 3.1287133533724645 7.019482424258958 9.333386672796088
Pt 7.214589018822858 9.975938854128279 10.365791157079288
Pt 3.0571792980550425 9.66368650966758 9.127118742574096
Pt 5.335384814189999 10.808107620521739 8.676868982048036
Pt 5.0294474269350244 8.508192440682553 10.413781734124088
