36
Energy = -177.11121823 eV
Pt 5.686131362402546 12.169881806465622 5.647416056647198
Pt 7.618593339867214 10.528327910621568 5.228652079229622
Pt 8.500355056671813 8.133401978469802 4.497803652289603
Pt 5.867650543147892 8.794491643585898 4.6425378530029136
Pt 8.202767429112082 8.958958876276851 7.238209783832676
Pt 6.7539560821101965 6.1231036700052 4.987809924994812
Pt 5.748382239456904 10.168812165215668 7.276673195396076
Pt 9.12296739429346 6.640986390670678 6.581931255380019
Pt 5.96818628214113 7.485871908598696 7.088387086541712
Pt 6.688123341199426 7.417533587708718 2.63895456199396
Pt 9.72641319233779 5.6522727180366825 4.2738780755962935
Pt 10.620260602413817 5.657478114374217 8.49379892645909
Pt 3.950281198503675 10.359608762681177 5.069027832574391
Pt 8.033396036371945 5.212327792899822 2.4344856475930174
Pt 8.576668334172522 7.160774295163646 9.112595955436008
Pt 6.474409091205826 8.764496285167885 9.354076397005947
Pt 5.996801666530494 5.528969090739733 0.873547316208835
Pt 9.625849708477674 4.132599063439233 6.556629401130408
Pt 3.391092573699676 9.004627064601417 7.200750102931127
Pt 5.727077782675029 3.946893783899237 2.978073285993076
Pt 8.322034049377834 4.448542828799045 8.887797345346717
Pt 3.514359857088045 7.733577289419002 4.7550298264616995
Pt 7.907294592526974 3.7205478990977094 4.595945367645329
Pt 4.320636716550149 6.459811577137113 2.654747071907435
Pt 6.236324725437455 6.132945744745388 9.685615260637263
Pt 7.556532505217191 2.5571534018262336 6.967302926205665
Pt 6.392837484983885 4.8650537602726835 7.2026303444199895
Pt 4.026536234934687 7.715473338279245 9.375670220380776
Pt 5.518559659035887 2.6909889321931835 5.228100053118448
Pt 5.974170411436225 3.487859660961974 9.38318579785671
Pt 3.5218958652644914 6.394432117646866 7.047737362865389
Pt 4.324942822245205 5.118862733871161 4.876744447013264
Pt 5.229640535450841 1.5985935022516287 7.64660698818135
Pt 3.77974521010819 5.1753192537023835 9.39469832854498
Pt 3.893400609646391 3.8043707673587597 7.061723050478508
Pt 3.4913067657533166 2.6001239301829937 9.361511150660911
