39
Energy = -194.01327891 eV
Pt 5.897819283157878 6.026781573700533 2.4213564397615235
Pt 3.713844890318988 9.513358600067477 4.56405429479809
Pt 7.974956150082129 5.212518316324499 1.0333763599625656
Pt 4.013127132966016 6.854110165307798 4.0218313967484685
Pt 4.126613290750943 8.991361952821213 7.131413574434826
Pt 7.599330695310802 7.79955475086039 1.598968375691706
Pt 0.7259073509176047 6.029597250358613 6.830847121013919
Pt 2.8369544973837906 5.056875695017058 5.596374416200564
Pt 5.063390598693235 4.450606295515296 4.391841718108289
Pt 5.649048086673916 8.760014820902414 3.0644920698450355
Pt 7.4228449634867975 3.925442404360273 3.276900224383414
Pt 6.16107144203276 9.623866313642868 5.508554506179721
Pt 2.2059694135413435 7.805291457217212 5.719645368268092
Pt 6.799087148342271 6.560466005140361 4.833800236921009
Pt 8.971420606981573 6.240592352735271 3.2569097397444478
Pt 4.870379681771895 6.425511559002545 6.599157365146762
Pt 2.7926126290042013 6.9036102563714925 8.258829650795857
Pt 2.3418671925660024 4.2661153355070605 8.033250995626641
Pt 8.228174261641204 8.747120074451011 3.982120215863062
Pt 8.615501831524645 9.604267413387609 6.395295580007628
Pt 9.02292382784123 4.549053665056832 5.249488513588158
Pt 6.888814562935251 2.947252343238296 5.60675127938519
Pt 6.873979650846985 4.786732107702926 7.667222610282202
Pt 4.5326963032379535 5.097745276468624 9.175073854886822
Pt 6.392082462024712 9.855649881624846 8.121845819701358
Pt 5.187418724646202 7.666673362565978 9.155991319053431
Pt 9.381535581922158 7.092848197201398 5.7489420544157115
Pt 4.6080417314294015 3.4560197958024363 6.91124840462605
Pt 9.045134964766785 2.7431178281244053 7.176972409342272
Pt 7.202013932506326 7.343017932476919 7.35819434614497
Pt 6.65710904830207 2.202572029275629 8.119850119512137
Pt 8.881943577417967 10.247491745148439 8.961415452542761
Pt 6.819920633034909 5.736531644098865 10.136561122864487
Pt 9.560421522294057 5.301943849741264 7.69452054178844
Pt 7.577790451150742 8.241384882602647 10.003781607617945
Pt 8.471480565541821 3.7485756839855466 9.608539537162192
Pt 9.759760054138841 7.875604502653376 8.194311997044466
Pt 9.431720250057177 6.0820900462250185 10.238458652914264
Pt 10.053754789974167 8.570903000310961 10.721065127497805
