33
Energy = -156.93705878 eV
Pt 2.6757070868399033 4.646764763035679 9.54462530476462
Pt 9.123554093897368 6.629112890764531 9.875440098276478
Pt 7.592287048327297 6.264059455650764 2.7336920070076753
Pt 7.384530691326533 8.49516959477889 9.982607769218921
Pt 6.0922878621061125 2.3779392035333196 5.155994225914
Pt 2.8921035753536937 6.951732153093743 10.545493362645097
Pt 5.204595656285732 7.231597873110921 9.541399841206617
Pt 4.963103914031196 4.82151324414979 8.505826485824816
Pt 9.167554998116941 5.084112391294658 6.859693197571312
Pt 9.277486284194863 8.004217994678186 3.1232345203127174
Pt 4.158846448448787 4.0648027425139315 5.355744036739932
Pt 10.913451280324622 5.237586488551976 8.74478594497648
Pt 7.214416885919136 6.190132986705682 8.256946848522777
Pt 6.798655519931632 4.629865909771737 1.0536721819096888
Pt 6.937909792960521 3.8236828319543927 7.156842913360655
Pt 0.909345023017402 6.746523236696902 6.752069918396865
Pt 11.277704371116783 9.485430097342668 3.701854806829623
Pt 5.456078647491229 7.416524533724629 6.675048340442684
Pt 2.1491424643771047 4.502165810417235 7.000936989831183
Pt 7.646952319758166 4.741184644905495 4.833651342076914
Pt 2.411909515291974 2.395729768049503 8.413553213109743
Pt 7.204512718266749 9.995401826041208 5.3733272995322325
Pt 7.839543693431642 8.710796191665496 7.47159639482014
Pt 4.685515984709646 2.49100128218389 7.3670583759424355
Pt 3.110599550759684 7.108856753269201 8.004482019500255
Pt 5.677369295874191 3.8796506639618955 3.1104821622892787
Pt 7.540186537762754 7.454050546932884 5.086812786001995
Pt 6.858260151847055 11.73400229235438 3.6454093238765943
Pt 9.778295818118202 8.927204149785622 5.672649072514167
Pt 3.1200939738203886 6.464583959029137 5.499234696645077
Pt 10.090663464513673 7.380241788810788 7.591827449940216
Pt 5.39435621815455 6.131023210200357 4.390833561752077
Pt 8.981518620022493 10.511878227439169 3.5017130146445017
