38
Energy = -188.72079308 eV
Pt 5.814029072414117 5.126051476485929 10.281321402361174
Pt 6.47616994747556 7.580407321847705 9.715570363742012
Pt 7.695830993008484 3.402331617453233 9.618046068047182
Pt 7.122124160167606 9.92664912185227 8.721633794862942
Pt 3.904981450888487 6.820078995732161 9.64062090921247
Pt 5.443851959372894 3.3423570252323005 8.292994274238241
Pt 3.371079323780126 4.195957238888859 9.68927951449765
Pt 8.730491429133036 7.9067203616323996 8.049981753194153
Pt 7.463717437142266 5.572840815053434 8.14566379246722
Pt 4.85983474695107 5.972181655732404 7.350378796072561
Pt 4.568142321334743 9.243248140072625 8.800779994570386
Pt 8.002504408530733 9.889204562805666 6.200820846266376
Pt 7.6789264613894614 2.9208550764791883 7.06748631838293
Pt 9.878333330631385 5.818108412307791 6.980326550141131
Pt 2.2362053202941485 8.30280911557611 8.150276379627314
Pt 6.376902861491248 7.96520755684354 6.9072354441363215
Pt 5.555884001716919 10.90383357778657 6.8228643545418235
Pt 1.759286809161303 5.718036631020585 8.39770530774166
Pt 3.2420802736972067 3.9591316538175243 6.997811061343966
Pt 3.9133370353393975 8.944715655173324 6.218955425656172
Pt 5.260891766146437 2.9266815016045813 5.6752251416167026
Pt 9.690172022921175 7.965531936441284 5.502766606150972
Pt 9.957140076798908 3.4425468338548124 5.718472290233663
Pt 7.904759535054589 5.031187529742689 5.49271323052825
Pt 2.651532345364448 6.627596141746124 6.099685031635824
Pt 3.7293188156065336 4.756257487368499 4.5102022651840805
Pt 10.916908973705935 5.72569381995475 4.558765592807159
Pt 5.864540431935207 9.426294997983346 4.585449846658801
Pt 7.652679429064577 2.1233155201985485 4.642362432463167
Pt 5.8313185135682835 6.369557463836003 5.010024363759739
Pt 3.824126791908797 7.610517419493888 3.947972131460044
Pt 8.35186571804825 9.280202673107363 3.660134886805823
Pt 6.266717311188128 4.0110302783970075 3.539043223203453
Pt 9.04561489279988 4.078067448774687 3.2952200273840875
Pt 8.765456990815734 6.687555703013136 3.4646132849650075
Pt 4.79900533121983 5.762317223094216 2.274716100194634
Pt 6.482013505722705 7.674068946483841 2.755048787999415
Pt 7.412586617014582 5.394002398508722 1.6394330780647002
