34
Energy = -167.45370213 eV
Pt 9.13672742965012 7.549710811460387 2.0776874789231967
Pt 6.966202900797386 6.190553171737666 2.8153359428316675
Pt 7.033281280420286 8.895413792621039 2.6675563201084094
Pt 6.427528266556011 9.835979349736357 5.055834112216843
Pt 4.858197565747811 7.923647608016903 3.8069718333373697
Pt 9.399510038824564 5.949141468945742 4.134356003782523
Pt 4.2639754926722295 8.815719480179828 6.258240723538784
Pt 4.872941695599533 5.159850024746647 3.92283096125328
Pt 9.012589033685572 8.689231949521485 4.4695790427355195
Pt 8.532827736437405 9.578232551417846 6.836237347752487
Pt 7.026080326114462 7.18044786552688 5.21948504796239
Pt 2.9102063085150625 6.7246688827179195 5.149147031067294
Pt 5.982278122747728 10.47057965961676 7.5928763986254975
Pt 7.284609772304328 4.368405701026992 4.812007468873113
Pt 5.045958711037996 6.062354777591596 6.433884541610291
Pt 2.7643207795405265 4.118385514069546 5.217900750821493
Pt 9.548563779399585 7.099247374885867 6.5838103606658285
Pt 2.609155876084845 7.329198398370164 7.7214288786190055
Pt 5.161870564466742 3.4288451271766665 6.180166184186198
Pt 6.592834189719793 7.9566694870546835 7.6393466383824435
Pt 9.66333266847354 4.42515602446353 6.122191892559255
Pt 4.0888133979915775 9.14169101770538 8.896316795204635
Pt 7.336296715882635 5.493935839602034 7.458021836872675
Pt 7.936119646904698 10.394078010844309 9.310571248180667
Pt 3.237283021895811 4.742614935470855 7.714381249570525
Pt 7.516194577412169 2.925354242147382 7.090760040999152
Pt 8.846476957634891 7.877537758130802 9.060005154505829
Pt 4.662392783800994 6.559886629442586 9.218369489495132
Pt 5.519067192390858 4.054483765921899 8.877230719293857
Pt 9.606804660816765 5.437062937189822 8.720798570892596
Pt 6.3416357576198 8.509195929647685 10.145936416853358
Pt 9.936022436492367 2.8480812777431 8.184710092490182
Pt 7.11254097556628 5.973435389081988 10.109177286896127
Pt 7.969209399752148 3.5131897998649566 9.690639324056278
