31
Energy = -149.52525929 eV
Pt 8.023337388346048 5.741721848618807 1.8786440719791102
Pt 6.4143171402247585 3.6293295414069844 7.9671092197427935
Pt 10.366777556855887 6.214696815339283 5.67028444535108
Pt 6.523275728653556 10.427764759121906 9.312280721028186
Pt 6.265928010034863 6.756660307344145 3.645635902236416
Pt 2.8805074437382796 6.971016932153669 7.433525603424112
Pt 7.644504711805761 5.442838400674367 9.375376133928496
Pt 4.98738586341176 12.272969667148985 8.750734125577017
Pt 2.7746736049874228 9.039840461280967 5.855798937060242
Pt 4.967065076330498 1.87903901137505 5.442830584926031
Pt 3.384024687882796 4.518552654644522 7.301167481285114
Pt 8.921567045735154 7.301438164653423 3.7235798694699787
Pt 4.348100109488323 10.665206980244552 6.9906908846204905
Pt 8.64724714715678 9.133928803699373 8.657912479987628
Pt 4.273478011373672 2.2439695118715077 7.795720591461291
Pt 6.480104094594202 1.6891879350483752 3.464848150866545
Pt 5.133728246873457 5.843248474282408 8.648231859855759
Pt 8.537119826176884 4.757261623141237 6.9836421826033614
Pt 6.414116307005736 4.191488110677792 3.1629584360711984
Pt 6.611545760181692 7.82820581866435 9.413630021714535
Pt 6.441414683282438 6.200627861933352 6.226475249742913
Pt 9.832938282644966 6.760474394937816 8.129192511468165
Pt 5.095689454285025 8.285602645584135 7.396237146412571
Pt 7.304352296066988 2.882508459065569 5.6504319516093044
Pt 4.754145140868627 4.4343741119934 5.152657382320541
Pt 7.104478474797836 9.129587685493332 4.397217882668882
Pt 6.908617835288076 9.986215454876424 6.802885296560081
Pt 8.575263559826158 4.809469708428433 4.386928071908075
Pt 9.023521515976507 7.3262394471094865 10.5134947771012
Pt 8.616959884787837 8.089033713481722 6.210603615448054
Pt 4.225483444468462 7.029169028855586 5.140942744721788
