37
Energy = -183.488204 eV
Pt 7.133403879959816 3.978866099064823 4.196195366859533
Pt 7.579174200238168 1.9205149249391475 5.795155096728267
Pt 6.705765644997106 6.064584792153357 2.696685189985029
Pt 9.081754738934404 4.0647978732190095 6.195660668769006
Pt 6.122437420133069 8.281971301472034 1.3492644526089992
Pt 4.148446857832515 6.944541034311554 2.433533081280565
Pt 8.726954268021641 6.116418224050007 4.44849047671944
Pt 8.009922359738887 8.379961243382159 3.1421147884353444
Pt 5.275891409920025 9.016268821653888 3.713511568992968
Pt 7.436408471278489 3.0453503149721164 8.242061342726256
Pt 10.431543881107304 6.233957770700602 6.5413456358264135
Pt 9.784855069172716 8.54423551278684 4.929436031182076
Pt 6.133265248045758 6.972081487858529 5.13486046988821
Pt 4.62459462724817 4.94630295849602 4.096267513428653
Pt 11.590350058569319 8.548918097189155 6.834954492908312
Pt 8.036923353474295 7.2349853155494745 7.090949614366345
Pt 9.210790287874909 9.59308074392752 7.257415223604261
Pt 5.109527711419203 3.0305482275989424 5.777519830141431
Pt 6.6458626999255195 5.008814134847338 6.692814936371405
Pt 3.4975034984583595 7.308111582150594 4.980557087415172
Pt 10.186493113394869 7.585858772003557 8.883434790470016
Pt 5.764746696613491 1.1689505010437824 7.530488969456173
Pt 4.7257772734968535 9.429446062024223 6.244910524950238
Pt 8.907781576232718 5.177902707991402 8.666948814124549
Pt 7.268906207292851 9.527807401366028 5.42189347380567
Pt 3.7557890160321414 5.184631205525663 6.611985263860443
Pt 8.638540566275815 9.687637638607656 9.76392094395163
Pt 5.510816367217598 7.279962417801477 7.692833050352183
Pt 4.614600360320552 3.3725607439142844 8.395555648146589
Pt 7.748396412692255 7.269464213253916 9.870833152725556
Pt 6.3299437759862 5.15071878530912 9.454978431250193
Pt 2.9190511819317226 7.602334424198224 7.475838706428568
Pt 4.189689730360995 9.577714743560083 8.894473449693294
Pt 3.6227340076888574 5.538005778069805 9.248663718755019
Pt 6.671445437820485 9.74905582333814 8.015150474546639
Pt 5.215261946555881 7.508894246171522 10.266375611894794
Pt 2.602782653881417 7.828093613209312 10.059624054743379
