34
Energy = -163.90919317 eV
Pt 6.825148977485958 6.441011469578124 3.590437340075033
Pt 5.27292442507546 8.61777236283871 3.8510917847312776
Pt 8.623380426970536 4.165126659998 5.026604787955195
Pt 4.718678908445298 3.9419011110901057 5.841476581994834
Pt 8.824708175170914 5.199620171910035 2.668425989224578
Pt 3.8196977605820077 8.361100126220968 5.907259250458021
Pt 7.768751378693798 8.621480389357936 4.55225993324066
Pt 9.71937885327952 10.085237221298922 7.529589734785622
Pt 8.615620527941072 8.879255359795943 9.429788602448456
Pt 2.4914620775231087 8.101261718379037 8.135772645876813
Pt 5.141286863163154 8.603144550349986 8.105497607163331
Pt 10.410326550198421 6.162572732346433 4.3872666149020905
Pt 4.689484901261828 4.097402431178267 10.46531501821801
Pt 11.50657926104796 10.49251470341815 5.871667006443667
Pt 5.728671901058497 6.4484378145706405 10.489906689665458
Pt 6.905492610702798 2.499328163335087 6.164349485535257
Pt 7.552752451966598 6.603534802536219 8.621729245940802
Pt 5.762892976564974 3.5898233320126205 8.218224200362338
Pt 6.310631907245012 3.569611239001954 3.916087542103646
Pt 8.186318377743024 4.259696877915828 7.60110883857293
Pt 7.51561641174395 8.863642923425598 7.08338437867344
Pt 3.7837847423296136 8.257102613384799 10.489257189034554
Pt 8.550616849764294 6.50967453577086 6.136716881052827
Pt 4.160695550658194 6.257375899857078 4.304634975147686
Pt 3.195719175417611 3.7001602324223697 8.078896312396486
Pt 3.267877492221745 5.958307163676902 9.398744779354443
Pt 3.3651634881385544 5.940013872577625 6.799636304277179
Pt 7.378873483590447 4.436740188940464 10.131675024274806
Pt 6.276525536720926 8.94145964356119 10.349954085428482
Pt 10.138947758363773 8.46506504125714 5.523002429420009
Pt 5.979109087384783 6.602798117592003 6.414690329228401
Pt 5.1842541617871545 5.105525235302418 2.238527287922099
Pt 7.213515580548956 3.6868025994148055 1.4872982950450075
Pt 6.861709698041343 10.282097024515156 2.9363211578770425
