34
Energy = -162.5708491 eV
Pt 7.547534706370547 11.799675604925735 7.531083805111895
Pt 8.021406640978999 5.185364580190468 3.9576217426883744
Pt 3.6370384106032603 6.550109463302027 8.685896512096244
Pt 8.979435122973944 6.987949289508504 6.254283026453596
Pt 4.619814793502337 7.954255704866466 5.543442363145843
Pt 6.246101678720186 3.4221777301683276 4.4294977759327105
Pt 3.4651739878646386 10.20742083925388 5.798396832327693
Pt 6.004054590089121 10.108842693422787 6.243412730281154
Pt 11.471544685717975 5.8938291723735245 4.103824699461091
Pt 9.406691903516004 7.337081716162948 3.7795612355694677
Pt 5.68645013606508 6.571766345672938 3.549166620585624
Pt 8.818057000885718 6.3807672364098265 8.75481170447051
Pt 6.302182931750006 4.540464643990616 2.1599574642902484
Pt 11.258168912745289 6.46566187788814 9.06270009450645
Pt 1.044881980944202 5.657385410886018 5.523790079753348
Pt 9.164837191278984 2.264076563520705 6.395950209339419
Pt 6.658293114431216 2.116073363942256 6.508237375742197
Pt 3.3694904148259437 5.991779777490994 4.393340098064655
Pt 4.393508066588786 4.330420482813775 5.996154169660228
Pt 7.24680819720828 8.382648085410684 8.643046998641081
Pt 7.920877713735082 4.297582413011119 7.468142539878239
Pt 5.103056567064163 8.173320045603624 10.071399114954389
Pt 9.93525900684062 4.430743166457891 5.489398569549285
Pt 11.389608907077093 6.1938453593445315 6.631978277457277
Pt 1.362852152834518 5.355860977069137 3.101211279374121
Pt 7.202676971430753 8.345036389144136 4.7045180071903
Pt 3.473100624386746 4.152831727609147 9.55691239056584
Pt 6.2157940994550644 5.982382850980077 8.70665799698193
Pt 6.3348147730233135 6.07731869663098 6.130198652195902
Pt 8.47494861931922 9.536731020206897 6.746350139624186
Pt 5.8797558415978015 10.46747441310838 8.911873881840526
Pt 3.9321449188894007 8.954232434330471 7.937259439025647
Pt 2.354331193981512 4.786059698309519 7.382721117779015
Pt 5.4764048621941415 3.495930944883705 8.244303774350799
