31
Energy = -146.33567351 eV
Pt 10.856670217231034 8.220190794304491 4.956635559275196
Pt 3.244080271681232 7.049429669525627 4.712230405826525
Pt 6.021993318883672 5.496575764325219 4.318644840980301
Pt 7.21341205949817 6.079862301763817 8.165883162408502
Pt 7.111324989081715 6.924392744036707 2.437084334185974
Pt 4.333304941846096 2.6588232436620705 7.31000398843788
Pt 5.211401035481993 8.646075511698026 2.6792266268084575
Pt 5.924892626662076 8.214491188702608 5.0696979951313
Pt 5.8243800252873195 3.875538749195081 9.079409832119143
Pt 10.272545734108883 8.643900591967112 7.427248774608111
Pt 3.8984073987475156 4.789229301138996 5.8208519858951755
Pt 8.497284286873674 7.823139859060093 4.331813995664417
Pt 7.805225146320886 8.439591593494228 6.831564911439285
Pt 12.098492414407556 6.92307981268989 6.707446963301765
Pt 6.347575642035936 4.156211513105172 6.4973339099474785
Pt 2.961317712297059 9.40596831119117 3.5111930680925245
Pt 5.1148107477840865 6.390341397659048 9.696798539610937
Pt 9.91536515297889 6.112282035819887 7.637168754189407
Pt 8.268079791213859 5.611775384777007 5.620457460499572
Pt 7.842577516468876 2.453549368853683 9.399573323621855
Pt 3.37746501360597 4.732301734163164 8.450588506167758
Pt 6.221909327987475 8.629046827703919 10.054213658131992
Pt 3.7018462396949987 9.240054785684185 5.958596851519905
Pt 2.6681812856082314 4.7922064214109215 3.579353372163006
Pt 2.5896945961417024 6.730148731101795 9.798633344650314
Pt 2.979895049027809 7.125298494733698 7.304223589816448
Pt 14.240912639836806 6.188101996974655 7.230117535162847
Pt 4.427299542383394 6.237605734686385 2.485020425080182
Pt 8.524247650515882 8.027081623964675 9.262133377993285
Pt 8.705257902773395 3.8944616399376026 7.610265649206595
Pt 5.38020183992798 8.069294989064124 7.636637374459634
