30
Energy = -144.38244689 eV
Pt 6.604150493243027 3.640887984338003 3.0582204554575854
Pt 4.481097498698353 7.17901864046428 3.090585922845815
Pt 6.3005869946714235 5.85142840809704 4.252096613480141
Pt 9.037543390244354 8.574009484746965 3.74245623891016
Pt 6.496694605230789 8.449675803385473 4.19680989275893
Pt 4.516704264988138 2.648112571495908 3.9624481803649894
Pt 2.600187894613069 6.094622861399981 4.431920090948077
Pt 7.766670114138926 3.940440345481239 5.301844346403754
Pt 8.716706303532353 6.478091780369962 5.182242111942604
Pt 4.21372482276314 4.586495394998228 5.65053981253459
Pt 8.230514041075638 10.063635874334027 5.645874846883481
Pt 4.153942386783788 7.73586069987435 5.591510865587481
Pt 5.718557449709449 2.5238688061829992 6.203826297522243
Pt 10.045376700360704 8.327335694930108 6.356214407396606
Pt 6.027993475403923 9.216956534403085 6.665746969308081
Pt 6.64033899634874 6.589398391119082 6.919137005957374
Pt 11.478057248768012 6.346607730728246 6.985870679832501
Pt 3.7992167920467264 8.799276561362195 7.918050223696718
Pt 7.179918066967551 11.468514620466898 7.594928549714841
Pt 4.453624006744393 3.631529031078825 8.225639831391126
Pt 8.517066793918204 9.396686810001047 8.295502795322976
Pt 4.1946429981753806 6.183462754177415 7.772338078494656
Pt 7.007557000926234 4.038537453277296 7.826470989280807
Pt 9.678374253084748 7.142351121109654 8.694009321104078
Pt 9.321158252776554 4.967637481365633 7.13706588553687
Pt 6.01815135412794 9.721530168917877 9.200821834204643
Pt 4.649164775383209 7.6499566144933535 10.074470857496655
Pt 7.229475944500037 7.407038391862282 9.474421363353775
Pt 8.318838297166765 5.111906630746252 9.722956500395325
Pt 5.648176189600739 5.279336760784923 9.870190437865018
