37
Energy = -182.70206892 eV
Pt 4.704796478041317 5.49490416002381 0.16717746729634034
Pt 3.110370675385751 1.6945569555808284 0.9335999175319729
Pt 2.5226875590868856 4.301355650309848 1.0124293325145242
Pt 7.47575100194672 3.8779404354803275 1.6402101564703833
Pt 3.4213595096141587 6.48156755269037 2.184784959409582
Pt 5.9474681185906055 5.830390310504082 2.488797300473302
Pt 4.991665429120737 3.332635040294248 1.5425146815157909
Pt 0.9410672379632211 5.752230552959363 2.536434858517433
Pt 2.1056347219654397 1.8581099582056433 3.230953697765393
Pt 0.3839250416325306 3.2126581312882587 1.8597512291451772
Pt 4.759217202291214 1.1123460516967247 2.953766028665566
Pt 7.295238807338225 7.8343346183743785 3.741836134174988
Pt 8.422959013019707 5.390531555809989 3.570327287836686
Pt 0.884876641427795 3.919375695047193 4.360054112814305
Pt 4.699819957548991 7.7712272939436975 4.030453800349859
Pt 7.909916008109346 2.720212338202149 3.836515924471393
Pt 5.317129790923963 3.421249115405447 4.202569708834941
Pt 3.4438685418541004 5.116503969215928 4.556908316334721
Pt 6.178959651397407 1.145128928816463 5.202507352314414
Pt 6.002787722184447 5.618567215929926 5.230647425888231
Pt 8.321707305311058 4.285530065603862 5.946984323741497
Pt 2.1055405575997295 7.5409528422821674 4.19903839236725
Pt 1.01059428864185 1.5880541179184007 5.523755656243774
Pt 8.463815906002528 1.6734460420299857 6.194920999846381
Pt 8.595243710719947 6.8505742009483335 5.787408983197788
Pt 4.991183383296383 2.9127985142712136 6.979430941805308
Pt 8.714013203481995 6.313650937652941 4.7078992967351745
Pt 6.272135322090516 8.086933035968672 6.193076110756216
Pt 1.6043921394556406 6.020901679630871 6.357239464014566
Pt 2.4745245338627466 3.5314876953078596 6.498792564628844
Pt 3.605811349922076 1.3809683785989002 5.35391205025987
Pt 3.5841615781424743 7.844371667972702 6.42983492411261
Pt 3.9269670330720525 5.45551520354726 7.403337469915806
Pt 7.061191178038478 5.848161674228561 7.697871121239884
Pt 7.3122484191782995 3.0885360785061 7.988752705098885
Pt 5.200562918102813 7.482409381626183 8.501461523647286
Pt 5.501752487260594 4.449122009555235 9.193282835491393
