31
Energy = -147.05743078 eV
Pt 6.764126799920922 9.26806117989486 4.066294131703778
Pt 10.350779615419516 8.670645488054001 4.01155948860584
Pt 10.544427340927923 5.745368613140868 7.983437794433414
Pt 5.629669891066922 8.272485468713992 9.947295778055405
Pt 8.19149667823442 6.966450332265642 5.750956798418726
Pt 2.591050470000883 9.031938237129427 6.1266465913750014
Pt 5.797759793142754 8.013068601801494 6.089429530960652
Pt 7.288084612527294 7.221487543016031 8.37472037900228
Pt 3.1182597805678016 8.850718642727637 10.189465062145898
Pt 10.127060035708231 3.3868477164622757 8.860917911994985
Pt 7.084033811217274 5.92093009854416 3.663511433834491
Pt 8.186998851657528 4.838087095010324 8.307111656366102
Pt 7.1176426012230225 4.5817052667419915 5.956266467168196
Pt 6.676015796320806 2.8173810086330313 7.902629769616342
Pt 4.577180369785134 2.980777459268582 6.520070278726653
Pt 3.075279999286473 4.447907971679791 7.8997272651016575
Pt 3.391762890841862 6.6824800995347475 6.714509496293213
Pt 7.007421610428618 9.697483741681086 7.750705901672204
Pt 9.581513599226911 8.136754734441686 7.743142114289806
Pt 4.56159551475157 6.437240713077142 4.441515029266336
Pt 5.53940009226585 5.264997406851577 8.0263483645883
Pt 5.3871197771721056 4.054483703598878 4.123297324772119
Pt 4.371435455581475 1.8053800964048974 4.371580217731915
Pt 4.163073028455513 8.970258350469717 4.188003817874139
Pt 5.652734230371818 7.731463724289458 2.3130415915466616
Pt 8.342443533649831 7.951116669501855 2.657778725920116
Pt 10.744804827526865 6.818554022239359 5.689283159662929
Pt 3.699637517716991 6.514725201072409 9.321003881722357
Pt 8.617414065875924 1.4524972575198212 8.53291316498726
Pt 4.353854161631254 9.127479658039535 7.953294404000717
Pt 8.669280369395805 9.544581020093334 5.7268995900618265
