35
Energy = -167.44888191 eV
Pt 6.843033404991649 4.815463749927282 5.054303494093946
Pt 3.18802564321818 6.102179614105564 7.7503968572384805
Pt 9.981981810456864 3.1789744699208753 8.632782402095097
Pt 7.261232960001141 7.681569855907112 8.073624661360187
Pt 10.60523548307225 7.231706493768823 2.1968653703217647
Pt 8.77843114122127 3.9481310507532146 6.496401201663603
Pt 6.709333943909321 5.136431569681763 7.676706753562898
Pt 10.578726966903487 4.723080972162743 2.092284484048944
Pt 1.7867971349053051 8.057035419906773 6.568842566742886
Pt 6.941291153885754 6.831294654324858 10.485115697804932
Pt 9.47159152841498 6.77831851116766 10.621813949901695
Pt 4.6886948186206014 7.9513383090372205 3.6229100619251047
Pt 8.378691791611532 6.006732319957518 1.7775447112308993
Pt 5.882087769800248 10.392244943473523 7.367178177990607
Pt 9.224316150070559 4.943378864224059 4.223373125340428
Pt 4.7393495401455095 5.047458367571305 3.624105747295406
Pt 3.9343331770372623 9.305776436653883 5.857339704186384
Pt 5.812634360177552 6.300697370019812 1.715424417297378
Pt 4.899627802358292 2.9721368028067725 8.23252015386541
Pt 7.432685617455131 2.690805204272543 8.453408368449097
Pt 4.619733209741616 8.33973856536115 8.170638249693
Pt 7.235499486832338 7.357967188036052 3.5534699585198872
Pt 4.482036240240637 7.449526363707526 10.546632734027959
Pt 2.133357687669107 8.512599986881535 4.045923926732861
Pt 8.28438421604026 4.796548920469515 9.644195132092019
Pt 10.54346574021073 4.441046445108429 10.816390813345919
Pt 5.612595515701162 6.9340769855078435 6.049199248923282
Pt 6.488743443067287 9.26048803007179 5.156240837293197
Pt 3.0207918647646737 6.280691522274832 5.048887651410241
Pt 8.739932918573578 8.856375883664679 6.287494532529433
Pt 4.398534296287069 4.382432304848836 6.159561142512806
Pt 9.60346144425303 7.485200906414554 4.463658178834226
Pt 2.2238419422008655 8.04474030778408 9.120124622984227
Pt 8.134308820772333 10.077012774691015 8.452133094880221
Pt 4.84388517578685 5.189473035932954 9.465182170203516
