34
Energy = -163.34008195 eV
Pt 9.07211485544389 4.872211510919724 5.63797872340293
Pt 4.187426030274599 8.73371211296982 4.547110124720238
Pt 6.8697371978380435 7.1310307295038395 12.774795808947662
Pt 4.961684011051409 11.12282514882526 4.187566749163916
Pt 4.9619228478660995 6.8228161308832815 2.949898066678216
Pt 5.341755835521604 5.4068071472300865 6.310243945807861
Pt 4.091170604205275 7.023576780407278 7.850445283048656
Pt 6.736933537709634 3.5689614510559533 4.981479706266958
Pt 4.945841593002992 4.7197171165410285 8.79637357760498
Pt 7.336415669289714 5.843113560083788 3.946880679398552
Pt 7.861831110083556 7.612938122727936 10.52014250048659
Pt 4.664912380760786 3.6825547671719523 11.086898946159682
Pt 3.274048371402076 6.380468513697896 4.908816195710485
Pt 8.301573984848691 8.474672460977676 3.8556381855384485
Pt 6.9245057443324445 3.159100058222993 9.872390377134828
Pt 10.990820925339381 4.093092619801703 7.109905107896364
Pt 6.54055363931846 9.47867987708971 5.473823475425483
Pt 5.94661886481509 9.29753418382837 2.664830235077317
Pt 4.469115455008832 4.397642891286351 3.8730189516853355
Pt 5.012161910005104 11.021314592714086 6.79981109014056
Pt 7.752708735279728 7.2376635446924915 6.071320342256953
Pt 8.715990605117726 8.446179270583423 8.212972688023365
Pt 8.650390186203156 5.356689684213449 9.544591603956585
Pt 6.613694334875254 6.75176339537432 8.327178388067882
Pt 5.982005714228351 2.6126613507256002 2.754899270448337
Pt 1.772550623711726 7.215441136081036 6.764132653435078
Pt 9.24793904107365 3.0847678763614326 8.71831413703198
Pt 7.356384364333987 4.0786973800305555 7.384253494183301
Pt 10.040710725384235 6.360135926237833 7.699496731466174
Pt 6.267537947326485 5.626387506543323 10.911644857454386
Pt 9.019065823022407 9.776398490101457 6.006117571392787
Pt 7.294026227035416 7.331736586086873 1.6971869642872004
Pt 3.3006334174693572 9.227837839707812 6.853246834450823
Pt 6.362786043911571 4.918438594411889 1.7741650903404687
