34
Energy = -166.80945926 eV
Pt 9.750728073399706 7.271745893142864 6.43992973775375
Pt 9.112057117136807 6.474321826019755 8.793942881227306
Pt 9.382203405455323 9.780636942163687 5.750939628838702
Pt 9.209198271586661 7.963681631781222 3.892097137387185
Pt 8.3906431758768 10.34233279220479 3.299503122482525
Pt 9.766869471674836 5.5268527003952475 4.441358912204109
Pt 7.630084705709198 8.433207350499202 7.489597715618251
Pt 6.943796772921605 6.57985875821107 5.6065431232864915
Pt 7.202136255147143 7.791667805122931 10.113706235496032
Pt 9.148776603954174 3.9405168996472675 2.4803376341134067
Pt 7.6998590372380855 6.115673788239643 2.8699754785093123
Pt 6.387123533675122 10.010642186696352 9.245456632338234
Pt 6.586322717749566 8.41252244023613 2.904329895400076
Pt 6.827058966444259 9.717567564877235 5.242209136824203
Pt 8.133653391772793 5.646709605463056 11.09594921950528
Pt 8.646035700529982 4.859419595382548 6.71386781705514
Pt 7.8068036779079195 3.480899698671058 4.654002656036418
Pt 5.11735568450131 9.39922776311788 7.071156411962753
Pt 6.510423023222101 3.8745406216327 2.3360723401538417
Pt 4.843557384237935 8.047516876683094 4.841764633962928
Pt 7.200187256385653 4.640381068586814 8.870364958567047
Pt 5.005809437782257 6.29890292650393 2.8265776609536184
Pt 4.660135439009622 7.948941568207973 9.236700462407011
Pt 5.51372809961379 5.722307836681381 10.600013470335586
Pt 6.4078933926360016 3.3015771350030794 6.809760328362234
Pt 5.370190185914637 6.034249621100209 7.557293508772175
Pt 5.42379454162236 4.517162976193156 4.6632637075547985
Pt 3.3329188345365166 7.523084813203788 6.9195382664567155
Pt 3.2290473804526814 5.912513784951957 4.774163970129786
Pt 4.8331683884608285 3.567491204720397 9.01711973020682
Pt 3.278591124497857 5.776686924695659 9.20045985687269
Pt 3.850166722055582 3.8868204584279713 6.5879967272757805
Pt 1.8113564967897997 5.41799803462356 6.941436682329705
Pt 2.211984457516834 3.428229337915419 8.601033735117749
