36
Energy = -174.7435901 eV
Pt 6.99570608973645 8.04018925904846 3.559672760487262
Pt 2.9040147436454795 5.624195961282629 2.3501580942241227
Pt 1.4204752322953274 5.116045430331145 7.095203743118834
Pt 7.238286535634267 9.448206334485404 5.841215900508249
Pt 5.948632833148265 3.5755670027374435 7.682726933454506
Pt 4.502443857853284 6.672432456654652 5.514563340315118
Pt 6.83203523596278 9.59774616473628 8.395876381631163
Pt 5.049559746432868 4.923749469396378 3.5380283248679945
Pt 3.7668104010639927 4.254190435893982 6.428807156388208
Pt 8.939033610044882 8.541178692199187 9.847881761998277
Pt 8.825158013425684 6.239749749112025 3.5211541828945734
Pt 2.2341472348642317 5.493345217477122 4.749543433947045
Pt 10.020168922133015 4.27517592249808 7.492420406740119
Pt 6.699725621202906 7.292868083646951 9.702498991002424
Pt 5.411191228617925 11.093528303129256 6.5407374273239345
Pt 2.5958919409672836 7.17944670521095 7.803181148095495
Pt 4.60555175257986 7.424347569479324 2.9514902888874883
Pt 5.553208250182776 2.5924805200327388 2.6591199191734787
Pt 4.575235947816849 8.757130197192533 7.304737045442372
Pt 9.170357029299767 8.582791600045068 7.276864661199786
Pt 7.1329089620100605 6.687954934218164 5.815156395528317
Pt 5.613628247276934 2.976984836620378 5.192847677645094
Pt 11.536889204256495 3.0520567792837294 5.978832323614709
Pt 10.014991558331646 6.562691935725941 8.63928648594071
Pt 9.86427771858621 6.386683243143458 5.9412926118762215
Pt 6.047042987591756 4.702230184504338 10.08676998468919
Pt 7.9309134506068295 3.8325426376689764 6.022600821271436
Pt 7.5514867668897825 4.015541322896462 3.2849821478848775
Pt 4.928234352410186 6.012713581382799 8.126521337761679
Pt 5.799578920022168 9.50589068232966 10.726850347796274
Pt 9.88402357608825 4.083099129368753 4.418406326039204
Pt 4.0421989144510215 7.998105653697038 9.729598209777198
Pt 8.008865790538614 9.633452773700037 11.85628782908201
Pt 9.364211030990274 8.591670480443304 4.615069904814945
Pt 4.868537025947332 9.276170645319391 4.726176037256605
Pt 7.684552315724663 5.517821153737888 8.143414705950521
