30
Energy = -144.72396249 eV
Pt 6.359889118160758 11.306398917396725 10.252001677208993
Pt 5.65295351550325 8.94134216674784 10.533837970002507
Pt 6.02706320316713 6.382824690171768 10.436770161782196
Pt 6.610328589806763 3.7550832422719083 10.000893592678787
Pt 7.977057115767195 10.45350861195293 8.630855272772093
Pt 7.793881373561843 8.082568935161879 9.518910139935159
Pt 10.101402060826734 9.936033552652198 7.445240694478829
Pt 8.119757597832995 5.5834360337577085 8.816660606401243
Pt 9.3889365717616 7.460228150214466 7.518626818250214
Pt 5.120266569431757 5.019055725004616 8.388674406805116
Pt 4.886789513124016 7.808267856969763 8.373016739405847
Pt 7.786902891224464 3.2315307487370055 7.738427199119326
Pt 8.902186424468205 5.221181603915212 6.300230224808378
Pt 7.001183138252372 8.586678120199185 7.013429316141563
Pt 9.110376097498836 8.969021826186351 5.366741528806579
Pt 5.650836847775582 3.4066098063971424 6.3889446306781625
Pt 3.1150535900690364 3.9168014271565017 6.681598016353742
Pt 3.879348435806514 6.330900380095263 6.459890021870739
Pt 6.467380128594552 6.042165431915968 6.313174086896066
Pt 8.883237335055668 7.810065488967976 3.1547360103367605
Pt 7.759199612259216 3.215597062061359 5.025057610455677
Pt 6.704725299865124 8.215319775322932 4.459626688102786
Pt 7.893846030832599 5.5937146950373755 3.9306358480891928
Pt 4.604050508192665 8.666216625874918 5.859363836348981
Pt 4.178073767765491 3.128431498980905 4.4148993227370745
Pt 2.842499542165281 5.513917532788829 4.287484972508032
Pt 6.256032096712653 2.882657296117657 2.9564394076585656
Pt 6.5835076359393945 7.0252216304097335 2.095222483457985
Pt 4.276946789635524 7.554355205405675 3.503690713791502
Pt 5.307312382973665 5.2018897461597 3.3759437861484987
