37
Energy = -182.34256831 eV
Pt 5.995274475382591 2.199064635282081 4.57949658268669
Pt 8.281263758923354 3.224422757731755 5.501467158289584
Pt 6.342000147975868 2.4963304780430833 7.242129153309065
Pt 8.86906337836222 2.9719351359188746 8.043268450639943
Pt 9.933875609607384 4.912140953760427 6.676024171534889
Pt 7.476010310742276 3.7743029985006618 3.0965494474988002
Pt 4.1473414598444 3.4715924849711883 5.9548187760486435
Pt 8.963421648445978 5.56919986897998 4.320102563036553
Pt 4.926988557205958 4.405990186100256 3.362440670633199
Pt 6.963672173525387 3.5662432374324866 9.74002527942272
Pt 6.163798739397385 5.062362269281105 5.537038408678908
Pt 10.943329262669204 5.898406842092253 8.795903611217913
Pt 7.499478971418391 5.328714914403318 7.7061478953986535
Pt 6.886262761623824 6.294764379377671 2.805065993428136
Pt 8.636625487730038 8.143649550007078 3.787562874461059
Pt 4.7680233779599295 4.130215541014541 8.438848600493566
Pt 8.677448545135004 5.660884922093968 9.951961443589196
Pt 10.216293793677446 7.381045344188502 5.773715418361162
Pt 7.482975954685809 7.252840287794387 5.932464294610759
Pt 2.856192731564517 5.440700924058058 7.175209948945698
Pt 6.322711942289905 8.845261967227376 2.773131500024817
Pt 9.216067128234029 7.712878817345481 8.222380685978136
Pt 2.7793608647766965 5.311277861512559 4.581511285861998
Pt 4.331154461240857 6.947677896121435 3.300253288000805
Pt 5.141008922474808 6.777786846262844 7.25564699956982
Pt 5.392873541793688 8.421259603013896 5.068346488518305
Pt 6.139137864497151 6.1317863433657935 9.896169481285904
Pt 8.673891869002517 9.541953940595377 6.4000252318794235
Pt 3.4495884652507316 5.8801904066074195 9.754076082572817
Pt 7.871797949662513 10.609872019262857 4.046528379163929
Pt 2.8631372394202406 7.728615186588512 5.647790045350878
Pt 2.4093444933763912 7.831356117132416 8.265119076854962
Pt 6.824800088830204 8.749449974845339 8.222186986925818
Pt 3.5887022444343137 10.259477365238922 5.134340264320809
Pt 4.632485137991992 8.204588757449159 9.651218411505846
Pt 6.222899906387544 10.562546467410428 6.084723159712727
Pt 4.291729338719802 9.529826009005703 7.500023367009547
