38
Energy = -188.9946217 eV
Pt 3.0198636750862633 7.75621649299647 10.238335033595737
Pt 5.4248506737075886 8.633030823026177 9.652713900405864
Pt 3.633727638192786 7.859373987354194 7.699042453109148
Pt 5.688396032319966 9.535195178151838 7.249132334606981
Pt 3.8574756198250264 9.081061975357352 5.403741746534005
Pt 5.086370723970689 6.5530755723250556 11.202130545691269
Pt 7.842898849366961 9.388372515193383 8.896722774241137
Pt 3.558785657146528 5.431798878815534 9.183838656276667
Pt 4.2144894074363215 10.157314163545536 3.034719382172857
Pt 6.119813077154866 10.466246479560215 4.771590025581212
Pt 2.636092227832265 6.7654464962056355 5.531420340067774
Pt 7.595512639868685 7.416490111519608 7.241619870992597
Pt 7.426901072519242 6.97594126761421 10.12782006531456
Pt 7.95342539403018 10.725810546322592 6.546023876619351
Pt 3.3666362095985973 4.573261444510271 6.665079111930716
Pt 5.841582772240067 7.280669369570593 5.208783709852946
Pt 3.809116547336158 7.531504151918493 3.234008425554448
Pt 6.176026565271187 4.694155515866463 9.636669734930704
Pt 4.602064805897195 3.0737531731950583 8.357747471787292
Pt 5.482496750632446 5.963188906926549 7.400465923629966
Pt 9.784866211990385 8.760728161710151 6.752758871096657
Pt 9.759655134087232 7.440356693521749 9.026876212734624
Pt 8.589126279616783 5.113217781130962 8.721181809172093
Pt 6.272393983933484 8.548806883993738 2.8132239886114414
Pt 7.445984409290679 5.230462861799352 5.905362889831662
Pt 8.175271280382065 8.866536564058954 4.645780122221659
Pt 4.417527062650494 5.216499227442861 4.305614797315391
Pt 7.1969607101689865 2.9133508946070843 8.024531292440704
Pt 5.717072524679561 6.029267051466348 2.137362656011506
Pt 7.974207636664087 6.588355893321207 3.2707639993761117
Pt 10.187767112476596 7.254351297553072 4.482045717013099
Pt 5.524825618709188 3.265059465411303 5.827536997915992
Pt 10.129734684212906 6.041768379505796 6.762670916700075
Pt 9.462477771517223 4.695669276968827 4.397486878615606
Pt 6.7360039016567566 4.10602732180479 3.580248531911414
Pt 9.604683535813123 3.506658673953565 6.904476861194106
Pt 8.687205385604834 1.0700229785478688 7.069812684992356
Pt 7.987670036236526 2.480913162351262 5.080619009074537
