36
Energy = -177.6943138 eV
Pt 8.630698265807565 5.924879839748692 10.197452522078779
Pt 10.636060953772128 7.573097780753462 9.590131437429408
Pt 8.885721398691809 3.469226085751297 9.127882867681237
Pt 4.559226464431402 3.7956215156206934 7.478449793044083
Pt 6.452311246262329 4.553761565558506 9.361988860691355
Pt 7.0665233967926335 2.9209627096187147 7.2480202580357895
Pt 8.411740961514587 8.56458101159816 10.66686097550298
Pt 6.278346105155943 7.03872482984428 10.25753112361033
Pt 5.473543221968647 2.873218458967546 5.1412450539577
Pt 3.4348231568870125 4.57752180793392 5.049475759267842
Pt 7.696440608392897 7.882221748232838 8.23333365929824
Pt 4.4179649485453565 6.146281553493248 8.757651699265178
Pt 10.269858401734362 5.499701632878057 8.05544558461653
Pt 9.683502348179674 3.474297284168858 6.571685828696002
Pt 9.690863444142849 10.051865739174328 8.825621631239649
Pt 5.317493443831926 5.909273889070564 6.240346022257934
Pt 7.685621650569495 5.51900862154812 7.2884238162702015
Pt 7.044782526608053 10.267835561216573 8.95940006946791
Pt 10.102856939800018 8.056979818898556 7.098756635838641
Pt 2.3315108621323914 5.448886353076351 7.3735623715895535
Pt 3.344790582836731 8.01138993568783 7.159076300748271
Pt 4.7949287561760165 8.840119102152325 9.12816826551933
Pt 9.75406027327695 5.964429765973159 5.440857671207582
Pt 7.772474080699862 4.144214005929166 4.896920208120545
Pt 5.720006710756765 5.149465144228827 3.704969953391971
Pt 9.370240901745278 8.532510016933958 4.623784927002938
Pt 7.253147429521692 7.475247485422349 5.633595792046835
Pt 8.286237728682305 10.106915975410617 6.5401732907872425
Pt 4.51794324371042 8.054479062444631 4.828610834432083
Pt 3.519883191835169 6.414077130717261 2.9978471141651633
Pt 8.086669848289189 6.340775862364756 3.4411033093924748
Pt 2.1053151626118747 6.824303460582806 5.18737416225836
Pt 5.651428250623433 9.42638344590838 6.754686282856116
Pt 6.942903132737518 9.691385524414532 4.299022028096368
Pt 5.940400091228801 7.604967650679433 2.6882595914631358
Pt 4.7587913989497155 9.861356739920987 2.9918095994837923
