32
Energy = -155.85331103 eV
Pt 9.022364995212364 9.07405976759985 6.208774398166425
Pt 9.20231877309455 6.741333854142313 7.5168273391333535
Pt 4.98357130397725 8.98454780778465 3.5559013245109576
Pt 8.496917751864254 6.750563412934569 10.08076936334398
Pt 8.997545049654716 9.152863956333851 3.6206520686517365
Pt 8.70884436639483 9.02501879283054 8.8182408446487
Pt 9.15209001481439 6.818447985990538 4.839356223671951
Pt 6.985909605064678 9.933233024544402 2.2234302214780026
Pt 6.732733037469731 7.780044650957197 5.624484085351635
Pt 9.29386472637417 2.3457247443314184 7.397457813769781
Pt 6.469945754153149 7.6769809238916 8.184918879308372
Pt 7.079598485083513 7.378115964793564 3.0128919927056295
Pt 6.818607264632347 10.322775041078982 4.905961440854914
Pt 7.2091059750241815 5.053183990318339 4.185952961831001
Pt 3.970756989972294 8.424743906477342 5.824643952197202
Pt 9.221101980384885 4.509051888458728 5.969256849555605
Pt 7.3083439172840965 2.7007024503301977 5.577015957895227
Pt 8.95135093068472 4.484297920520111 8.877625343104443
Pt 5.443366698355992 10.106298364111964 7.096887843164816
Pt 5.1088404399287715 1.7838573513601579 6.783334307610834
Pt 6.810938003168999 5.418697701466091 6.844883120092582
Pt 7.794928955836193 11.049069170469703 7.386807546435242
Pt 4.860024572178507 6.372450162386281 4.383779749773588
Pt 6.337077253806173 9.910297758846351 9.544005849074107
Pt 6.920662097429974 3.0018767573602054 8.181969357865027
Pt 4.9806847420233575 4.022106662028293 5.4635064037525245
Pt 4.109640270224891 6.100257071016064 6.9709606003110975
Pt 4.459142457200819 3.841167188401382 8.283778383849267
Pt 3.9825050443258014 8.330944483338566 8.490849887971
Pt 5.94886876213525 7.572353280321225 10.688575411606339
Pt 3.9960263396446867 5.963197325962286 9.670114121583762
Pt 6.462908540368938 5.138619520125077 9.661685087834538
