35
Energy = -166.61597143 eV
Pt 1.8614612362138543 8.991696555822916 6.61340957725494
Pt 3.648097991323927 6.8529760791942955 6.521646117458036
Pt 7.07523162456681 7.882758528387303 3.541598662878715
Pt 7.163663940321069 6.0056701124995815 10.317901427274276
Pt 2.523240559843961 6.65279387810453 2.208699998174975
Pt 5.403099947984358 4.9239345977175395 6.092245084113444
Pt 5.12645348972466 9.478575056353565 8.88153719521937
Pt 7.398817422047242 1.2573770743071622 5.664108393202332
Pt 2.929539907906054 7.941523683006039 8.771493183427012
Pt 6.693531939964718 9.776482599704915 6.852640995428921
Pt 9.365860086545695 6.658931970338999 9.012677565504143
Pt 4.967053475929613 7.307335080879048 2.336016255806435
Pt 8.567242157116679 5.93564792165387 4.0478393290945975
Pt 4.679402194671934 8.735364453238988 4.467819549908745
Pt 9.876284566055528 5.274974813002174 6.877384387045152
Pt 2.273765963628657 7.831558870648077 4.450818720452173
Pt 5.810919154918573 0.3519851669058732 7.304783118949717
Pt 7.51534680882302 5.0049105380468495 7.849202174673123
Pt 5.427906407775717 4.394732913822445 9.301648955442532
Pt 11.149323591848132 7.63149967673675 7.487372992754669
Pt 5.29592749231817 6.835623798952522 8.605709162592362
Pt 6.341060807382286 7.2997762875998715 6.096543958697188
Pt 9.275330952943738 9.562226086553366 7.42791637465644
Pt 6.15644318095641 2.7851550571850705 7.375499242059926
Pt 7.742072014636708 3.9485070346285562 5.44536606261981
Pt 10.494540111780246 4.394957667079161 4.510900587982353
Pt 2.672316768508658 10.515100222363216 8.695424930775406
Pt 3.994296017263875 5.71045137763243 4.144299037741134
Pt 7.944982667546659 0.26897243285078176 3.4644894426942225
Pt 8.68169898089887 7.798908786014487 11.229181370708
Pt 9.152457466841204 2.3241088113906083 4.06301895649938
Pt 7.506863296727719 8.59346918129427 9.11581990091274
Pt 8.99562884149087 7.486880295210357 5.988916036146686
Pt 4.151534252302537 10.087356362658495 6.515627444183011
Pt 8.329400544542807 9.688572891566917 4.911239671019152
