31
Energy = -150.49021676 eV
Pt 9.762299260950265 5.970204221524435 9.38290916999682
Pt 7.916506687082055 7.723992136288486 9.596156696332544
Pt 7.196234421647597 5.195790669142568 9.948028823063916
Pt 5.300877385090999 7.0532360852527995 9.791912414622674
Pt 10.278369510307595 5.328089883453611 6.852051455598509
Pt 6.150310846410358 9.549839940587587 9.882630690956027
Pt 3.867173084240444 6.47906852726217 7.665084232526549
Pt 7.548075319207279 6.109577794192031 7.486243029196566
Pt 9.632098879377308 7.8059839429149465 7.399451985478803
Pt 4.586355965317209 4.626997542006538 9.34500800154602
Pt 8.30660822617181 9.927049485947679 8.290492909127517
Pt 6.4773529725783 3.646442802489486 7.896231312532294
Pt 8.99924941127537 3.647345458066522 8.41915449179405
Pt 6.0058052486281746 9.256192264379074 7.204874976392847
Pt 3.883071221073206 8.965160116854737 8.672378837901476
Pt 6.062582578360201 2.3415420131190166 5.698129288155633
Pt 8.24397171139788 3.9527556242383812 5.865518991939899
Pt 4.178981348926823 4.063428789882149 6.760473803520393
Pt 8.671081873966033 6.5759588489884955 5.116536194858561
Pt 3.7163292366788165 8.541087318076379 6.117810153302511
Pt 8.208417542752173 9.29787766603928 5.794374134224349
Pt 5.884902985175946 5.895858262504193 5.524413506711027
Pt 4.5238302006925615 3.8129710890052784 4.185452923304993
Pt 5.928949034653003 8.611006283434632 4.700757811616667
Pt 3.3398787363536715 6.0541083003403005 5.088656529473489
Pt 7.076663775729412 3.7002967254650385 3.6255736562398013
Pt 7.068865256644168 6.15721174297013 3.1046989657968513
Pt 8.171923268175112 8.499820395808978 3.339700595702875
Pt 3.6417303616428423 8.197414576994435 3.544599782689941
Pt 4.528210447523672 5.847100468504391 2.6470918633590457
Pt 5.787208239568501 8.140087439567335 2.006453099945733
