35
Energy = -172.50244992 eV
Pt 7.5327625178844 7.279979683292925 11.082595433318899
Pt 9.115166054141143 6.429398739376406 9.06566830708427
Pt 6.264727552721398 5.1379633497011765 10.392719592382969
Pt 8.814426957698227 9.006098043898097 9.605174790784659
Pt 4.712989952955992 7.187556871279047 10.875855372782622
Pt 10.477075077910174 4.230700764353891 8.196680980587852
Pt 7.958038676102021 4.006608224716826 8.752073174562145
Pt 3.73636649950206 5.327718747102877 9.3670031473619
Pt 5.4176009518100745 3.6965138371344914 8.311328366956351
Pt 6.1072724833586385 8.868484085842205 9.429845682990782
Pt 9.0061802070252 8.35498867483805 7.033281984268164
Pt 6.616503727035124 6.6200490128401235 8.30875262179352
Pt 7.613594455853546 10.474448713740998 7.880253452261629
Pt 9.249143112022555 3.2492885357195265 6.1193231556686225
Pt 7.056600147716223 2.180230822620169 7.027613491707084
Pt 4.149967388539642 7.41695250645094 7.9862854051416585
Pt 9.562537171636137 5.880952385937373 6.438496793126921
Pt 6.418996075688004 11.78044198050241 5.972675348022509
Pt 8.12623431412409 9.977039508919475 5.196068038649006
Pt 8.811827418977272 7.4794075613430415 4.547022396447358
Pt 6.62225355736522 7.681782149987319 5.964481273294443
Pt 5.226317941138049 9.677336177186275 7.095422243951404
Pt 6.982756065902768 4.999906779341913 6.30426897012485
Pt 7.287922779152774 2.600640940619215 4.45639917650414
Pt 3.014123217814374 4.0749047728328485 7.248473851278092
Pt 3.5545894989608415 8.339697654347393 5.580648628258377
Pt 4.22506724653087 5.839401032156371 5.81012098052994
Pt 4.94136308146968 3.1718891114663306 5.689185136082077
Pt 6.975753711699361 11.455510666891476 3.3591465753258842
Pt 8.68486273258295 4.862882393168826 4.069789100216329
Pt 5.129143426225345 9.989837679465774 4.419499145043565
Pt 7.183161080244564 8.957905349953764 2.8999829960584536
Pt 5.193805856501403 7.346380453131778 3.783558037639225
Pt 5.904581675221571 4.813595946361014 3.8796177925854356
Pt 7.3552916151365 6.4732194375243886 2.498742532790553
