39
Energy = -195.62164419 eV
Pt 4.672800483073797 2.7196455506886092 8.936581689818059
Pt 2.9087026598996992 2.8967956667036585 7.006944320323695
Pt 5.725667542330801 4.942980334280569 9.958106204139588
Pt 5.581502953090535 2.784720511829543 6.424880073266326
Pt 8.322221531518858 4.504005857787745 10.440903274441858
Pt 7.217058062429808 3.232664757771847 8.452781509158195
Pt 3.582032376876159 5.110899233165844 8.431863781662688
Pt 1.772233742136043 5.185088547261171 6.459668870897008
Pt 5.05101979648323 7.294982929838983 8.937952089958408
Pt 5.987729301806529 5.258322441839411 7.212368223224679
Pt 9.375886595972082 4.634978274690449 8.031811610302608
Pt 10.038354117441568 6.428414351534573 9.90573558174459
Pt 3.8979745709948648 4.421776520765315 5.133211982599358
Pt 7.438521352252098 6.925574552810359 9.922075278687615
Pt 6.233511861582358 3.8281344929682652 4.091540502642987
Pt 2.941679468820108 7.405109197348165 7.282391853035834
Pt 6.694886692295696 9.33077122928064 9.052977059019483
Pt 8.182616388834877 3.356912148753349 6.001539689579963
Pt 2.6473545507462366 6.764197063847694 4.598313281548019
Pt 7.360271854529103 5.976989723185243 5.168558034217551
Pt 4.578146126232453 5.771082074545707 3.0262982978632
Pt 5.089009499324233 7.125682120413943 5.700682412127795
Pt 8.866418783975949 4.03450453919708 3.4763904570133444
Pt 9.884532847918129 5.320706591929378 5.544441611613662
Pt 4.66910974688628 9.419758743387812 7.372062040820635
Pt 2.917964102427069 9.314896985828666 5.399973380028412
Pt 7.288149217070715 7.643366196127231 7.104200047588073
Pt 9.973327094522293 7.139204758487282 7.405429014761558
Pt 9.321821639557482 8.82509145704522 9.380770299728711
Pt 7.007732201350304 5.333212430254292 2.0922611573180547
Pt 8.556802492529108 11.155685747164894 8.587270513077845
Pt 3.8471303029618564 8.386124714307185 3.0327657368967427
Pt 6.394373944092571 7.727291068006514 2.9783663744891222
Pt 8.88110049287579 6.766054240750932 3.2207957083205274
Pt 6.99165176638697 10.483105733913083 6.567977027419936
Pt 5.501735572403271 9.558199624651726 4.684336693805901
Pt 10.422495460100015 7.901279852323095 5.005295341819607
Pt 9.61188184233293 9.68739861865068 6.733051272413071
Pt 8.032878735660598 8.872678888386 4.705715474348216
