34
Energy = -167.44474997 eV
Pt 5.05953009206775 6.88311851553 4.103391394073141
Pt 3.0069847803906438 5.251786058794375 4.3001478616177256
Pt 2.838884980228855 7.7443611956485325 5.207611149190573
Pt 7.006919858831343 8.522913045568494 3.6931421524822956
Pt 9.576202396523785 7.563055462667894 3.493002596018957
Pt 6.039065372080983 7.8701696525965295 6.437068312670501
Pt 5.512087776793717 4.3186730064220376 4.68015422868251
Pt 9.096610309415926 10.125116426880837 3.7926076886412634
Pt 2.974100798090452 5.749702039142739 6.953374767860962
Pt 7.465958754147026 5.796371667361925 3.793124285299939
Pt 3.446153631821544 3.2819081259966953 5.930166341159202
Pt 5.585939253732278 5.413967535321624 7.01437403197523
Pt 7.20919243557563 10.398331692664305 5.625810527712502
Pt 4.769658650593222 9.494517075734057 4.885073360863644
Pt 3.7736900842467644 8.196747478072254 7.657011918043736
Pt 11.069355326814593 7.188480985536572 5.949164813383698
Pt 8.469371356661808 7.309328743106686 5.74146169408918
Pt 3.5126155346534023 3.6331848650736744 8.509849601995898
Pt 9.947755968545309 5.142196104830832 4.598315735053513
Pt 4.3942565330130146 6.117458052225933 9.206205970164595
Pt 9.759575891201623 9.489475650457155 6.235893823383772
Pt 5.810543855244983 2.8889063850142116 7.30408846896221
Pt 5.371499509121019 10.34545024247144 7.492744613160874
Pt 7.803907553838672 4.155776258110542 5.920893168630783
Pt 7.864141692760867 9.61005411567073 8.072451544266093
Pt 7.61643740343553 6.643351411623888 8.083170563638683
Pt 5.812149633821734 8.386373788290634 9.303877571958989
Pt 5.702589690114453 3.916940330343233 9.874022223786326
Pt 9.8764717596243 5.203555955398005 7.269108627420729
Pt 7.926530287974801 3.9293406429870172 8.541359352886307
Pt 9.97612316388073 7.903234674660003 8.32843889282764
Pt 8.312948666429612 8.299565997637806 10.34280009427612
Pt 6.746303933520684 6.187168174995236 10.543414306536018
Pt 9.357394083867186 5.757900574845527 9.859410520388789
