35
Energy = -172.64796382 eV
Pt 6.537888866779464 6.524326043052487 5.179571276205907
Pt 3.5261922438604074 7.229912895239932 8.05358149412194
Pt 6.404711638739618 6.596026979050882 10.388831366467114
Pt 9.01219059168449 4.100614554949793 7.6863160079610156
Pt 6.635365572944092 3.3703795836459425 6.8134627521876325
Pt 3.9921113745500474 3.653929805206731 6.243213010407856
Pt 4.299664247484742 5.213578733944889 9.685485512391697
Pt 7.194221375800992 7.889360737316269 2.910416877866603
Pt 5.113885764164343 8.800612120782358 4.314424870644597
Pt 8.312380627527089 9.274812964114494 5.839279716653764
Pt 9.163722805961145 7.230047983855959 4.468654092641233
Pt 7.440434818351086 5.312716873487789 2.734398603603498
Pt 5.003188231214456 6.39626677848661 3.0189675415764987
Pt 3.6327736324252244 6.932769564295332 5.395940651959053
Pt 6.088682368656271 8.248240542162598 7.1472213896190215
Pt 7.878436297058093 6.404829903564197 7.383628990059182
Pt 8.264316939513181 4.207217729417194 5.043591878756654
Pt 5.745609355555332 4.013617864968504 4.319231053781504
Pt 5.374109286134535 5.610413028106368 7.28398317219314
Pt 8.860139309107725 5.917413360312519 9.695285058804266
Pt 8.438017383359716 9.014452497101587 8.40979071680196
Pt 10.572524869720432 5.300991215095498 5.745224631777006
Pt 10.075757823206528 7.648967711362419 6.93816498808289
Pt 3.763400781292558 9.284655705354712 6.584761135188735
Pt 6.027910280733831 10.706211692972818 5.959773566777085
Pt 6.079326764320977 9.150702204827459 9.595666208709362
Pt 4.019971212570613 7.638935875319505 10.538006125192176
Pt 8.266650812885914 8.263693200604152 10.848469988225748
Pt 6.880772788765857 4.185589022750226 9.309280076937391
Pt 4.922085272339771 10.940501139082688 8.241242104127682
Pt 4.630392569719332 2.908436218709511 8.603169761022583
Pt 11.103093977261157 5.615596228233414 8.260092931178649
Pt 7.221089617719364 10.320145357639849 3.7314141994604064
Pt 3.2253057911359604 4.709507714084449 4.066724597712253
Pt 9.976709351689392 5.067560814887797 3.2457682948912705
