31
Energy = -147.71446317 eV
Pt 5.734608164569397 2.588955043772006 10.670750599525208
Pt 4.538855015227594 4.799743851261871 10.872471723683967
Pt 7.526293950957102 3.4878335064571853 9.164496555787938
Pt 6.395250203951472 5.80773606642021 9.427021732575103
Pt 9.629997791422554 3.892507151505838 7.861300417423891
Pt 7.18816355198917 8.275742715655753 8.770167357429735
Pt 2.952053987509808 6.646586754578685 10.259934726540223
Pt 4.78491949409504 3.800705560157872 8.510550615648302
Pt 8.247811878739489 6.20175441481233 7.689449324861874
Pt 6.6965353431555386 3.23417998954902 6.726623633762073
Pt 8.925473655881655 2.4713845255340314 5.780900631999064
Pt 8.998340264242872 8.452679909190422 6.819251742148366
Pt 4.695143701910712 7.611674571243632 8.707957502492667
Pt 3.044469111589008 5.593646802800774 7.9136701146361705
Pt 9.124472938685386 4.934867074365793 5.558125168288923
Pt 4.655970690836562 4.703385714404804 6.112002833247479
Pt 5.537182586537837 9.559037684200485 7.22988044179063
Pt 6.705459967062307 6.3450526447275495 5.453086535822837
Pt 3.956515601174226 7.310573194771273 6.199014569822365
Pt 6.279753725397286 3.9240700532602295 4.20992972417372
Pt 8.867045264681684 7.204169932320099 4.291604488432085
Pt 8.091679843305174 2.3351069814186904 3.3959018745323513
Pt 7.031168040433197 8.90556896192163 5.27418736108063
Pt 8.449040549643327 4.915052876686031 3.1410927878233807
Pt 4.76677741058564 5.951678679864725 3.801624581166108
Pt 4.532477145702006 9.428053590577019 4.7677534687639
Pt 10.00209255805357 9.472848715578964 4.714297816873386
Pt 2.962563783079214 7.711598768262128 3.8245683534386954
Pt 5.872909145986859 11.428113614326053 5.486901568897364
Pt 7.038451024078397 13.30741493234831 4.385827048326562
Pt 8.251561505669539 11.181313614180226 4.462692595158795
