38
Energy = -188.48557447 eV
Pt 3.873864470902424 9.914802630890465 4.169847810875618
Pt 5.215388459236748 8.198921477851641 10.719926544042853
Pt 5.532488891746805 9.403259354836408 8.386422671782993
Pt 3.5863794807752285 8.28110866789924 2.152242890284959
Pt 3.0866746795667055 8.511393491170915 9.095751016406485
Pt 5.983169416604958 9.823034831027561 5.78121243530547
Pt 3.483100835205894 9.318757289761026 6.6688919562406594
Pt 5.964242363350999 8.439583584309027 3.343591867768722
Pt 3.1771651352361885 7.414981309257694 4.638704124991412
Pt 7.651209320973497 9.066595951720771 9.975912185844493
Pt 7.976111854026317 9.428461092053892 7.356339013305315
Pt 7.21949662375246 6.4753617854087935 10.46853085619655
Pt 3.706646302885139 6.010932768979865 9.691397530342833
Pt 8.093113685722999 8.415703837799107 4.891415200115983
Pt 5.785107879418184 6.838710179508288 8.34857196977686
Pt 4.75294318376069 6.05783153758274 2.8768721612654726
Pt 5.54146933288936 7.266305616943717 5.7529538683586505
Pt 3.1957793667896217 6.660769817300157 7.160915332969175
Pt 10.046794875022767 9.480070408894498 8.931859300732011
Pt 7.873769686310701 6.655791169581493 6.908087861955489
Pt 3.9393892031241866 4.987975369443955 5.20453122629238
Pt 7.438209655016345 6.264804940340925 3.2582088248299828
Pt 11.816936548534493 7.5837673267653125 8.434766929852046
Pt 5.840087371432126 4.506385393418506 9.418266576127593
Pt 9.45956238451101 6.998417647996231 9.35285557462361
Pt 10.220971685624354 8.18657280834085 6.478799055479396
Pt 6.673177273147621 4.941709612898444 5.371043493753864
Pt 3.9484756248228354 4.082803958139181 7.653426606736678
Pt 6.106601043359744 3.9226197158175347 2.964959448314097
Pt 8.359523414874628 4.717563803092714 8.617090986913306
Pt 9.583004169925074 6.176656817131352 4.849956921025793
Pt 4.621499245601344 2.550848020158718 5.572165741685404
Pt 6.530747586771917 3.2249702411118455 7.308469832618654
Pt 10.52356462532569 5.563956772173516 7.279014599026203
Pt 8.810386264481831 4.008244508089705 3.5417280511056024
Pt 8.953057695165615 3.7600737264531165 6.2100051192038235
Pt 5.219436067784204 1.5806525439370769 3.298256989280897
Pt 7.218968864639229 2.288114560233648 4.875521992889523
