36
Energy = -174.93458115 eV
Pt 5.43369661505887 3.5247714247417936 3.7311903308070726
Pt 5.406900949541045 4.253172092400023 8.886044308472071
Pt 10.852939332921515 9.899828506074648 4.896581336251113
Pt 10.417407470170122 9.260374153124355 9.215035642686404
Pt 2.7096189574872387 8.57640699520918 8.113898471082686
Pt 5.704511530302091 6.019211347744653 4.290499082570714
Pt 6.842120914463343 9.577438489315632 6.606380012905413
Pt 3.2512105062943637 4.092107482610867 7.613229544231921
Pt 6.355133433137521 4.715530796079364 11.155292551508591
Pt 7.868589708862419 4.598119906815796 5.147575499915811
Pt 9.390219458008131 6.95825216930244 9.430710694828106
Pt 9.915359582514297 6.044925833624013 6.896643347249838
Pt 3.4265760975850275 2.961577605563636 5.1654831850764005
Pt 3.768039357621209 7.427391399525282 3.2769700263299115
Pt 3.466500481913669 9.874299229540721 3.9560452450150554
Pt 7.866621277837278 9.066560196121523 8.999941496885357
Pt 7.465511863679008 5.384483596137575 7.670093083800997
Pt 4.350436585430414 9.48667419461329 6.345160143766285
Pt 7.806800135738306 2.960833158481571 3.3012805087744423
Pt 3.208733810903743 5.504294411346181 4.957995151410429
Pt 8.543748662524543 4.587754463245265 9.917111937354816
Pt 6.606465221617783 6.851538083512906 9.730023906099941
Pt 7.636404885838969 7.144081512141436 5.777553192377052
Pt 10.840007131678359 4.886828037189566 8.943229236536851
Pt 8.389341930420686 9.335423775496908 4.457089860871808
Pt 5.591020537722639 4.098653056774764 6.325807068126232
Pt 5.883756473964135 8.672235615643471 4.29997348905866
Pt 2.4332812729046354 7.9890600549078945 5.471638373508051
Pt 1.2348823249982592 4.116185076118281 5.99036216059353
Pt 10.2779072230061 4.919938280734093 4.582216549279028
Pt 4.120909623853659 6.4675731373519465 8.704233637703222
Pt 1.8474960118636958 6.308078410102236 7.297976974093559
Pt 5.323302083039784 8.78698858345179 8.612713069699973
Pt 9.464115274428 9.160248813353155 6.899713273656531
Pt 10.320708688335479 7.424991063482964 4.7828727922624035
Pt 10.186980918006004 3.27142538179361 2.758691148882555
