37
Energy = -183.92001833 eV
Pt 8.871739539371514 8.656023505195249 1.6125970242950567
Pt 9.811034256893247 7.880067675255684 3.8963902189516726
Pt 9.642264860848101 5.35450546616362 4.673949540654334
Pt 8.340348074057438 6.313691997878137 2.3927222750941812
Pt 8.438167432850214 3.7719827412337716 2.961186046960165
Pt 9.553863884968997 4.803390584637945 7.295677711609834
Pt 9.7895813622342 7.356351377137704 6.426312823835026
Pt 8.362847131570028 3.1633251876753277 5.5005830349738085
Pt 9.87008102317706 6.9167965989486015 8.985597049037215
Pt 8.012781401851624 2.7853368877144313 8.06650130492768
Pt 7.133888092924403 9.796361390309333 3.0749477440626123
Pt 6.443188208764289 4.815911680115618 1.5410715565682949
Pt 8.02581549342535 9.091037664103181 5.377377552598436
Pt 6.580828381367228 7.392723254470365 3.9665269338215206
Pt 8.221797535883525 4.956938916533153 9.560108265968026
Pt 6.226284969469303 4.2220156847033135 4.211161694096962
Pt 7.496253332800442 5.920987942751042 6.110466841601989
Pt 7.9711461843662805 8.489505078659205 7.977306208365795
Pt 7.706765125091677 7.365346913735124 10.462071527807288
Pt 6.553986596431695 5.177253764238088 11.590613908450848
Pt 5.945039228730155 3.732912779526662 6.7712460782701935
Pt 5.983236547070723 3.5872838066879904 9.445137544685267
Pt 6.2792865007335505 6.407056192923018 8.309514704661328
Pt 6.159217468718877 9.42731102015312 9.579731333946295
Pt 5.880842117823163 9.685964779318828 6.9072494669943705
Pt 4.997844315725416 9.54222674047228 4.397108093082016
Pt 4.668330333482211 5.955913377444892 3.0129869342499402
Pt 5.146853269405423 7.311700282030887 6.203067631063224
Pt 4.09963529641328 5.086174199654796 5.505459854376225
Pt 4.03260736413248 4.918232498087634 8.11513071402774
Pt 4.109461415096019 4.827802239609887 10.74073769845829
Pt 5.0624348391718685 7.223815507746211 10.518505032960777
Pt 4.007317776367839 8.45169039539124 8.479394966742873
Pt 3.215420794430082 7.535911265890748 4.4299063912783865
Pt 3.141435256565426 9.488511523574177 6.242046213655258
Pt 2.5140788878265337 6.8763497972158065 6.935370812303639
Pt 2.523124663716583 6.530418246569316 9.543066229319196
