31
Energy = -146.52789105 eV
Pt 3.5197125250661117 5.833895391013266 8.075165722164677
Pt 7.214734029566671 7.037660959459235 10.191773341247899
Pt 5.625033957506638 3.938672505306419 3.956830853721747
Pt 4.114244170314087 7.801287691420147 6.102414407658317
Pt 9.30653366585125 8.484203356910811 5.923768013599869
Pt 7.774589751497646 4.398991766713243 7.2640838727056884
Pt 5.174128741874791 5.594195478889797 10.13520515842315
Pt 9.651010563986265 10.940356291154343 6.067038868571909
Pt 6.6386517719927784 8.615056108582413 6.031917895690084
Pt 5.348882749242205 3.896304899107531 8.254749706003082
Pt 8.467995408319045 6.042028541730821 5.426385029185884
Pt 8.529242592207371 6.850670703199438 7.8974952890931815
Pt 5.864286226550297 7.129983491118459 8.051633671046933
Pt 10.131224667497294 6.136826193083795 3.391433595435642
Pt 7.783400033786342 4.89829838547653 3.220241776525422
Pt 8.632844496656913 8.04374000677693 11.988992270699368
Pt 6.144100154483646 2.622397760726839 6.114968120407173
Pt 10.106198522207604 8.70450045464692 3.5796931494107125
Pt 3.9101030442975855 5.910395931385366 3.9466620538812514
Pt 10.688646867315764 11.062297701979942 3.8347011743486163
Pt 7.898365247430113 7.448299256619237 3.2173499313749705
Pt 3.2305048533303284 3.8955146965018623 9.71002982159424
Pt 2.0314462526841384 5.959170741531676 5.915366174718177
Pt 8.083236061630746 9.924894786139525 7.741717698144661
Pt 2.057816562523198 4.176145886912163 4.133080253112837
Pt 2.0076649062663696 7.8763618454353 7.5479843141188745
Pt 5.897294053078549 5.660492083866439 5.888578894741817
Pt 3.786979251738602 3.861655865456374 6.014735419391748
Pt 9.0790283192093 8.746671731797475 9.666034175149885
Pt 7.270459544679039 2.13194371339357 8.333745318774248
Pt 5.497013813301477 7.842458579755829 3.8415968351496326
