34
Energy = -166.72512991 eV
Pt 7.799204403708587 3.4733355885085886 6.391901201590612
Pt 9.70931086133202 5.108208281588116 7.241509370420465
Pt 9.45407915852744 4.485171890529805 4.598330069474187
Pt 7.662078851303537 6.168887736664463 5.425809221309951
Pt 9.637261772246475 8.20074198612507 6.092057057428917
Pt 5.987970980471206 2.6939777229791066 8.157578319316407
Pt 5.130071793032575 3.366705950687885 5.676290908338731
Pt 9.448878946019423 7.040074321614059 3.703623012289134
Pt 7.760026896748654 4.4218068764361735 8.925289494258687
Pt 11.276596868127683 7.132424881905432 7.923979433978668
Pt 7.655874706528745 7.04560737773715 7.946200032184589
Pt 9.388856882966659 8.79748015660281 8.706084417755715
Pt 9.470879562903168 6.264118483583772 9.67493055979474
Pt 6.93424167789956 4.068535302440743 3.855468138157217
Pt 11.296327844397757 6.196987698844834 5.403347203691579
Pt 6.921215519167859 6.764301484867438 2.891428800794129
Pt 4.965215787142847 5.791852692470319 4.297113738956687
Pt 5.936950446845136 7.9561650107275605 6.229317042959428
Pt 5.721283958902566 5.478985133786901 7.058940915230154
Pt 2.78656872958601 8.588199193870597 7.801324505978454
Pt 7.781476374969334 8.957817464727869 4.340105580619846
Pt 5.051493316398894 8.464760137977171 3.8346508971064845
Pt 7.777384102878342 9.893998982276427 6.9284252228210335
Pt 5.9654954999798875 10.658132482511151 5.13167875791633
Pt 3.519333731518601 9.868746464951045 5.557625800004412
Pt 4.934617172520665 7.564929480443065 9.023139753836386
Pt 3.24066245518426 7.295607554906646 5.568195817909609
Pt 3.1172130575727732 6.019850440620834 7.9270699035038
Pt 2.83747941259149 4.766582072336938 5.567858617229934
Pt 5.075334743901764 4.87326861304145 9.513563195952722
Pt 3.540634538544131 3.455008777648696 7.768913403238938
Pt 6.898411500378213 9.26566098128771 9.458536197608725
Pt 6.913487727880763 6.606419582244924 10.449056497785252
Pt 5.102733723061924 9.96430241310052 7.629309958757944
