36
Energy = -178.4943685 eV
Pt 3.9816394340242147 1.4858073962486247 7.743596251773754
Pt 3.403732552515012 3.8910039999530173 6.8557254398809455
Pt 3.6576221666808486 3.5064449047738697 9.406339247438142
Pt 5.408802823287673 2.4305985756886432 5.778083050885779
Pt 6.130691831485288 2.8392346417247167 8.435908545411602
Pt 4.369541902472541 4.557781934684276 4.48576708395752
Pt 3.2882202163257395 6.387650137241193 6.064640213548133
Pt 3.175278814591841 6.007072707030913 8.720090837580178
Pt 6.825540492295685 3.4282232557760777 3.918906222085759
Pt 5.5966922256931815 5.334887145792999 6.878115975591475
Pt 5.60744302992075 5.246616594303805 9.501626131938583
Pt 7.666445065429775 3.720105222966905 6.463880607549937
Pt 5.880443688899993 5.460821119626858 2.3709480403107133
Pt 8.295890514744157 4.543979950881543 2.0409824488277923
Pt 4.2540717926407545 7.063442600737972 3.7171804021381236
Pt 2.967551655441682 8.43318147623393 7.781188200854506
Pt 8.098033930437355 4.461300477748324 8.977421441368941
Pt 3.4674471467804695 8.962698423659717 5.351356376693761
Pt 8.884558890061589 5.118628264245374 4.5233219790536845
Pt 6.603695982528085 6.3555930402617005 4.6849889688747925
Pt 4.743772034483184 9.911134372888322 3.3981903199094723
Pt 10.005765751815568 6.225956793963461 9.472466407237608
Pt 8.281087188480608 7.118660186516335 2.717137294479629
Pt 7.51356093514592 6.96785158303828 9.728069262689896
Pt 5.173113198679273 7.815215223954176 8.971379965364834
Pt 5.965291974586867 8.089856132823709 2.000855737510774
Pt 9.325283514727051 5.757981214620276 6.959770732167199
Pt 7.217215375031156 7.3016919190019625 7.036487999074948
Pt 5.559800798665616 9.33663199922294 6.726286020314446
Pt 9.255523662024208 7.7375905928958835 5.100100463904574
Pt 6.9974842926697125 9.016157701439248 4.292254888753167
Pt 9.434051049310126 8.738636723619718 10.122129330158238
Pt 7.125049702070897 9.51142937848116 8.88324976482067
Pt 9.868290846415723 8.242543484517297 7.639833496022124
Pt 8.190066931720008 9.869739036447218 6.381132789728262
Pt 9.395441775473968 10.759023614398936 8.502418019736446
