31
Energy = -151.73195738 eV
Pt 5.798119424646421 7.257575256004148 2.364169434869987
Pt 4.727754436050576 4.882219466451818 2.8300842652381983
Pt 7.402741399197924 5.2156609808769225 2.3390729920777056
Pt 6.676932832924629 4.027912300509421 4.573001381634907
Pt 3.6769609241630565 7.128050017104723 3.8802191036846025
Pt 4.262273894271815 4.9341850609910525 5.4449192487050775
Pt 8.177145435858183 7.6814821414842065 3.478222352119068
Pt 4.096512455322948 7.358290650831869 6.502142398613841
Pt 6.330880739852051 6.566035138489895 4.938666807584606
Pt 10.2618132769787 7.440976280580539 5.007576429673739
Pt 3.651799868252921 9.479648156850532 5.081170794977519
Pt 9.060795903906158 5.219497221924138 4.3031211175148885
Pt 5.839471947291446 3.2747373014947323 6.923574063098051
Pt 4.613958983140155 5.326122297580659 7.9797640565711685
Pt 6.101151972358533 9.075719174989795 4.299777599910557
Pt 3.4333818397583005 9.610751530501236 7.7140434099527955
Pt 5.860928370029156 9.715619552218396 6.784844835771655
Pt 8.17667694781786 8.827832108474633 5.945625168447077
Pt 7.037665707057957 6.318093716039445 7.41774906357374
Pt 8.287895363678262 4.078584534461719 6.617726970031201
Pt 4.502411592690247 7.627700321933979 9.101996306259622
Pt 10.672038807484855 5.175525785419298 6.303715259094204
Pt 4.9335725207561 3.1481128424724005 9.427205515119924
Pt 9.467806229256908 7.164317242201607 7.552428386369079
Pt 7.408892995280837 3.7614052646773444 9.145493780285259
Pt 5.443040061674034 10.047057434263893 9.422052079016263
Pt 5.706191805777683 5.494724451967441 10.34477635048156
Pt 7.539938070080161 8.699825529000988 8.488713353107045
Pt 9.78818383791218 4.668681569146638 8.70319971338548
Pt 8.187021700537858 6.362883767739862 9.790919908737642
Pt 6.415955130197466 7.986693604783116 10.794900078459603
