36
Energy = -178.27002764 eV
Pt 11.08596237673419 5.9678982956712225 3.624682670038328
Pt 9.890505210918898 4.549772818956281 5.472352218244819
Pt 8.734321340924454 3.1970137589105896 7.252821041825895
Pt 7.494637744514357 1.816940871438267 9.107225960897072
Pt 8.513292436765441 5.50830023946174 3.250245185156113
Pt 7.332274138167445 3.8409947825340978 5.029510157527674
Pt 6.038397336907515 2.6091745772840658 7.0686605108361755
Pt 5.920333800171944 5.2540792799765565 3.2098582066927306
Pt 4.644275906454598 3.7442459631615703 5.192767680766693
Pt 3.2723926054911785 5.016413054906301 3.3126283669085677
Pt 10.236754717192492 7.284255981873978 5.741247738287932
Pt 7.7544353546423 4.40142147012069 9.557128311504062
Pt 9.231644106593917 5.805537417442044 7.763685112682725
Pt 9.527731311248733 8.033974875590825 3.2172402743207704
Pt 6.8773522621811605 7.803420002977585 3.228200665064024
Pt 5.3193933139389245 3.1701315379024977 9.64314739120712
Pt 7.727975686881478 6.628764310523272 5.4692702892600185
Pt 6.472046556037719 5.1558317506759686 7.417867006572758
Pt 9.053103334737223 8.502929994313858 7.705854407538776
Pt 5.152067910116722 6.341667099323811 5.530910706408659
Pt 8.24833162928987 9.238704032983556 5.209319748775861
Pt 3.9379649472382336 4.3948105385032825 7.746472647157231
Pt 7.763741883303904 6.99951624837875 9.686952484314942
Pt 4.289741282519338 7.544232059142645 3.386163051088029
Pt 6.503346739404774 7.748521275946589 7.458405944306174
Pt 5.309729394475309 5.823432472363317 9.729553749542431
Pt 2.659579515970538 5.6683380756959565 5.881063511319151
Pt 5.553869548798294 9.141802272003602 5.169184289052722
Pt 1.7391818930089216 7.071775329713481 3.851580953172975
Pt 3.757990175021498 7.084711131701797 7.916419295207072
Pt 7.754205357639213 9.651219207133941 9.70701076342432
Pt 6.939092005377425 10.310993633092917 7.185261346999341
Pt 3.010805600339273 8.416539651859496 5.694902498288585
Pt 5.316500242044109 8.427374719265723 9.677302121182182
Pt 4.2488873893611645 9.704891191366901 7.469022194188796
Pt 5.565208192881801 11.026924521482906 9.3161592996747
