31
Energy = -151.32074847 eV
Pt 7.729303456555076 4.149050944614771 5.264788965258846
Pt 8.459914084221486 2.831437983043077 9.39206563016003
Pt 5.509872474353329 5.872968472641314 5.282077162371528
Pt 9.083513595858985 6.401416391371348 5.634087236140689
Pt 9.017583613876488 4.541424421293305 7.4612864086155035
Pt 5.269571455980124 3.1811394334285694 5.453350978042832
Pt 6.287442937877572 3.8005959907405398 3.0563771890649236
Pt 5.328989950284775 6.094790642750626 2.1074516157957075
Pt 6.697953533597118 4.9277512687405824 9.144254500247486
Pt 3.38683476517468 7.0956240323956825 3.7408063997750927
Pt 5.759793344637826 8.198123084303894 3.721548183319753
Pt 2.7315075067962007 3.7218780958368387 5.882896241369687
Pt 3.8048803268928473 4.541576431427116 3.635357020639522
Pt 2.950629891131082 6.235714611728045 6.297731889195269
Pt 7.353963277700772 7.824525559056608 1.6955250335506002
Pt 4.268168286214129 8.500998759695301 5.789854262961742
Pt 2.9705797646003016 8.081769522032266 8.048705912747334
Pt 6.802681794201171 9.119903583426986 5.964270040171545
Pt 8.42233754631554 8.438288417601154 3.99826647175656
Pt 7.738790839340674 5.939960463102424 3.406323952164689
Pt 5.187648852578557 9.51085407421995 7.984023383383281
Pt 7.0195974141265625 6.7743322665415375 7.154311258803178
Pt 6.722049978421617 2.9390325560984394 7.489031260713528
Pt 5.121235500643062 6.999474334455954 8.943899695402372
Pt 4.578135595854148 4.735504865614099 7.621815913317086
Pt 9.373055448111565 8.985026758493957 6.362930245879525
Pt 7.828718691324602 9.37746513593412 8.44040078741026
Pt 7.576103596128166 7.25188880289373 10.134692101410359
Pt 6.018977936670367 9.226354899823715 10.374040530771238
Pt 9.497148282805396 7.1520422053470005 8.195309544598667
Pt 9.17768756235289 5.2637132964513595 9.975250684951128
