33
Energy = -155.88574389 eV
Pt 8.115163707184855 10.411733280434579 9.022640732265083
Pt 8.507760205864518 9.442906226381805 6.609773106808318
Pt 8.323883374146556 4.434121586144987 5.884483231822168
Pt 6.928092575545433 1.4567885952346722 5.866695297472686
Pt 5.737367100538809 4.501744076005636 8.571673718145782
Pt 2.506620189894229 6.725496804604875 5.153516639752698
Pt 5.238367291926649 7.873424962793935 11.349506681577672
Pt 2.400196192987382 7.382566042552991 7.654112487710895
Pt 4.17921155143978 8.038152572102483 13.425011897692151
Pt 8.211874499931518 2.685599149005994 4.086372932697505
Pt 4.215966712086028 5.637056917677385 6.85776614412967
Pt 8.578666879957959 5.303382656463078 8.329694683634873
Pt 6.184262544002103 10.599833566894885 7.3388068766031695
Pt 4.292066961619023 4.966825568739254 4.271553715877681
Pt 4.252216458442255 10.621417945938475 5.641989189024837
Pt 9.168015706480832 5.915554740448762 3.936757958955858
Pt 4.623931459781471 8.255956625953482 6.722072668328171
Pt 3.243718590644575 6.651191860693464 2.7083175453060027
Pt 5.690538594949192 3.7383687301504147 6.075987619276074
Pt 6.130630805622886 8.696922951203433 9.09642796614877
Pt 7.582700695528661 2.788825373665545 7.931367296912423
Pt 4.44552838514766 6.729747645591187 9.190022206054168
Pt 4.093514655499473 8.54226475523453 4.132677119718837
Pt 9.069552766529098 6.843856057466644 6.3601076501912095
Pt 9.9141001624032 7.879332319255716 2.250694627301468
Pt 6.383818360065673 9.292044112140744 4.979480465687905
Pt 9.873213128141378 3.7965579919776338 2.685109844218865
Pt 5.762116351093158 3.0613599933307 3.618758491267072
Pt 6.921378215454748 6.391068195139402 10.141412086331334
Pt 8.644565167421932 7.851375326485657 8.710587090586507
Pt 7.622613558134703 3.8793424934613485 10.284034252651397
Pt 9.085179021417687 5.74678382928258 1.3515665612245178
Pt 8.596328899824272 8.381557817252318 4.28418198433247
