39
Energy = -194.76637992 eV
Pt 2.5869492926122257 3.287842996668522 5.5109677493847675
Pt 2.472554356675136 5.607222804366992 6.820522447043617
Pt 2.6674110572757677 5.469784337124483 4.09297858802878
Pt 4.779742673079235 3.9182484201343337 4.282583174526358
Pt 4.682931534424827 8.348363997144942 9.733978872843277
Pt 4.19113128577263 3.592838220191579 7.501980226578208
Pt 2.8012062588978486 7.937041989482203 7.907046697820561
Pt 4.256694950682793 5.873889487941694 8.810920826548093
Pt 3.5962141414076263 7.544213083698344 5.389239247623041
Pt 5.380680094326503 5.668480479286595 6.1388949909342765
Pt 5.580529618227336 8.928097563081206 4.443016107116972
Pt 4.908820381171201 6.6390561046005985 3.3155878005921244
Pt 6.089637928170977 7.818598623561726 7.531777443805132
Pt 7.035085796585567 2.644172406124405 4.056167642489058
Pt 3.3480334657274167 10.394088186177454 8.889452790310305
Pt 6.576008769347294 3.239599217660878 6.549770411866416
Pt 6.471654583151025 6.511716911839555 10.124776404872005
Pt 6.172864830185039 4.063534604644711 9.102289069807638
Pt 4.413531897717454 9.711019588754315 6.623279113984863
Pt 7.694091709255219 5.7544172516885865 7.66577794452919
Pt 7.16821527532869 9.010411638844962 10.373785778469356
Pt 8.392618460376024 4.767955294789615 10.4550597589579
Pt 7.430285636159153 7.202552307568278 5.429194207500239
Pt 8.924773552276754 2.3342632552168867 5.9085897834935315
Pt 9.867041569950805 4.742945555457033 6.298581739332039
Pt 5.978021848037487 10.597024603307556 8.60749985799789
Pt 6.854607660763784 10.585147266044965 6.090524301364562
Pt 8.673760408298207 3.277501723059762 8.312212633280778
Pt 7.688951416327592 10.297083844482673 3.6268730125127
Pt 7.309227273923608 7.661772222530013 2.8178091865649844
Pt 7.034056854222532 5.1821309598938035 3.567089957373306
Pt 9.02165440291501 7.324724232792081 9.665706655961563
Pt 10.386299811780628 5.278658883540962 8.804801384705192
Pt 8.237584796660578 9.293090571637292 8.001693007086756
Pt 9.300767728545756 4.120545766771416 3.907393375397769
Pt 9.902708768207285 7.293858795207447 7.132226334216524
Pt 9.114182631533785 9.189592555475341 5.53311931374673
Pt 9.678843102876934 8.719488820477052 2.97889643726954
Pt 9.830042151246062 6.6329759158672985 4.485930682077988
