39
Energy = -194.04132826 eV
Pt 11.012730142441104 7.502581694415697 7.852907288811859
Pt 11.239194234717566 5.872646028048754 5.759674027014997
Pt 9.590238455635768 5.288582138090365 7.772290288442919
Pt 10.592878137619612 8.470760397592697 5.430665164052518
Pt 8.126555837036507 3.0677812355313208 7.528191649280283
Pt 8.55985786592528 7.706202346862815 8.802411830502223
Pt 9.239136395641577 4.23280256070632 5.329740453209151
Pt 9.7776230431322 9.836575072631478 7.804888462204853
Pt 6.275262565398083 3.072631610368716 9.414862003384506
Pt 8.355570638477783 7.380876955483652 6.257883499900166
Pt 9.341931164495666 6.6055489232677695 3.9983925578131245
Pt 7.177123388565822 2.688564697298682 4.996947841714727
Pt 5.4578892602818705 2.7462745433829276 6.94419616670386
Pt 3.6882916009979607 2.915672262198533 8.955181328846503
Pt 6.934145277868018 5.1655119759690065 6.58128420388086
Pt 5.919728600707941 7.623435704516753 9.086413806055415
Pt 7.362893962866886 5.4364069795153664 9.200646844488114
Pt 4.714911266589853 5.28239883408539 9.398202781345741
Pt 7.125192681872122 9.806800678978313 7.890553974074319
Pt 4.350586033278741 5.398862896593144 6.7758902895105795
Pt 7.642917735789303 4.705646827601312 3.334568598063552
Pt 5.762991036263005 7.484839889830903 6.42261048891036
Pt 4.607387598289565 3.211197056397566 4.474850396973049
Pt 2.0964583184732217 5.024619255640173 8.6527382185302
Pt 7.297514108537506 8.330964117964388 3.850512743128734
Pt 2.824896526326885 3.375963308239198 6.524241716005793
Pt 3.282939530057997 7.425458645470156 8.571850330924356
Pt 8.392620506364215 9.939871878330392 5.568352161484986
Pt 4.567882181434307 9.677972839382917 8.061688189911557
Pt 5.737225118136619 9.882057223247587 5.493221475839584
Pt 5.42085948273364 5.657031553807261 4.4641851885771695
Pt 6.337566444021256 6.652840699154783 2.1084111456135464
Pt 5.455352606709914 4.0372085769396575 2.0909472869520247
Pt 1.9699162714543563 6.310073997459594 6.433775372681763
Pt 3.360139168381427 8.588603680891982 6.050081798277731
Pt 2.349918263864378 4.708302086472506 4.350085463068216
Pt 4.692083232614288 8.166438153814703 3.7188425021481066
Pt 3.7166698352146015 5.954087540711467 2.5164578945178513
Pt 2.173967675857169 7.358277526318229 4.080651723992972
