36
Energy = -170.69489449 eV
Pt 9.958634491284787 6.282218055540938 3.7573794521961954
Pt 5.531208601276585 6.492849500412412 8.198489206031804
Pt 5.709459494607265 4.811057157791786 10.168366251891722
Pt 3.7210149548640574 9.41144099740975 4.349148356283667
Pt 9.91842665568116 5.717237764943618 6.2464393131976435
Pt 8.452970533428468 8.439341460712006 8.10879465102257
Pt 2.695381077063768 6.953581371411214 4.842755648341948
Pt 7.547246450827526 6.820463851758894 6.300100440969954
Pt 4.026228082404117 3.270268079492931 5.483159165392594
Pt 6.245678124071084 3.352124657792349 4.182367288291761
Pt 0.6132693981002598 6.799979993629304 3.471775574321631
Pt 4.843256020972601 7.829142179729039 6.060109537124056
Pt 7.1448463309008305 3.457671663047714 8.425506130441502
Pt 7.975470433851478 5.816829055959762 9.381606515736378
Pt 10.287805176924657 6.755014640080589 8.616387944173631
Pt 7.017248413348807 9.430627362355331 6.116059049682097
Pt 6.1996983651553395 12.604260205777305 8.989914754587826
Pt 9.963787882666814 8.405233122232712 2.4344727440711535
Pt 5.683363396779274 10.838829969516125 4.43779934849257
Pt 4.827714800165864 5.577449742709038 4.3901507049938235
Pt 8.276416116459325 8.186873141229219 4.24630300933142
Pt 11.983211351969771 5.0608331104037605 7.648031103889135
Pt 4.37068863739342 3.658446717936412 8.31812249683214
Pt 6.749687321329064 10.202027954334406 8.763027309995492
Pt 6.665875533037575 7.994724312757962 9.952622097100308
Pt 2.1130961354046462 3.480133990433716 7.122912962345912
Pt 9.65823356496508 4.097855185935234 8.21409384441061
Pt 6.159795759951576 4.630135210682134 6.4270469022713295
Pt 1.277623048368932 9.018530588673709 4.2825229090235
Pt 8.615658054142989 2.5063636792572987 6.513766076462313
Pt 8.089301317097371 1.6379717182664661 4.180687486688491
Pt 5.733498235581079 11.633089824368856 6.784309106558529
Pt 5.419373361633714 6.753222640215629 11.682803946948692
Pt 7.311734742068195 5.801199331707694 3.882433597766989
Pt 3.4261157645708833 5.669641208511592 6.884521968971703
Pt 9.142997984267229 3.959346165598961 4.492028716774683
