36
Energy = -172.7858573 eV
Pt 5.037360096641063 6.931126592374806 1.4445649542849968
Pt 11.150480459833023 8.565999536093504 2.9730490966780088
Pt 7.937277735770783 5.838501925917765 5.548115172873118
Pt 8.969972956950171 7.615040122863611 3.7430164339957646
Pt 3.920153310603744 4.28239807847366 8.738141417532246
Pt 6.067451939212249 10.173239780944769 4.657151363116782
Pt 7.885594062163201 3.60627489253313 9.090083713764244
Pt 7.053563204637547 8.85376022351194 2.6611142879429206
Pt 2.1505952771940033 6.00990268176036 9.442417953382934
Pt 7.519158695067455 9.492025382789372 6.64008872275152
Pt 3.4913008215833607 1.9148327293553096 9.36173491866635
Pt 4.627406128731751 6.564818748943032 9.7600917880783
Pt 6.839272435589961 10.326168444705885 9.190113441633184
Pt 7.1420374943421665 5.936633108294431 9.579837712508747
Pt 9.445698225374555 7.846339291049245 6.404804372320274
Pt 6.411270731282952 8.27303349677392 10.563548495254476
Pt 8.36675032769121 8.143872347786884 8.72318360831357
Pt 4.064926696091282 8.958593278619643 6.0592497180052804
Pt 4.65912888661675 8.296339908820169 3.5571629167954093
Pt 6.247226929333894 12.650700213305427 8.626946727100195
Pt 7.232263611797011 2.6043362888791726 6.338987321180614
Pt 5.6945254996353425 2.4168450830627997 8.40440507629295
Pt 10.270381216096345 4.760720716542476 5.5994810877925385
Pt 5.430715812261317 6.670806468868808 5.5694056926819835
Pt 9.213131471634254 5.6533408852704135 7.903371022505638
Pt 5.754435559009707 8.059246790620517 7.872059832481437
Pt 3.4724208352938626 6.546866122441033 7.33825051664088
Pt 6.7855843358031835 6.267456059248003 3.2376176826909755
Pt 2.839384988722713 6.864239441424499 4.827965651632596
Pt 4.229778135636371 5.310690244675552 3.2968583693874627
Pt 6.154775268459496 4.959307041378621 7.333557309104891
Pt 8.168825545835317 1.1466819218634179 8.26337215621099
Pt 5.366736004502582 10.966734566493983 7.006654106340254
Pt 11.227699234203545 6.897959812723659 4.794065467837273
Pt 9.67989415804174 2.9965874687084533 7.259015675722492
Pt 6.043504274226713 4.1492626687532255 4.741198582368948
