32
Energy = -155.93648373 eV
Pt 6.06557228494262 7.094247894728792 1.7788981642369306
Pt 5.869558611940517 9.44675092221164 2.9311916815893273
Pt 3.730810477050226 7.717312212815475 2.832786853704536
Pt 8.11586307392607 8.047568015696518 3.3637205310012606
Pt 4.8096857008334455 5.190814520165205 3.177515789886921
Pt 7.5800996440605966 5.22238208781594 2.706626977633023
Pt 6.981046566063774 9.441349899396378 5.310773984089828
Pt 4.268484221220102 9.131241419725804 5.066726024228586
Pt 5.99217977964111 7.072934253351708 4.561491704526354
Pt 9.805038605991966 6.140751855609883 3.8716603132106053
Pt 3.435801586366126 6.493093300107745 5.1466892603158225
Pt 9.063917253625345 7.637129794386986 5.930171545329071
Pt 7.84995342794879 5.387382262400571 5.386131996265597
Pt 3.97965833099046 3.9139956732893593 5.3601332224142375
Pt 6.5217447565607465 3.460707526198463 4.265710435547526
Pt 3.337310137056433 8.065290109816006 7.3072694964880265
Pt 5.445019739126355 9.640799203730657 7.4421513759722515
Pt 8.132447209486504 9.567026181096931 7.595310692014733
Pt 5.694349393634967 1.9012121092964989 6.137767019354922
Pt 5.923271465515293 4.540694453408311 6.93998618991599
Pt 3.3682911995895086 5.444882164314247 7.556072668223616
Pt 9.635378523543814 5.223417497289 7.223695791809245
Pt 8.097402258770868 2.9850608639879255 6.723097902407807
Pt 3.8808109502451544 2.8813108187570684 7.843299982055465
Pt 5.865487577761351 7.1025840020378235 7.159938782558684
Pt 4.580079381550705 6.998091916558232 9.40617527262544
Pt 8.220117013754631 7.057173825875188 8.424179829233255
Pt 6.616634738429871 8.696877725835835 9.624865310739345
Pt 6.302691508052085 2.15480383723233 8.736240287342806
Pt 5.141767261876054 4.436970391456775 9.56511215504748
Pt 7.7116961225291725 4.480850087252884 8.837320700010975
Pt 6.785915004744834 6.223744292539308 10.591857085732572
