31
Energy = -148.7518597 eV
Pt 4.092804559740839 9.377204911261883 6.311935750308925
Pt 5.2975738556905245 4.228265952170106 4.684538602930153
Pt 6.675672538007993 9.547073490970144 6.342933478033277
Pt 6.613506302284523 4.375414500953248 2.4255898030644882
Pt 9.30120287858929 9.269808254335507 6.7251366862383035
Pt 3.5267570690954644 7.721520366459926 8.177357976937337
Pt 8.180597460528576 8.540247062174874 4.489879544185261
Pt 8.735547093733876 5.773135667711029 8.595824839989962
Pt 1.6673517167348686 8.49010154157934 6.576464228087127
Pt 7.922585200100483 6.919562079817001 10.684821940994654
Pt 5.568648114680037 7.052623233130937 9.617241344614321
Pt 9.44595455441878 4.240464516867998 6.664782754124341
Pt 9.141403726226415 6.712477045748044 5.987772027505451
Pt 4.5845241435745265 2.5095378901204537 6.33926392296448
Pt 7.0447255709825924 6.914186618800781 2.7913158895153334
Pt 6.326804698778589 5.062969369160147 8.255672793726358
Pt 3.0927931283912047 7.404052366350295 4.772678385026609
Pt 8.540604195597322 5.535455456316497 1.1640661926619051
Pt 4.554917254471222 6.090044009733152 3.1368204272236504
Pt 7.996249284364173 4.815142868329572 4.574614595211176
Pt 9.507428033230378 6.481711635808381 3.3580359663444987
Pt 5.655185032619239 7.93971845107234 4.6544792886088
Pt 10.91509402497983 4.524605542975887 8.635228476998194
Pt 5.838600495806569 2.441298776901908 8.638423567280046
Pt 4.6101935451684115 6.0843234482739 6.433917950921199
Pt 3.306016147942487 5.862417781119154 9.871683370640582
Pt 5.397651278790264 9.584006334582233 8.61741058545833
Pt 7.741267065377287 8.152696983000983 8.459400940173452
Pt 3.8902994447636416 4.209299993023244 8.07776902294371
Pt 7.081781633038044 3.304572133902782 6.483474350194315
Pt 7.688883978757051 10.778685743813368 8.394089323558449
