32
Energy = -153.19139887 eV
Pt 6.686943844045252 5.710721338109286 7.417248033290062
Pt 7.186939357492931 5.44930635526049 3.730444068495267
Pt 7.065705306553364 9.095047494156413 1.8189525749499245
Pt 3.5894198442818532 6.4570018577672155 7.360847448256719
Pt 9.321748058172833 5.851778533670084 7.160427594145107
Pt 9.703855024053736 4.123547154630691 3.582744128465299
Pt 6.485384073525787 7.27575902205386 10.677335942966721
Pt 2.1415865518116766 4.419560083720999 8.142345429092579
Pt 5.195602970319496 6.012497877547142 5.370928326875806
Pt 8.167750107888386 8.629073496472868 3.958429896418366
Pt 9.447417170510388 3.5730232565219526 8.53355923681001
Pt 4.448644358846049 3.423380136618225 8.13774185979504
Pt 10.260895009842427 3.7418662900027013 6.090356061904773
Pt 7.897247460678661 3.513837503450337 5.2837361905915445
Pt 5.987115300859777 11.366304117560325 7.703036727232526
Pt 7.1045227753096585 9.913195965629376 5.896400320405187
Pt 5.115385976520168 5.466793759773478 9.494041682993261
Pt 5.3479030885157774 3.452516005037615 5.7161364506172045
Pt 9.401467295596452 6.46562109386421 4.5668763318321925
Pt 9.213221976265395 8.301446868388805 6.336876271504356
Pt 3.6995546556416437 6.2956879429003 3.220955152243978
Pt 5.81490547746411 7.705014919365235 3.4901599172526456
Pt 8.490954482950503 10.156844534604362 8.077050087817778
Pt 3.4428746335967793 8.008828708436207 5.172140110533659
Pt 2.7183823610292954 6.183209277654868 9.795046358334213
Pt 8.139288568141856 7.638152322550641 8.667966829894981
Pt 5.583882171263323 8.073128734443575 7.034345312087936
Pt 5.073688530787625 4.12225096244466 3.2281734912375923
Pt 6.157450148438231 9.32528864170005 9.205790322305841
Pt 4.528752894903967 10.155014666505357 5.930400722040611
Pt 7.043288829185703 3.1363674607968375 7.6994305387408595
Pt 7.755790304504752 5.175502227359066 9.71764518986628
