34
Energy = -165.10673009 eV
Pt 9.911737164070319 5.314521306209359 9.846883025425399
Pt 7.8455472370717665 9.855681607316983 3.086731728983891
Pt 4.7985777731248245 2.7445510993909203 8.357438676384433
Pt 10.849671017008687 6.691650175194109 5.21924080866976
Pt 5.524338537773279 6.613169264439146 7.642160352484795
Pt 7.7938864567991715 6.4996750786698705 8.930117026306828
Pt 4.046480872083034 5.236481341151582 3.8768799986222984
Pt 9.442074485896693 7.628757665644652 7.243777144437209
Pt 6.7694947837926485 8.48515704973287 4.9616196195083155
Pt 5.851024680987455 6.869807510780997 3.094963341015687
Pt 2.093824256488687 4.082662260710522 5.1262674024493124
Pt 5.720279428285305 2.806459867560542 10.733644700609323
Pt 6.134093142072261 10.602956470655847 6.227633603483453
Pt 4.4916798770210224 8.964638855676203 7.347652869706088
Pt 4.412845443275831 7.33337049085835 5.31588450862008
Pt 2.53763668117904 7.718461146131342 8.385997438755883
Pt 10.124269067543374 8.76064710867745 3.9442189325320167
Pt 7.844257901586346 11.787159239885668 4.696598700763095
Pt 3.0798595493386225 5.518430956847951 9.538750405772062
Pt 10.952803184069317 5.60856042518278 7.581457479113216
Pt 6.7336363969102155 4.204709539908059 7.392067484861319
Pt 8.457050088092599 6.648707875487392 3.9602604803363484
Pt 8.856418457474462 9.760031737298924 5.958370164019872
Pt 8.779557306373464 5.301436910541358 6.201692442180017
Pt 5.567383158570682 5.206200503788809 9.804840066152988
Pt 6.561105840499556 5.112194418774378 4.964948636486604
Pt 3.017023385714561 3.058708131739526 10.160884466178473
Pt 7.158343146232623 8.716392442612527 7.73499875643665
Pt 3.1048885611230355 5.74049326398956 6.905662410030172
Pt 9.833877200608836 9.32061057843352 1.488021042571317
Pt 7.819980988726911 3.9354683001728485 9.822072251001664
Pt 2.356802774475133 3.3229501227404983 7.618389244392514
Pt 4.573121497563591 3.7339588167748747 5.989656464424123
Pt 7.836769425390671 7.69567820424492 1.7205580945084786
