38
Energy = -189.79336675 eV
Pt 4.846126753681087 3.077086721331367 2.538796294504519
Pt 7.104050176638893 4.3954248414488015 3.097093175618195
Pt 4.769475718514363 5.702349013224139 2.635143432165249
Pt 7.007384749250583 7.139137214475474 3.056946684999821
Pt 9.14771000906567 5.722989188760055 3.8382691692059456
Pt 3.4711421104688025 4.198223035394974 4.504292718893106
Pt 5.7978823700687085 2.664773261636463 4.897567800037176
Pt 4.538741087487495 8.169904810688411 3.1036843863741925
Pt 11.109833817973275 7.203346296428189 4.741892222714486
Pt 8.865831173447496 8.54710480179867 4.399137419109378
Pt 8.256755107215355 3.6297050914925677 5.399240732583549
Pt 5.728599880594325 5.321800855387673 5.140465351477441
Pt 3.4090626013839347 6.126402854116681 6.290908620066261
Pt 6.596084763390434 9.665492085603388 4.057415514967481
Pt 4.064489380767929 10.589913897334888 3.975717213783685
Pt 9.891610585318988 8.15736095540379 6.869372002461463
Pt 10.173544058666165 5.38254169130782 6.319857974790894
Pt 4.237319071286999 3.64493797876665 7.002246089993276
Pt 6.719204315081273 2.364434545627067 7.281328252970472
Pt 5.540625998216621 7.839544316315145 5.626929521145585
Pt 9.090954754240256 3.6706787289459086 7.9184054430475745
Pt 7.835484743111685 6.6668858189323785 5.975595289609939
Pt 5.115102526444009 10.344997421507204 6.35882173860073
Pt 4.278919713941428 5.775881410768282 8.765403105651687
Pt 7.710484940894699 9.736859812709273 6.533040561269638
Pt 6.686516481165334 4.941895162205134 7.580900088363247
Pt 3.0676013929337005 8.55058586085431 5.314494574248223
Pt 9.272441873302844 6.241273121652362 8.687360852199298
Pt 3.883475009702973 8.243896863780611 7.837911159156847
Pt 5.327843416831414 3.3758818668751753 9.378867119210806
Pt 8.653778608961446 8.867230249104459 8.982778934177494
Pt 6.537063452141432 7.470484139847421 8.093939277598052
Pt 7.6747019479599885 4.497993566044956 9.949634210477136
Pt 5.52280142114819 5.43186009495442 11.053726993523487
Pt 7.601795890079267 7.010754719998926 10.627865972841215
Pt 6.094221044382036 10.023080863412059 8.688528356188252
Pt 5.076913584904982 7.947913840559019 10.213160614410763
Pt 7.095095311084044 9.497668815089161 11.046280518885599
