30
Energy = -145.33145561 eV
Pt 5.424578597306718 5.305527987338653 2.0667745028243902
Pt 9.730055220122098 6.615298595781619 1.8908493757511957
Pt 7.771363359448225 5.504248391145211 3.058178304518356
Pt 8.822624268965447 8.713942535425133 2.9323464199730496
Pt 5.927052688553465 4.085764023062535 4.252137179010591
Pt 6.563995492698485 8.851665173042855 3.9156611267355768
Pt 4.616219861347404 7.1758671955971485 3.5457216857840015
Pt 9.999969342746615 5.940280102549491 4.36225436116095
Pt 6.93357294303149 6.632020058246212 5.306688744945794
Pt 4.43696870624799 5.697911125078978 5.620208651295004
Pt 5.965824992247199 3.635693804363884 6.814940267009426
Pt 4.283812275605816 9.318637729055336 4.9584820374269425
Pt 8.188300702993345 4.404415722203977 5.64710963423964
Pt 9.034918513044573 8.170601679863761 5.409736589674087
Pt 4.073409548664897 8.16529726894142 7.182340538175173
Pt 6.536585319636038 9.147175418614822 6.545300681623609
Pt 2.228802475183555 6.304118225030263 6.847992403590482
Pt 8.447677668999134 8.015958565182451 7.923337270414942
Pt 6.1420296160055905 6.513384816601167 7.80988171784059
Pt 3.0346247685666925 6.990508729840571 9.276788531647185
Pt 9.804848238094404 6.033007111881237 6.970036373840403
Pt 3.968862676201777 4.786502898903047 8.097936379119629
Pt 7.065124169022811 9.924334117667183 9.011717926376207
Pt 7.979073326260457 4.625164291458864 8.24858851067318
Pt 9.60360834959861 6.312166823358833 9.572635299146324
Pt 5.022938992233344 8.553758032415537 9.619630609775466
Pt 7.427195245812615 7.647978229408993 10.31647719884733
Pt 5.241342217957495 6.000069795157907 10.270125710395696
Pt 7.617169734997056 5.075103538094635 10.81869952832324
Pt 5.845913871961449 3.5920611982433868 9.445885623415851
