37
Energy = -183.96854502 eV
Pt 5.94080387139054 4.497239833726495 10.873097051034435
Pt 6.034282076957581 3.0391377198072207 8.707515292826086
Pt 7.993485211088811 4.882858161889476 9.094699001753458
Pt 3.7416247322441594 3.659900205665033 9.685548010804949
Pt 8.32640451929109 2.343324993884622 7.879902789830831
Pt 6.55861504966251 6.900293447780453 10.060414492359518
Pt 6.421621237239697 2.8411575803685367 6.052619204991863
Pt 3.9491647163460555 6.29552078760388 9.724299264784216
Pt 4.133309598148754 3.7178367198994704 6.987719824006862
Pt 5.667814223073083 5.737959523695022 7.897059796965036
Pt 8.920380642212535 2.506721255005258 5.3042715828587355
Pt 9.606395633070258 6.780710552683521 8.155986180891386
Pt 7.1887130837770785 5.344162650645052 5.904091031058909
Pt 9.427184405447138 4.531975643500453 6.874007990295735
Pt 7.612907424991036 8.438548391205352 8.34214214287758
Pt 2.113082103895243 4.977664627384464 8.133480868607034
Pt 4.998015840574907 8.63643998140059 8.64102024577521
Pt 7.460576140222036 4.1104639559305785 3.644416625091293
Pt 9.901050521291092 6.678745075115963 5.498243068694457
Pt 10.05167845381226 4.499209892618167 4.099607973866876
Pt 2.5820799039300804 5.2906588084417425 5.553671694159143
Pt 4.842683239972866 4.176625868835363 4.435735464007421
Pt 9.468189039293506 8.996420638165727 6.554714437172738
Pt 4.951975676126064 6.680745132591981 5.50079013767213
Pt 3.1077174197045685 7.270005583035986 7.416130483618966
Pt 4.22937940138038 9.188962439670368 6.087254763570654
Pt 8.600095482022468 6.493762568092852 3.183011547462328
Pt 7.182166417981039 7.921184583056111 5.879937646120122
Pt 9.738757122818923 8.778122574109288 3.897588499817394
Pt 3.3534018711797047 6.087253660090453 3.1730129528243523
Pt 6.445099620303105 10.259220277039699 6.876286892688696
Pt 2.2981344930450844 7.86933414743352 4.902407335634198
Pt 5.998482308675299 6.257501408499509 3.039613651027317
Pt 8.137580337160877 10.632443888327431 4.859369581201092
Pt 4.4698569420724645 8.46731026292802 3.4091481916766933
Pt 5.539073567667445 10.665303279904418 4.3741605321318975
Pt 7.100008819533675 8.651486855171514 3.4099671258298225
