48
Energy = -242.69526165 eV
Pt 5.784172818151882 1.2529854315430557 6.603940221364655
Pt 9.179012204222111 3.2990772247539653 5.374694867152193
Pt 6.815090003763346 2.5180663854610206 4.496336966733267
Pt 8.93397021959713 2.425329630329314 7.885348369438674
Pt 7.975764310637556 4.377683150138427 2.974585347893512
Pt 6.3996474896867115 2.127695682676061 9.17345981368501
Pt 4.032394795297481 2.742374260756099 7.907603693091095
Pt 4.322547483808672 3.0451512783905095 5.211676987874555
Pt 6.763509472350457 3.5893285554170227 7.13763630220193
Pt 9.85602817668205 4.837776960789679 7.545552053178525
Pt 10.067598838713876 5.616961711891016 4.514637915420814
Pt 5.260034020016116 3.78980062761117 2.8247180029263905
Pt 5.199821398687763 4.431465030052677 9.927887490674358
Pt 7.404864984103343 5.2622430934751145 5.27855285508524
Pt 7.910390818288555 4.28742009391023 9.642531615843383
Pt 10.499603674537997 8.177869098404381 4.228249748717199
Pt 8.39483145162239 7.106720837955763 2.9698773664482214
Pt 7.1990968887744335 6.161700382955078 7.813775876373904
Pt 6.6938784337401165 6.630142744264027 10.336923448898025
Pt 3.383595436573429 5.634774685914505 2.4740229975394574
Pt 2.630404035867618 4.639415237389889 9.140442854835293
Pt 2.4159219898818596 4.364051958320724 6.479940089776753
Pt 4.79346791552814 5.2735942176355 7.405044276008414
Pt 5.989456800905481 6.251641225274112 2.369390433947309
Pt 8.706239484360543 7.395196053364529 6.071423426739347
Pt 9.250899081377169 6.552305270566636 9.443882960904375
Pt 5.250300870341543 7.822688160849081 7.187083516865324
Pt 6.423249131415553 7.65994794840724 4.903730110375964
Pt 4.067973335433161 6.825048217536959 9.714855504381694
Pt 4.828494330660931 5.564417842889219 4.8869590599605
Pt 6.4620101650321535 8.860407116484701 2.3324667066892046
Pt 2.4791685166631985 6.798597922729162 7.454149466434847
Pt 11.121042451104275 6.954667476775653 6.716475240478603
Pt 2.446561559857369 6.457418690138844 4.807582976611038
Pt 10.610924871684011 8.573742424438759 8.691555002125947
Pt 4.144353542626503 8.019034206687563 3.4165692718706016
Pt 7.518454564709727 9.017745370322233 7.725265138057937
Pt 5.486363809102222 9.00439560710723 9.774671193107574
Pt 8.24013545605887 9.630036568441213 4.126707353111611
Pt 4.8960161096309 10.470010294820707 7.121192403206213
Pt 9.926667891912661 9.712221041330853 6.23490633387422
Pt 3.136930231928366 9.100977955749446 8.561255955822224
Pt 5.462507368737789 10.018953430254289 4.552599371350064
Pt 8.166423577174031 8.837601066127329 10.18882270778205
Pt 3.2594741576142288 8.829136709149076 5.845585087817432
Pt 9.257676611060464 10.813916861496429 8.477053456285905
Pt 6.668352685181585 11.187361613135675 8.918124588946906
Pt 7.366212834942437 11.043239689155193 6.20260359167967
