41
Energy = -206.03422872 eV
Pt 10.458997601587285 5.058697700600546 7.026520652170358
Pt 9.16495437388037 5.623339198585012 9.232803869635745
Pt 10.75794804937312 7.433064980645116 8.142628208660854
Pt 9.623834378786404 7.966675959493642 10.418030358214565
Pt 7.339038167177631 6.773403584594682 10.916668910338736
Pt 9.877460175905622 2.7733560411934013 5.805866113153884
Pt 8.306609805681546 3.765069026752632 7.626402121519505
Pt 6.7610690546477255 4.5400018613402775 9.541675293490464
Pt 11.792286992927329 7.0470174742679195 5.76206719929921
Pt 11.466017426873735 4.671784949702863 4.675847370955814
Pt 7.237238707854488 2.689365206090725 5.408864202260481
Pt 7.440175575953294 9.472130940169572 10.684455726940294
Pt 4.899890793033176 5.821869667231532 10.874602679572803
Pt 9.451965667169924 8.183368459543761 6.020618799358207
Pt 5.949055524947283 2.6098110908052483 7.779790154205215
Pt 7.274805985515107 7.032015163687517 8.095950241145664
Pt 8.639418023522968 9.214954889255852 8.30608008835747
Pt 4.113231242934102 3.9628920425252327 9.12482566400893
Pt 8.86255899530531 4.407880999242543 4.156152468054362
Pt 5.3551806604704835 8.153077608280732 9.786811466836244
Pt 3.6408275942918844 6.526162559617879 8.707155403023064
Pt 10.023280136894176 6.751628802745834 3.823123545033226
Pt 7.463209129926601 6.279295635827532 5.599530451638573
Pt 5.655004131840513 5.2128030303956105 7.152123791551062
Pt 4.681511615962108 3.31463206955385 5.584929502898207
Pt 6.156303906133431 10.21051441166845 8.445230246884789
Pt 2.7408262480813526 4.615567010369004 6.942393432387795
Pt 6.224884811233453 4.654283966402473 3.889392086666067
Pt 3.760275176765129 9.062342819615568 7.962576143351241
Pt 7.890805722123137 6.146990689749519 2.449692173194867
Pt 7.299870614702862 9.69715535628388 6.07561810575382
Pt 5.488284629230206 7.8126663351015315 6.384660847723358
Pt 2.3493029196026254 7.203620955181656 6.572879462048723
Pt 7.975242283816597 8.407605751695986 3.8783898782795054
Pt 5.633753354013507 7.172174027485743 3.328196422967629
Pt 4.042841655583493 5.823476895174568 4.990310163981195
Pt 4.867005099227049 10.777136531077865 6.2519944357083865
Pt 2.210894132789613 9.792700212659039 6.027406278593244
Pt 5.786701058798949 9.773169630087528 3.845670302539121
Pt 3.6148779478310242 8.326192861126078 4.428061576297876
Pt 3.4844474536175993 10.978543521477329 4.059100800481478
