43
Energy = -215.23803355 eV
Pt 7.859709583775909 1.448585388628678 4.052337042524739
Pt 9.650524255944605 3.1974274055572884 4.65958664053294
Pt 9.261910197521944 5.778897278779819 4.001384440290683
Pt 11.120875539637506 5.023926995272928 5.691771589976342
Pt 7.104959965223317 6.411053136662699 2.724751175921099
Pt 7.322843457675737 3.928052442495165 3.534597620289258
Pt 6.747699185478879 1.3386430393935114 6.330424106150068
Pt 7.641036598547914 3.7312751831046125 6.184664477101793
Pt 10.23944856890381 7.5722229416880555 5.73841472840401
Pt 8.268473808367181 3.9137858585782 8.633359849678367
Pt 8.681052412835406 8.30807045710644 3.6706202590168897
Pt 5.172698813696506 2.763870599073813 4.639436342491651
Pt 7.875486708827746 6.276538262179276 6.228008573520747
Pt 4.903911145561522 4.976671068230895 3.380868953717716
Pt 8.93052508162984 9.81359902846868 5.887792660271876
Pt 5.766152181411976 7.045473539730657 4.9284256965101445
Pt 6.117958540300551 8.941326929162388 3.023392736000984
Pt 9.912229775806313 5.7609566983484095 7.820411816108056
Pt 4.546641420453276 2.5624790717854253 7.128044846507092
Pt 5.320880662687074 4.917121375561179 6.299278846677787
Pt 6.4850614299026965 2.070389199504442 8.824189300212694
Pt 7.77619155088751 10.766283217826237 3.695235624781475
Pt 4.434488464333442 7.172573020766848 2.19432059439907
Pt 6.083315801735164 4.557041591962029 9.896427402982676
Pt 9.1583457583667 8.285031553073171 8.06794345258893
Pt 3.23046221030265 4.679480194715701 7.969243450405114
Pt 4.051759436204081 2.8675784251297287 9.67834255884522
Pt 6.65935810919672 8.74838101671418 6.700719291269536
Pt 7.356663919421409 11.963325000223263 5.991298670291625
Pt 8.172892804452236 6.367809006066681 9.725895317762474
Pt 6.140523587974164 6.572552355988373 8.156709305741055
Pt 3.7338172099187883 8.56440746064932 4.3277057900047815
Pt 3.2975603560878306 6.674603166856133 6.193169610343067
Pt 3.65349883626214 5.322837458730737 10.560037199714163
Pt 5.416187612474374 10.494103008140671 5.127379608315352
Pt 7.990974204081807 10.640786195803448 8.190669809628295
Pt 4.025657520385127 9.089866226825748 6.930014741210526
Pt 7.447540589266731 8.891489844917942 10.057110952058133
Pt 3.643249792160175 7.207105380357229 8.72919167847916
Pt 5.655850975385928 7.070806615957201 10.724254408698604
Pt 5.4035540270115225 11.256622996527863 7.694172713467451
Pt 4.912480937396813 9.338030302233879 9.46701402529244
Pt 6.431981807736556 11.32570806855295 10.14901345472304
