49
Energy = -248.78058303 eV
Pt 10.353544541994404 9.57611995857071 4.566172547645566
Pt 11.109585134714115 7.280088502883158 5.788863693185976
Pt 9.9148658290816 9.203718890573125 7.067557820171483
Pt 10.392898929279982 7.090938625290517 8.615180321688102
Pt 8.926227117872166 9.18405357218048 9.37854251748901
Pt 8.672424656242384 6.908537426915875 10.591704605520102
Pt 6.637434663468249 8.923822193052244 10.572368995384815
Pt 6.605901590524311 8.135607813468676 5.849027733936103
Pt 6.831758860982059 7.049876171514268 12.413461093999627
Pt 10.563022952205568 4.951793789136249 6.933361350642406
Pt 10.900922433653895 5.208131701538512 4.207123491347838
Pt 9.40919978896279 7.30744396133544 3.689156702530802
Pt 6.790573595471282 9.865053141557379 8.018125801830298
Pt 8.62292820909042 6.747977544560506 6.748504056903887
Pt 9.334949013317164 4.710851184961329 9.284394925626575
Pt 5.911121412707666 10.67998099298419 5.503444441183824
Pt 4.559738887320252 8.561738715214055 9.038935372341317
Pt 6.869183480213288 6.869920996991149 8.659302936796374
Pt 7.1317965720613685 4.820887674931184 11.039380574899821
Pt 4.255725716826294 10.597226256116446 7.528617459147291
Pt 8.548133336361559 4.961606612145802 2.8709947967892875
Pt 7.825708215128933 9.41112884665835 3.901190077403108
Pt 8.412536725888161 10.923624075171995 6.0343144251206295
Pt 5.079051245762123 6.495859358748118 10.56597952645815
Pt 6.92341769283502 7.1929056440222325 2.7569161701253373
Pt 9.240395516408647 2.7328891732090783 7.515640487859832
Pt 7.4342813967664325 2.798586202018376 9.566730889798581
Pt 5.283144033257506 9.159618309888211 3.399680224250145
Pt 5.119211676825826 4.217995154942923 9.247814440248519
Pt 9.098635251999566 3.6190375625966813 5.046363934785418
Pt 7.289754607970098 4.524615552965322 7.306604274799393
Pt 3.3979145398133443 6.158792306020223 8.575342565154273
Pt 5.266639600596797 6.093701912109771 6.763391499328781
Pt 7.0781959894472815 5.69102269662965 4.941992954277467
Pt 2.7421570796171455 8.421841379174731 7.246470743882996
Pt 3.915071742437775 7.526376644730917 5.060024944351529
Pt 5.885929898027261 4.673115870106169 2.8226102535778566
Pt 3.3722236648706096 10.131991697026828 5.12342901842402
Pt 4.30601677486524 6.782173149936271 2.5321156405365706
Pt 7.672520080445287 0.6844140769957708 8.0275409634747
Pt 2.6806367824062844 8.869921652727811 2.894797573410371
Pt 7.538058864500268 1.7145706331186152 5.564014347040883
Pt 5.73348407803519 2.3683831559290565 7.48669744883452
Pt 3.7516920248153727 3.99647550950719 6.919037377894465
Pt 5.519123701144824 3.1893505172211616 4.99822990422821
Pt 2.0559341462757836 6.0302288949317795 6.224171926645361
Pt 1.2047704258693597 8.428336577369192 5.10890245433467
Pt 3.704197717460259 4.891879966092942 4.395746210210779
Pt 1.7678146410500182 6.425057594497703 3.500860604991193
