43
Energy = -215.49491727 eV
Pt 1.3260680933888433 5.968608493191645 9.738541516050544
Pt 3.5513683314084497 5.442190355689763 10.89425673827
Pt 3.1293141582607604 4.927859585571213 8.244194906988625
Pt 5.579022601488034 4.507462275194194 9.531862628142767
Pt 3.324496559877022 7.556376638889967 9.480183775394773
Pt 5.968604861398882 6.058759708757092 11.555864633691302
Pt 3.1506874077438334 7.253186593428543 6.870175646390813
Pt 5.207729333273784 3.9296177771197724 6.996603689209743
Pt 3.008923819039497 4.71881885433505 5.672305590440719
Pt 7.246469383551828 8.061838980215208 12.3893624626317
Pt 8.106974014644873 5.169256112432195 10.306928170387256
Pt 3.644468360027747 6.897549020339788 4.286097521482691
Pt 7.526936081189544 3.613860868241169 8.150903799855199
Pt 5.6550712728900505 8.28932652612291 10.272026789301854
Pt 4.632483633782754 9.225512498586525 8.051029272938964
Pt 7.319801254805384 3.2682678251965904 5.535983623530375
Pt 9.99314628070767 3.864358480106262 9.00832795299759
Pt 5.505237671423322 6.390885407666518 6.246549621339842
Pt 5.223046266734364 4.110768306199279 4.314898734959647
Pt 8.549292735184656 7.931515210081351 10.238430262067977
Pt 3.03478775651437 4.697085225946601 3.0150379249672867
Pt 6.771847198492533 6.667344207916447 8.44727027538852
Pt 4.861352215318605 8.806996971214701 5.488982272993236
Pt 7.251603561060352 9.286142468777255 8.38225650655258
Pt 6.1424959675461634 10.856307023252686 6.594841044628952
Pt 9.52128210624338 2.4913439346843114 6.827039605593736
Pt 3.4775133649394165 6.969856854572011 1.6261458813278535
Pt 7.979216710033269 5.726338164167778 6.293278789457978
Pt 9.882431961577511 6.3699340037667564 8.568636940683614
Pt 5.4898127979074225 5.4631594412826106 2.147245051119474
Pt 5.196565952743994 8.493089725678693 2.9184304933047476
Pt 6.7864866223302 10.137354969908886 4.198029905933283
Pt 7.551094910427484 4.168708307723244 3.0525569396335435
Pt 10.447434462879555 4.905152970447304 6.419431293037704
Pt 9.676891641971341 3.201645061624895 4.321877264103293
Pt 8.528094361473865 9.75819528538855 6.121979748734331
Pt 9.8299254513199 8.948709275218736 8.23836049761918
Pt 7.475387858810412 9.215728147551385 1.8500975805592468
Pt 5.847293596401153 7.557379739221482 0.5316473032094085
Pt 9.38528943872988 5.805019323829149 4.067511259057549
Pt 9.90350774472226 7.484693949161507 6.057659350182021
Pt 7.78596674515104 6.615581099826096 2.1139172670278428
Pt 8.583936492522376 8.247575371411289 3.9926005087493217
