44
Energy = -221.47987967 eV
Pt 8.120861376457292 6.265246260993271 11.491361293326563
Pt 5.592530063314347 6.654347384850814 11.016580014833531
Pt 6.74552865877223 4.401438644593915 10.098569276893333
Pt 7.3143482985772454 8.761802410128022 10.995182739380706
Pt 3.2001165650586025 7.223145250541754 10.175160337061863
Pt 5.2033166556503385 8.872392706827686 9.462623504104098
Pt 9.200887304145798 5.214112341477201 9.322376975161426
Pt 9.415489590142768 7.837158192255762 9.672763945313543
Pt 4.37260681088114 5.07596250807892 9.154839456999548
Pt 7.035241721378682 6.83308924147444 8.815522007736728
Pt 3.0957149615533597 8.687373102410733 8.032594928795735
Pt 8.307337055275383 2.8728017031409867 8.650894059685994
Pt 7.5313104389516905 9.60881935262602 8.446986114131255
Pt 5.763655558108644 3.1117563621438724 7.917613330630688
Pt 2.1809013550523737 6.164162815873102 8.02835112011048
Pt 10.92652853108677 6.558024967643893 7.838339895970143
Pt 5.165567948395136 10.218543802036175 7.110356545451133
Pt 3.6206867995519065 4.283627430153947 6.686989991440923
Pt 9.832294482265235 4.258838247010387 6.977675764474272
Pt 6.08084671063874 5.412028036487419 6.893581259512698
Pt 8.451483455256488 6.6393272595896144 6.619093077532808
Pt 7.895723281555643 2.5865505756604725 6.167816283145209
Pt 1.725455806218237 5.871175022611592 5.44187461830651
Pt 3.909456769462919 7.011641000851678 6.151959410724118
Pt 7.465917668349589 5.27816344284994 4.620936414367708
Pt 10.837943128430997 5.892280131975054 5.168039919152452
Pt 6.274138002050764 7.982915287566442 6.475961332922663
Pt 9.769634522952014 8.876939794412955 7.278261744945205
Pt 3.120515411910702 9.391613138501855 5.502962922675662
Pt 7.82013719644187 9.917089486549788 5.746822959848126
Pt 5.515670325579427 3.2283492079321037 5.197512727396505
Pt 5.4667897681137445 9.78978892651204 4.46314046974539
Pt 7.494272551447549 2.345490550341357 3.6113474259102234
Pt 3.023252415945986 7.6021122348238706 3.5762324499526135
Pt 9.624428763763746 8.193334580625438 4.811446494847954
Pt 9.516339853988868 3.7982302248028272 4.340685481121759
Pt 3.7576620227788364 4.89533488104421 4.080135977256329
Pt 5.5893388917727025 6.927596990044816 4.141838607336492
Pt 9.17471894222803 6.328153501690486 3.053753043025325
Pt 7.523186009614861 8.594761499863976 3.3295551205170275
Pt 5.964683065025969 4.22209372455413 2.7254884156612706
Pt 5.099820816837191 8.654908807539874 2.0892513760141385
Pt 4.312149729846125 6.080717183004665 1.794324802459497
Pt 6.91139172493194 6.526642795664721 1.773077373882284
