46
Energy = -232.42352263 eV
Pt 10.874001173831264 8.151924511975535 6.137691554817324
Pt 9.562263418420208 8.900607833946001 4.0096089238517045
Pt 10.217775512106737 5.5897379645188545 6.184642352909401
Pt 8.992398172658703 6.2607470687002715 2.6662190438051514
Pt 10.169027679509508 4.308473188903836 3.877880669654142
Pt 8.890782834210027 3.242429918386431 5.92386667412155
Pt 9.002802035763988 10.10897947326192 6.317383681443951
Pt 9.811535388309165 6.992497986677991 8.364112937155834
Pt 10.497021671123012 9.527143741348775 8.395311273647776
Pt 7.730076279169107 8.514017119513554 2.2022333752960828
Pt 8.64985863873675 4.625825883715812 8.191335755497951
Pt 8.331079834116636 6.895750117953987 5.034854350882544
Pt 6.944099911228393 4.929014775120017 5.745199428224432
Pt 6.313462114224607 6.380706613337205 2.8376581027184065
Pt 7.567039570339858 4.034585557747249 3.4131199161425
Pt 7.865637023749711 10.007681320059865 8.890818295026511
Pt 9.18860694576447 8.504668375482492 10.499410960732757
Pt 6.288377610207729 10.37682490669653 6.8405901658352075
Pt 7.228055229507078 10.135131435347454 4.311535958977055
Pt 7.276715633166615 2.353259259927696 7.8387419600709745
Pt 7.7324027836348 8.036356994547369 7.209483454682584
Pt 7.885032409106493 6.340356923366374 10.114050833968646
Pt 5.996569481616023 8.026129101006477 5.16097565172474
Pt 4.672788328938135 10.7250533740447 4.744265670945471
Pt 6.313216590335357 6.07650379301883 7.982246364344077
Pt 6.527300239418806 4.119736673725316 9.832494928048966
Pt 6.337929308958038 2.4008578010294865 5.158916282848791
Pt 5.022553374333067 0.9880604622004387 7.004970583328072
Pt 5.165953400126446 8.822707698238863 2.821012586885055
Pt 5.578578921620093 8.663855929467104 8.866495243606318
Pt 3.764637942851804 6.568906796560158 3.2535894125056184
Pt 5.219441033688881 6.450651097515818 10.43677773749076
Pt 5.113190550725439 3.75747356970413 7.333317464953497
Pt 5.153821343724705 1.959031401386437 9.490203660306827
Pt 4.574337917908266 5.9992735595187225 5.859301228501459
Pt 4.013484096740116 8.999705470445381 6.725361071483164
Pt 2.917161834326998 8.895823836783448 4.281331084240842
Pt 4.936126325468315 4.238876626176445 3.690251003445767
Pt 3.7600770274793507 4.4209107160679695 9.497173273493608
Pt 3.6276858117545725 2.668756075003923 5.450811138844389
Pt 3.6617249675099273 6.885975201055344 8.322383491289434
Pt 1.2358376185973712 7.001370642342233 3.801835325603842
Pt 2.345415597010059 4.704555233456057 4.4612622249947345
Pt 2.921243239244529 2.2554052594467984 8.120607798514238
Pt 2.4849201734850768 4.661178119638644 7.105852266011097
Pt 2.187405568029488 7.121306817088454 6.211965934302794
