47
Energy = -238.74450686 eV
Pt 4.772727334244116 3.366251523119308 8.507036487358405
Pt 5.874674718385103 2.441392833590549 6.12774519452865
Pt 3.207505497943894 2.476882055031061 6.561201270636027
Pt 8.435124009018821 2.959308295206183 5.982119608524532
Pt 9.905852072632172 2.5568090574409634 8.262234578296017
Pt 8.60169543565559 3.6703886959413463 10.295666404087791
Pt 6.076044972588749 4.44730197696699 10.685443473334072
Pt 7.270535225178429 2.5586821988667676 8.317914849621442
Pt 2.356067773075605 4.38308282058723 8.174564898435493
Pt 4.228070149845703 3.4042046862228754 4.302300606828392
Pt 3.9475271226390203 5.796476825720277 9.651134770542608
Pt 6.867826412635052 3.6424136376772016 3.9644564125064723
Pt 5.133405748715608 5.053159450723494 6.272972703455102
Pt 9.371141794668407 4.633968829162914 4.019649930176691
Pt 2.4312000161877165 4.927191342390223 5.647543312645849
Pt 10.821305258825662 3.9462861637696975 6.142777686069571
Pt 5.682149071710984 6.988920879891439 11.098066071205668
Pt 9.715049121533202 5.154416987320349 8.241022672447297
Pt 7.739062002264943 5.573075753764617 5.990286095697948
Pt 8.233281200580914 6.280858448355857 10.151561325452418
Pt 6.807851555793335 5.172447647809445 8.33469765912034
Pt 2.745462417328841 6.891105362353824 7.405402727086285
Pt 5.178394982397853 4.650232399239183 2.2341797624829147
Pt 8.974742605225293 7.640209103394427 8.00673729467338
Pt 5.387984667661318 7.201732108600273 7.801564599504317
Pt 2.772338863260043 5.320366555197456 3.134426527063079
Pt 3.5851593987348287 8.549485036783693 9.237676753528419
Pt 7.719911468913893 5.497324087078401 2.208203569419724
Pt 5.153358343613892 9.528785775831015 11.045980626218576
Pt 5.888368078141954 6.44694479812252 4.213057394338712
Pt 10.240818210914513 6.497867556796295 5.953377920153629
Pt 3.2705355468740085 7.318750666992826 4.809378878591229
Pt 3.346400582288185 5.719347256812328 0.6061527032508596
Pt 7.075971126800376 8.52867001385802 9.531902965381779
Pt 7.010320715763418 8.087140399701486 6.047188831730266
Pt 4.006926794128857 9.130508551301453 6.609621310401066
Pt 8.832956726412073 7.286779029567154 3.8283032826872354
Pt 5.86922120722543 6.478267903022442 0.5033682458003887
Pt 5.455745973195755 10.341743733020271 8.527279296758213
Pt 8.037221520393123 10.148340936744386 7.7735135516130125
Pt 4.168530207692924 7.522193039227848 2.324784697964637
Pt 6.816097164093382 8.100115951733715 2.298724135780947
Pt 5.125867495549999 9.110244844511945 4.17030642931069
Pt 9.620274712479747 9.009911766426765 5.771714135686278
Pt 6.14377076152956 10.658339023877984 6.008225934938811
Pt 7.773308073831957 9.79203484794882 3.9350166245610922
Pt 8.694005939724178 11.481114234677337 5.654990654412081
