46
Energy = -233.50509488 eV
Pt 10.774713671305564 4.452309264007116 8.273957074147294
Pt 11.048961352355565 6.967286423662466 7.7861111860928265
Pt 10.00846227669665 5.369458981375394 5.956358449914555
Pt 9.87086853480274 6.249260112207557 10.05645926781326
Pt 8.554610997941042 3.9806398871988486 9.455869476013117
Pt 11.342664834634396 9.458291277944532 7.4401820035356385
Pt 8.962016292256125 3.0785725320490767 6.985694153888441
Pt 10.434570213185323 8.026832039164852 5.345865610046891
Pt 9.593275039608733 8.892092075784486 9.38355101516806
Pt 8.05259477544546 5.261437872522733 11.71438910942199
Pt 9.187736359492407 6.284856826165044 3.6650522324407726
Pt 6.975498242458808 4.906746231441827 6.965644986213404
Pt 8.124778506768589 4.100747549819059 4.606288746879239
Pt 6.576450632752155 2.5080893367806576 8.23456720275876
Pt 7.626596151980835 7.550674325817733 10.49114522324234
Pt 6.896028120762231 2.0289785141720795 5.661988759080989
Pt 8.814238954494444 9.599875195356606 6.943485710624244
Pt 8.309026850054513 6.917181375522311 7.920753136488731
Pt 6.385753440468886 3.4655618252707363 10.672067311100813
Pt 8.106906830688878 9.35154033684746 4.468725500094463
Pt 7.441564591937498 6.974005818085939 5.434934177064559
Pt 5.6169304126977 5.962205178148093 10.9166044745566
Pt 10.0048002416536 8.597211940961374 2.806736004375357
Pt 7.464517641849489 8.05819275839608 2.2702695731796654
Pt 7.018670880145393 9.486059881861793 8.87736699205945
Pt 6.787721999359271 5.55929816921718 2.8458512738418325
Pt 5.213183344262325 8.566407056203063 10.630669290321725
Pt 5.688663578335744 3.3546991430904347 3.807727715920009
Pt 6.30454424473565 9.584873287583907 6.3436147447260085
Pt 4.964626367230949 4.6006284579756445 8.761907795659052
Pt 5.640999846191933 7.097631376773564 7.371484796072933
Pt 5.56487723226117 9.37084394350139 3.781772800468413
Pt 3.7146125543098285 6.775239687206867 9.321669382403778
Pt 4.811162082309091 3.510783412727747 6.361206949295404
Pt 4.477128107994899 9.458142015195612 8.198944039708467
Pt 4.960913164036078 7.34839850197251 2.10816947099664
Pt 2.618627911563615 9.04099061423574 9.990461604076325
Pt 4.948405245305474 6.968851510482754 4.705690968857576
Pt 4.444581466654333 4.687302203667905 1.989361734601953
Pt 3.712196463366204 9.40837862582032 5.691544335236175
Pt 3.315887494741057 5.597521151978612 6.95713498671799
Pt 2.27340690398497 8.09462151449006 7.529164788207667
Pt 3.017953468409645 8.960309843218496 3.1661272362143267
Pt 3.5024490153671723 4.7854647556083965 4.477562882987862
Pt 2.561947523003124 6.422857322191264 2.574568250411487
Pt 2.330606713932712 7.186282518616281 5.082200986313484
