45
Energy = -227.33587618 eV
Pt 2.4839726328992833 4.7192032384635105 8.498886753259821
Pt 3.0198555889030256 2.6956850386828775 6.905465963094063
Pt 4.488432007199512 5.6964880362917425 9.71891738148314
Pt 2.7326665955584786 7.335375140973272 7.732946504691239
Pt 2.8129781124276882 5.184552533126777 5.965567630709963
Pt 5.099057234122828 3.5272852354922115 8.269578138945949
Pt 5.488072869622291 1.8532560177966317 6.292745398322965
Pt 6.345470833729716 6.892364549436363 10.984983808140388
Pt 3.6050434970643686 3.106224991531636 4.384827947123371
Pt 4.4604127737684145 8.407232946109843 9.492155477747506
Pt 4.59022842266223 9.086766312087807 6.859908135285498
Pt 7.02375172284692 4.743115128934853 9.589455186867708
Pt 5.042071447555998 6.313579149685892 7.230940310067732
Pt 3.0765904578415424 7.720772734308744 5.1037511182155
Pt 7.631551019909068 2.9752462944354705 7.539543899639979
Pt 5.470405110142454 1.3982713001613551 3.6884513840331326
Pt 5.590706227431888 4.345968579041061 5.505238215984349
Pt 8.293610266279693 8.144590520679866 12.236757260883959
Pt 6.321744600959815 9.483683075309754 11.066882887297302
Pt 6.523941199765132 10.035574188671529 8.517617454539625
Pt 3.5220989712361876 5.562621848619462 3.4630836685749546
Pt 6.988520621728771 7.475521062374356 8.468575903419422
Pt 8.709214929154143 9.03851522007545 9.823194340654972
Pt 5.606324751049697 6.804311043785127 4.717104843551997
Pt 6.729264044623915 10.404944693657123 5.980308719607218
Pt 7.500740448231519 5.479696574658768 6.814238235200198
Pt 5.636387300690468 3.87038839868513 2.7819969412964203
Pt 8.976935679960018 6.3239087584683755 10.448124314997354
Pt 5.01933174364806 9.380529212018 4.265839694680769
Pt 7.516994726438081 2.6998147813073827 4.6931495661303835
Pt 9.430071670463054 4.7982206361809006 8.38943140163598
Pt 10.105771552689685 7.402590217134629 8.37827978543737
Pt 8.976015023750863 9.713631422554798 7.316404477995009
Pt 3.6785702262284024 7.913934210859786 2.4729677900823117
Pt 9.399024445351486 4.175261382431691 5.642733283055289
Pt 7.573090430558501 7.954411934614122 5.9729092444466545
Pt 11.136271468108164 8.390677706514188 6.2651939103003
Pt 5.90495769842685 6.3790032950491256 2.1484773105247204
Pt 7.416930563537344 10.438734217176039 3.44455167630281
Pt 7.777663458222661 5.255890814329996 3.7095219764282175
Pt 9.47519058367689 9.491157514590423 4.6592648659159694
Pt 11.266559245810797 5.757685882861849 6.696193307519592
Pt 5.940852313877767 9.017033746562124 1.8068125990436592
Pt 9.68639053301367 6.73197452198551 4.8041021638106
Pt 7.910635370365891 7.848360587320822 3.221715004298821
