40
Energy = -200.69875096 eV
Pt 8.548027271132817 6.2208162532710505 9.658077050328323
Pt 11.253119890883728 6.0732430315659895 6.187587818222868
Pt 10.506382992495254 7.575210195235957 8.34206416318045
Pt 9.657114981335557 10.064595762458245 7.821214698302972
Pt 8.999926663342622 8.873057500025835 10.11220894215941
Pt 9.796043819172784 8.26787095331819 5.860337623868042
Pt 9.447347481761414 6.174154737571056 4.242466484928192
Pt 9.404188168089023 4.068333482319632 5.945506027093133
Pt 10.487621508843821 4.923030169214991 8.388708933373806
Pt 7.477910813306578 4.306581553326538 4.138957276296121
Pt 7.140679478949921 10.939885448307033 8.382723343719157
Pt 6.557329049222189 7.8188346485175515 10.336308140188029
Pt 8.34040532897591 6.255685008796136 6.8859403811178845
Pt 7.47507982900078 8.447716363250894 7.9321982335520484
Pt 7.7859702329855365 10.05609057524814 5.9207816076783955
Pt 8.405341495449342 8.620570969746908 3.7138697554946183
Pt 6.907816552301104 10.393999987988039 10.881388476483695
Pt 7.420474097014463 6.405796651882232 2.568446494854873
Pt 8.09358740135272 3.912587854039717 8.42767783651575
Pt 6.052853884688277 5.419327129574402 9.450272122897722
Pt 5.339508508634259 7.205491420729086 7.3319120828124476
Pt 4.0259068294972025 7.188117150386068 9.600621704585706
Pt 6.5842130047871255 6.964748021977473 5.0559271925317635
Pt 7.265672512609684 2.5382902059701395 6.199946586054474
Pt 4.8348805590618635 9.705188302620103 9.420858418098312
Pt 6.612343631702517 8.814746950506924 1.835529999834861
Pt 6.092285390253996 4.866851614799716 6.585851493060587
Pt 3.609588407702215 4.641257162544477 9.102274719858507
Pt 5.2145424242838745 9.90866613047744 6.774976977010031
Pt 5.812768581821348 9.50352366355638 4.280525657421629
Pt 5.338127740227508 4.789113158376743 2.611482145314526
Pt 5.62082794504415 3.008739734922636 8.398979140999295
Pt 2.9412789713755916 8.879416408148927 7.811329347642569
Pt 5.076956757664387 3.0674630395281213 4.479978657596038
Pt 3.7118278753908185 8.15334250671901 5.353250970991756
Pt 4.833815942681958 7.34957208479417 3.0903659692869794
Pt 4.8624631777838925 1.4204344382880854 6.4222135083352905
Pt 3.9191741003446423 5.543639739321787 4.71514438671021
Pt 2.940161767892358 6.2485384304667715 7.09349219927594
Pt 3.6068177786661835 3.734099282392382 6.646801044474724
