43
Energy = -215.37932742 eV
Pt 11.44798805536296 4.9067885844224435 4.117779559493081
Pt 11.360635571555743 4.114824355772495 6.721979678330557
Pt 9.350973164357061 4.445520075676124 2.5206635388296568
Pt 10.357074827160336 6.4459263046724775 5.929510929161901
Pt 9.446699289626649 3.584193098660194 4.993293617290284
Pt 9.97385512616821 6.975730846422229 3.350312113447946
Pt 10.05446500186516 5.637150670378031 8.469312780551835
Pt 9.19860340540949 7.984783696454997 7.6641414086749124
Pt 8.866602526485975 3.5590470687420153 7.500316996054776
Pt 9.43402613593637 8.739231253878604 5.17146398870236
Pt 8.59678121066273 7.173681976432966 10.084771591231894
Pt 7.516326945746945 6.157121217668129 3.2927390234031746
Pt 7.488153875757384 5.082611740855411 9.041454167799657
Pt 7.721316439142896 6.072135788269332 6.331980609997308
Pt 6.4271003239725175 6.034966067495078 11.158312690705305
Pt 6.311542363290659 2.9715710594688103 7.904575821592629
Pt 7.145237172983163 3.6097087931554475 3.8339372949991253
Pt 8.53575306823085 9.766218604907172 9.464575003087317
Pt 8.418093446532259 10.404617040312937 6.928604036897132
Pt 7.605847864063507 1.9502425248256328 5.878170912378922
Pt 8.284057884258733 10.964373386242904 4.387827203410125
Pt 6.474732757395971 8.649470964473494 10.66188357051409
Pt 6.243161438394322 9.95530500596639 8.31660995299331
Pt 5.2334476006570485 2.9539700275127876 5.49449579457732
Pt 4.977260043125067 4.323784086024549 9.747745850709837
Pt 6.024751157169419 10.585344565440822 5.743183320276188
Pt 6.006817984956632 8.037358253586708 6.487174384593246
Pt 5.338531347139944 5.69285496996885 7.320934726175
Pt 8.053560378532914 8.71780137613233 2.9785716028174303
Pt 5.4270832181161675 5.439835310391569 4.668061523743209
Pt 5.672770227532178 7.871604242849048 3.864333050005446
Pt 4.571104257950894 6.98274350612286 9.67017751947754
Pt 3.7112212037202306 3.0467362151142 7.714107507522256
Pt 4.100794275120941 9.522040418180724 9.716796096432525
Pt 6.021814359087514 10.392340751846309 3.102741494299344
Pt 3.929845267416863 9.515794942817084 7.031699118652205
Pt 3.1549727696408962 4.574714124766699 5.595408661829884
Pt 3.8511518867003076 9.662634520414327 4.442401658884125
Pt 2.8839013883809055 5.391584356384498 8.500676107354373
Pt 3.501623921007029 7.181447786384323 5.2665868320926785
Pt 2.4504588187053655 7.973761500343237 8.42980934929844
Pt 1.2317057756531102 3.8212314958956215 7.1517786261373315
Pt 1.4321452954413945 6.459880543925849 6.611147958981694
