46
Energy = -231.85056923 eV
Pt 3.659339156301773 4.608156336802153 0.45779989716320524
Pt 5.808645468151326 5.767924093681711 1.388051248311228
Pt 5.6179800145376975 3.0115273593708993 1.3380166982262645
Pt 3.480973863950733 7.020216530921079 1.8376755361067572
Pt 8.006641040490212 4.269965362762144 1.7345933636222315
Pt 1.421502744105367 2.926196248744997 2.1059661902807107
Pt 1.2787280565312698 5.471647727644669 1.4342502026640966
Pt 3.6376439529647717 1.7927236450643633 2.9025848584438703
Pt 6.004528074955315 4.13394608659222 3.7868080308723915
Pt 4.738592008521987 6.3866259137740515 4.20423814868078
Pt 8.008362531766585 6.8188931530171475 2.3032138955591295
Pt 7.316851075155109 6.195004219933119 4.709935727344116
Pt 3.4743069017757167 4.345501143845866 2.978846784983325
Pt 8.253183531974713 2.8549843765170557 3.924497185692342
Pt 3.3311892490457087 8.527596625680182 4.18643482941789
Pt 6.096813689813277 1.4714233573882234 3.519558277714933
Pt 1.7186664404920817 6.477037970212517 3.8138444457389538
Pt 1.8291472650506408 2.560732002817045 4.782088737294465
Pt 8.400547880463444 8.203733390772173 5.963959646226279
Pt 8.042754239117613 9.042758022380692 3.5630298309579396
Pt 5.692441706739572 8.251129391398846 2.5964145152665234
Pt 0.1839472313538763 4.463882316213082 3.875486396448711
Pt 9.50668740824673 5.16499161074585 3.9150307230226593
Pt 5.93382570175168 8.910224908833774 5.1885279175939205
Pt 4.247585581134328 1.576622943865259 5.46376066667537
Pt 7.159407722645678 5.642724656961277 7.201190428713958
Pt 0.7906795555975051 4.55363081023311 6.411934424446974
Pt 7.0324336839218535 1.7517009075471723 6.019750261274991
Pt 8.84641958637824 3.7623523178428107 6.244889611522627
Pt 10.002097400024457 6.140023955316782 6.334265208435707
Pt 1.9977581922579386 7.137206774675009 6.27007936481448
Pt 5.53783981115232 3.860518373005246 6.306424035460325
Pt 2.692358189299471 2.8630854493171958 7.385173913276772
Pt 8.7172705629511 7.281735421757854 8.417717981064639
Pt 4.722486577083976 6.381914796657212 6.777358250779667
Pt 3.2514765118092708 4.645631953958293 5.545255634914234
Pt 3.9230189368768777 8.858701618889839 6.807870846567947
Pt 2.548477615389513 7.897330640665906 8.803778024533692
Pt 9.307737073466573 4.67319869939776 8.638144771989008
Pt 7.227970638303419 2.97767995208975 8.377013089003288
Pt 5.023495254414785 1.5420905467480335 7.944497107744125
Pt 2.4791734218533805 5.332446772045337 8.300206053931808
Pt 4.700864350858957 6.580638718870616 9.373296150612251
Pt 6.910131222564626 5.283477163872013 9.75905407134589
Pt 6.3228372203718175 8.240240448694466 7.792155015676501
Pt 4.729056729015751 3.9541003531034153 8.929207070211273
