49
Energy = -249.70835762 eV
Pt 6.902726008609406 4.1106834014123095 0.3192891612225037
Pt 2.7379900363350993 5.970372881779211 1.1296321549984498
Pt 4.072985662020489 8.21534660670323 1.462948913199439
Pt 8.04276472124588 5.911459569332681 1.8960580597245438
Pt 6.737401817764017 8.215616302362971 1.8623899456947008
Pt 5.419473835126693 2.7372413720407067 1.8894875826328348
Pt 2.158769194107455 7.508271305455725 3.2255776982716813
Pt 7.967928859876006 3.2802249408181043 2.602008645434554
Pt 0.9573745895724921 5.0349851357312945 2.973181241169486
Pt 5.1865493351709 7.39160106831927 3.825766660289606
Pt 3.8669296188977187 9.609445937588683 3.713469087297028
Pt 5.385337435030706 6.045969644241529 0.9774692764575214
Pt 8.495869208874801 7.6972069851018405 3.816840385948918
Pt 9.265361370192219 5.165013998836469 4.067924382212788
Pt 3.747611462377403 1.5233495847100795 3.4531676097000803
Pt 6.373642612847473 1.679332725423733 4.161507742768013
Pt 6.599768439417551 9.591017413693434 4.12435778210787
Pt 3.1202955249771946 3.7701946233944024 2.3488615468830707
Pt 8.728061286981076 2.670492651952753 4.993679622008683
Pt 1.2369337514190109 6.108002613017567 5.3409729336034895
Pt 2.4643097971855044 8.48032524600224 5.645039165842236
Pt 5.915491261329415 4.961046172149914 3.3237012042204195
Pt 10.50059150224383 4.20635394190433 6.113103114367528
Pt 2.156681896191358 3.241332265449463 4.881883345215669
Pt 3.5721772971493766 5.479639809458572 4.332064782101429
Pt 2.1462598969586963 6.811296058441121 7.723855467079595
Pt 4.121747745498887 4.217158013092344 6.490273004311131
Pt 9.378263423385734 6.700660445699262 6.310718580183665
Pt 6.481547404611796 3.781853999189893 5.594826483916252
Pt 4.142248149033126 1.6802665997389783 5.980462242348988
Pt 3.1377521965992368 9.234397958486635 8.066735001174749
Pt 1.6183202661726985 4.307932718756065 7.274668757965486
Pt 6.626261793623815 1.5337464429618455 6.878324055695491
Pt 7.464326592053496 8.653420540772197 6.490890546642078
Pt 4.9491785997893265 9.606545114657463 6.151051078021559
Pt 9.163331351755508 2.1858945008915955 7.496364270536178
Pt 6.9907052844401 6.366024168735282 5.434459463671145
Pt 4.467345100595002 6.887592301041176 6.420112165574347
Pt 9.178670388777427 4.76320488382271 8.173574247948528
Pt 6.173108438995934 5.264945012847115 7.711618969394658
Pt 3.5198563844376873 7.419908637492027 9.882173814510864
Pt 4.60304018154155 2.490807754879609 8.419403628478374
Pt 7.935444359267053 7.076243197177584 8.565430134610228
Pt 7.210338717573366 3.07479553945077 8.91088764608394
Pt 5.614297611248627 8.382648423145062 8.408240702829406
Pt 3.4508991402846068 4.849205974610493 9.152978115096662
Pt 7.961546265412865 5.055931652388844 10.422195966082876
Pt 5.788683590785288 6.348621947003016 10.085101767728291
Pt 5.383741139025782 3.8223124646498867 10.595212393553696
