41
Energy = -204.11813313 eV
Pt 3.6202191193596622 3.7342500599765183 10.849286560741572
Pt 6.149774900779621 3.6355364802374828 10.416939510776913
Pt 7.038491099797686 2.924165176591117 8.05232371222833
Pt 8.404359502062716 4.6646355632394645 9.681079563162715
Pt 4.270046542336885 3.2665963533218796 8.401803620794762
Pt 3.8791261812138496 6.221365385483633 10.51427235965868
Pt 6.419177907374478 6.243494142388145 10.373483796139999
Pt 5.738795332580843 5.305019098343842 8.006383619822262
Pt 10.64906849458353 5.752088487067488 8.83720804294916
Pt 3.0979068042865507 4.471249420029924 6.432706266634047
Pt 6.526268296556549 8.798205051124702 9.664517330503118
Pt 7.977736818254158 2.803208575543705 5.611945216598245
Pt 8.696592999035285 7.295936343755132 9.546998741488633
Pt 3.359850299595631 6.545140641812238 8.041513219434586
Pt 5.472951542401195 3.4898263256810416 5.9735821425883415
Pt 9.230922498939254 4.281124850961154 7.236916972355462
Pt 10.599619307080843 6.278593131858334 6.353901982756318
Pt 7.0523475051286715 7.4653665542153425 7.529473501577007
Pt 9.635982102485118 4.634979213347746 4.428045742219723
Pt 4.394974297006404 4.79287552752515 3.9778234925276887
Pt 10.171981004103058 9.137001541755806 8.625444493132306
Pt 10.322911529446456 7.2852516675830055 4.023104847905886
Pt 5.330717928042678 6.646116152573814 5.717910530666571
Pt 6.927845631026238 4.290979220052684 3.782857685797765
Pt 8.47249187690827 6.195334419699044 2.601119829663278
Pt 3.991369936272383 8.618663780725376 9.597821382915944
Pt 1.835393387021396 5.226350330294751 4.230448211245089
Pt 7.835289627240868 6.035052189124263 5.570689986342136
Pt 6.394002146008126 9.77815807998077 5.706766729311497
Pt 11.16438750872221 8.725799630116175 6.351259446648295
Pt 8.004324527391951 10.013506564216513 7.810670004491926
Pt 2.7658119944278745 7.209157013668688 5.610676233875987
Pt 5.832953496355233 6.074227028958371 2.229992107666129
Pt 4.194951319173353 8.869520518919638 6.985494016949501
Pt 7.362184417167575 7.910965808488783 1.0827358742595488
Pt 3.251491207888355 6.945380016423271 2.92599551042702
Pt 4.350891816821166 8.992994123758267 4.364564917941813
Pt 8.753581902517768 8.671473693087624 5.529384653844408
Pt 5.546309033559058 10.72142054473653 8.137314847853071
Pt 6.822276483696457 7.990711402397251 3.807782822568303
Pt 4.950531169389081 8.554189384974476 1.8736699655747728
