43
Energy = -216.98451596 eV
Pt 6.455706129234148 7.053150069269445 1.7716837152419453
Pt 6.762723977647757 4.796089453368243 0.6206926307132749
Pt 3.9980660811673467 7.541588827045823 2.4028064175492334
Pt 5.8857275887400435 8.864766197819897 3.598256124077124
Pt 3.3753780939691613 8.680956192936065 4.682774230807516
Pt 8.440660643319806 8.123314294097867 3.173594051753792
Pt 4.9701780901452555 5.0784246584712225 2.726569026359771
Pt 5.451600873244523 10.107072590263366 5.972437321151533
Pt 3.1134377327114855 9.62497715809446 7.12792572812497
Pt 7.1571202496584 6.1656560345306035 4.4092193055585955
Pt 7.815766533146851 10.089403320101122 4.8184259532774245
Pt 7.327245391603672 3.585912797964671 2.7550383669119842
Pt 3.0521505039283934 6.092589334922158 4.314859259649053
Pt 10.521455135205562 6.607167913595141 3.827977998535712
Pt 5.472811614249831 2.8343860886487553 4.397541340879807
Pt 3.1114655670411175 3.563761471713857 3.899745596589636
Pt 2.7332919545690704 7.069828347959616 6.739906328752684
Pt 5.430229355842357 7.448087684360645 5.924393406521337
Pt 9.420792639585047 8.170610807558143 5.644744769111411
Pt 5.337294218898557 9.02953303399629 8.42977521191697
Pt 8.819789672066575 5.744104315645281 2.0017975165673847
Pt 9.2555511277942 4.4595065683587976 4.363142936925897
Pt 7.966669833838863 2.261336594877858 4.8604481341187284
Pt 2.9391990148634357 8.054661051359206 9.20516665785977
Pt 5.635419149381364 4.852666976381398 6.10463622205895
Pt 3.0845021511872575 4.449747846429284 6.386219788378012
Pt 2.841777811141288 5.382307772367533 8.78343328458752
Pt 7.708401082840047 9.33577344143146 7.278991143185749
Pt 5.3255007996600385 6.190936792641716 8.283353593812384
Pt 6.268335746415752 2.4347965142901886 6.8869547325823515
Pt 7.493500936988017 8.085902717365554 9.527959653585329
Pt 10.239758754523853 5.789046012968604 6.413995282350962
Pt 7.591804490764422 6.52840213849517 7.029851165735195
Pt 8.506634143426496 3.8237887944276 6.888523460491227
Pt 5.215526461956132 7.5119153521073 10.618732494223963
Pt 2.9253677732724044 6.402477008448789 11.211231008381167
Pt 4.391512737233015 3.261359729042285 8.454082331154135
Pt 6.905690032085227 3.8710369735231414 9.052605119350053
Pt 9.83034916267842 7.855461213566275 8.227635187209707
Pt 9.611267521449516 7.063089374347696 10.758228938336195
Pt 9.160925832098012 5.328821475741907 8.855279101929517
Pt 4.943414634942139 4.792273800927573 10.562523735216839
Pt 7.338732295935463 5.808308887787375 10.806758984120606
