42
Energy = -211.3371744 eV
Pt 8.312755063594139 1.231093818338412 5.215450144792076
Pt 7.486516419451644 2.8713044270301054 3.405609351680425
Pt 6.703562404071935 4.487389892514965 1.5906226231557352
Pt 6.073241182420496 2.509178566891292 5.6780896289193405
Pt 7.574451893212202 6.941190511714848 1.482441474414434
Pt 9.019518759269939 3.7795016916387834 5.427949497265661
Pt 5.154616900209142 4.206835096686071 3.7504218625483214
Pt 8.650040471427486 5.3054293046703105 3.290303063791791
Pt 8.081428082053609 2.338391311380702 7.534841856188992
Pt 3.3509642968210858 6.046755093677941 4.350535661334077
Pt 5.14579018912411 6.599871181848498 2.49116762110062
Pt 4.173180615873065 4.1900261792218805 6.214701472603405
Pt 6.798417598141965 4.8421366312451 6.756554444835264
Pt 6.365007872020556 9.035704034935417 2.3045518632734034
Pt 6.605484283472203 6.19970292301844 4.610217353084207
Pt 5.549416371193902 3.270225722630782 8.338459156780301
Pt 9.15373589705471 4.859746131119801 7.873748326563552
Pt 9.278126275953634 6.37641658914498 5.658032007873686
Pt 8.46091421863167 8.013234489210667 3.7264087731541222
Pt 2.1389261302520377 5.873177037068678 6.732892059120522
Pt 7.842653662383744 3.4493473754412083 9.792108616031008
Pt 5.738870758065342 4.975399922458404 10.393830044397964
Pt 6.526023475822337 6.758950945389814 8.370730679275118
Pt 4.847505185435688 6.9715656177607075 6.344706937839779
Pt 7.672062435968185 4.536268748269519 12.130774466161224
Pt 9.510978715809104 9.047272728518152 5.900135367774118
Pt 6.673060278812127 10.192896144729016 4.559038675599816
Pt 7.038566471947327 8.307261558697983 6.27715961781914
Pt 8.461223344916737 6.060334722081452 10.14817684337214
Pt 9.105846790511112 7.539064493117584 8.106930482658237
Pt 4.563456842713244 8.623138293795243 4.148028900479165
Pt 3.9751706304760286 5.453222279333366 8.599965567819723
Pt 2.294413761860987 8.198868942975217 5.497162267062951
Pt 4.68419654955442 7.526363865208103 10.189970046020038
Pt 6.605897960600021 6.9601701794605 11.914624457090799
Pt 5.43510408823314 9.416504271831025 8.491966639316392
Pt 8.561458645872863 11.466866295522195 5.829810331691661
Pt 7.476316563711797 8.610113431852705 10.0715909585015
Pt 8.092466240611776 10.057424214139543 8.03152440845402
Pt 6.099159450770004 11.35668755508231 6.786941371706836
Pt 3.1833209855096793 8.00930091314585 8.057494555781911
Pt 3.9936983447993653 9.962403795963542 6.384793778268761
