45
Energy = -225.52887606 eV
Pt 9.500758307206066 10.377945917705935 7.9332074260322685
Pt 10.891565324736161 6.168701267568149 9.282820969393404
Pt 11.241666033113836 8.428555141192327 7.877924230730397
Pt 9.26763431372352 8.170525473345823 9.584392271795085
Pt 7.164557719260521 10.763640840845468 6.797142156697375
Pt 9.508331076224371 8.725352365502888 5.905997639157336
Pt 10.399298743344113 6.254544303353625 6.742616497857056
Pt 9.497614363818858 6.544657508182153 4.333448055324522
Pt 7.494633226054568 10.145268889371858 9.605197406997801
Pt 9.251909595139843 4.391267734506655 8.18358709407094
Pt 8.56046694541095 5.74635482208304 10.454874031940458
Pt 6.125771437242115 9.812107621873691 4.662347970791074
Pt 6.9009822586858265 5.8380169633272185 8.304312812605502
Pt 9.638921924280968 4.117106152110455 5.520064986327538
Pt 7.355377837672741 8.317980455465397 7.664064840816531
Pt 6.948988210706881 7.816959427803201 10.775011008284839
Pt 5.102276733166899 10.059346911407077 8.097281569469072
Pt 8.457226510152816 9.05581147050039 3.5284632265392006
Pt 7.423338428736143 6.927409930658928 2.5177919836360623
Pt 5.139291958259133 9.705565288092671 10.722771769511473
Pt 7.5609634179454845 3.3255090457452448 9.965463696952678
Pt 8.168585149318544 4.411540375254014 3.3685193474013073
Pt 7.090017585595149 7.532848319454283 5.223223457429034
Pt 7.270448566925496 5.024492547325751 5.875145141604285
Pt 7.460144941653087 2.6318740246320336 7.477285183777272
Pt 7.682900734732994 2.3106809254211744 4.951672168098135
Pt 4.942673489094116 7.495039454057182 9.03157205769941
Pt 5.9580357420977 5.367882789522429 10.743983989598524
Pt 6.575275843975885 4.705723850806271 1.3445607861198343
Pt 2.9779758930678395 9.272559651813921 9.251060909654845
Pt 5.133015204735441 6.41675248647738 6.498002959273849
Pt 5.3061263246187735 3.6474048279430726 8.602238900752726
Pt 3.9931165569502918 8.911904190851518 6.089489075419159
Pt 4.917927871233946 6.802336114267612 1.4253579207315739
Pt 5.426844607007011 5.782147067550673 3.8730842838696207
Pt 4.370792807732592 8.162482342116984 3.6290578739868025
Pt 5.238805456472373 3.076882569945068 5.987581206151053
Pt 5.760612094997216 3.1623318935886093 3.4127741415218744
Pt 2.6284745301791594 7.162392143868429 7.78679659781425
Pt 3.569049806336534 5.333127580141272 9.591485690723449
Pt 2.7054872446485256 6.683416829759574 5.284013049029168
Pt 3.3408564102250016 4.595756758996612 7.060682529624798
Pt 4.013049708920005 4.283683666619192 1.8054058403629005
Pt 2.6331155990409534 6.281068773387266 2.7655750088650577
Pt 3.4109739134752983 4.222802243413291 4.4385363712538215
