40
Energy = -200.49420167 eV
Pt 7.637360570220902 2.927139378507816 6.994998072870607
Pt 9.021412439023058 5.549532005623883 3.89220255713046
Pt 9.971444791450681 4.248197518803202 6.098597714256651
Pt 5.875804231549404 3.517102323929604 5.09151314578238
Pt 10.504831337186966 6.799624221962111 5.756326115132258
Pt 4.612172294156694 4.045498515888719 9.470601684652546
Pt 8.343991124421878 3.0378539995972416 4.454497068499968
Pt 6.865235014450579 7.1324278465340925 2.8795997539650835
Pt 9.040148823646494 3.944300739694718 9.216892218692193
Pt 6.771690116327335 2.6491518439374833 9.39327333137283
Pt 9.046789007130185 8.223815493526809 4.00369155026235
Pt 3.5303443470267073 4.314911215639682 5.840470252824019
Pt 4.665452632921621 5.648637943420917 3.7606387571388957
Pt 3.114156567473137 6.87436767838798 5.6658718393272585
Pt 4.638169379718904 8.311097625014522 3.950328602628915
Pt 6.831856529963044 5.964610981238743 5.2380163319813935
Pt 6.851765159124293 4.486182919038159 2.738599184297701
Pt 5.452086385128755 5.34556909243542 7.392816286984156
Pt 2.986125681986041 5.620087906868334 8.11748386913081
Pt 6.867730549962417 5.058021549598857 10.370856903841585
Pt 8.089128639870443 7.93318138713318 6.439898468637586
Pt 5.442426817240606 9.21205043594639 9.850098467002283
Pt 8.237206801377578 9.155194499912731 9.799884406978748
Pt 10.624434702078181 9.424616345103377 5.829619839378082
Pt 10.799282943424666 5.614600781508897 8.203032235863668
Pt 10.204517303066806 8.144276841658828 8.162852999369564
Pt 9.073468945843643 6.593307330231916 10.008124131164337
Pt 6.833979796444546 10.503955184668971 7.9073437212226825
Pt 8.120369698811501 5.500668597928598 7.376619683310005
Pt 4.586684061490508 6.681244417288135 10.028554612626994
Pt 6.8717947752264665 7.481404537338533 11.318927074594924
Pt 6.871189699706661 9.671552177707506 3.4221628031702593
Pt 8.174250716907308 10.411731345825562 5.564913219638485
Pt 6.737095223303594 7.33904779645311 8.560508150403303
Pt 5.535274262349897 10.384401320338625 5.572236524368463
Pt 4.281492601992085 10.603651929363986 7.887819486974103
Pt 3.425306055259465 8.186415923276762 8.138468096937103
Pt 3.0535403190164128 9.490945775598492 5.799628715766294
Pt 5.484661978409317 7.85995548075766 6.392448950174118
Pt 9.403009869367342 10.587349243406123 7.887265193858216
