42
Energy = -211.17161649 eV
Pt 4.551678348759671 7.264794215242871 2.132755711357714
Pt 4.246696403983375 4.6790166817354155 2.491552082088009
Pt 6.771189931423538 8.46385597363091 2.8976558279188622
Pt 4.371535316918616 8.793147109752915 4.286903607979324
Pt 6.076169701343548 10.761634298724152 4.122388784128525
Pt 6.46735640831091 5.8490287594216674 3.2803012840218675
Pt 3.5233298749871977 6.31478461470463 4.428701288010947
Pt 5.86420154300982 3.38523933563353 4.119621004224568
Pt 3.223604400944897 3.6341381447862426 4.614673614642565
Pt 8.661839541118368 7.028004322493256 4.2104997559668575
Pt 6.493971437165301 7.830555457660964 5.615864503824227
Pt 8.388879335603239 9.644539689528688 4.538983545909412
Pt 3.6086438109852415 7.807542076186476 6.582227322534034
Pt 5.1338168926398815 10.012798909942992 6.48887221855382
Pt 7.4096424748440555 11.56745643555838 6.217530263779537
Pt 8.09687000169993 4.556979593732427 4.915582196746398
Pt 5.6437130554418085 5.21183607694648 6.046504358857933
Pt 2.9763137004508478 5.270820182042836 6.745422615634327
Pt 4.665596561068497 1.6022761795324498 5.619361389609648
Pt 2.551347505404201 2.6102603255065153 6.891081311337856
Pt 10.339409294486039 5.753704395294279 5.7500899510527255
Pt 4.987847457273846 3.1562711041106404 7.760130679402626
Pt 10.153392601377202 8.429325782815296 6.053695486163138
Pt 4.492419101745153 9.081623986109491 8.874098545963815
Pt 7.060281633979979 2.4354214971371353 6.279725695913222
Pt 10.002790498820248 11.037485430436359 5.9893824279099865
Pt 5.820051382329676 6.850156214971519 7.959311553601562
Pt 9.406630484901475 3.306197552232773 6.875261326340989
Pt 8.182464818804895 6.39142063144815 7.058720031985403
Pt 3.3168229024787523 6.707328843319695 8.999826215914325
Pt 11.51761977150922 6.9243675113298755 7.785935187587609
Pt 8.463140406007337 9.6909428071939 7.668960109297315
Pt 2.8756895588316587 4.08370208109381 9.069580129349454
Pt 7.379423769420927 3.945936910443971 8.432785960157016
Pt 6.376023146242985 10.948862858467223 8.590428712639705
Pt 5.171170621769101 7.261532353112 10.889742291648803
Pt 9.721653452126052 5.1107681681551345 8.906462755960876
Pt 11.733720911642983 4.277453049149694 7.422290635533859
Pt 7.033937537766652 8.617730301246967 9.56733884530778
Pt 9.414427234387322 7.735852872575687 9.031860873529682
Pt 5.279700514564228 4.883866146244931 9.70071266908664
Pt 7.570795776836483 6.089111970965222 10.055819296413246
