42
Energy = -209.11742976 eV
Pt 5.546664573445338 9.499542777139698 2.891236878434893
Pt 8.677220376121833 3.1670308374387206 7.60409322872467
Pt 6.309969285089815 5.009292923777436 5.785886070036634
Pt 10.801039979892035 4.3325120615058 6.565421278872752
Pt 9.031501969485427 6.442114684525509 3.95927479957024
Pt 2.0444714785449216 7.441002201271411 4.263150684323529
Pt 2.3943254148454107 6.2537147187921835 2.028480681356428
Pt 9.465387333222939 8.056992387076427 5.974750705438553
Pt 7.261312766258936 8.955457554807765 7.072676391925005
Pt 2.021207153361966 3.839312209917339 6.555530412285849
Pt 8.941529286296253 6.641008638538436 9.72854054048289
Pt 3.824532515453219 9.328204906866532 4.8144183045196325
Pt 7.479137196936517 7.757335956197066 2.310169518401361
Pt 4.748458965466644 8.325859454008057 7.001752484841101
Pt 5.043158132304204 4.787500394756657 9.186070555749374
Pt 4.245033476962188 4.634737138361111 3.0044411651949927
Pt 3.0642495604344826 8.85854669741749 2.302038036128777
Pt 6.539065406238461 6.550310900869111 7.886938032076768
Pt 5.713092547149964 7.336314120092322 4.781880795880345
Pt 7.661477638186803 4.4393948780221235 9.694063837367294
Pt 2.194861691384463 8.426803807374254 6.682027800811993
Pt 6.263205556269519 2.478712474350518 8.78818388124012
Pt 8.508197652574674 3.855060746395212 4.737646570999446
Pt 9.48742200420388 8.95399549093321 8.49733086422533
Pt 6.684885199255872 2.3692107251154595 6.219998072344171
Pt 10.279121502303392 4.415617477312971 9.240155575789757
Pt 3.599156056810988 2.6982245637719453 4.675383910496304
Pt 4.429311276255075 3.315978388802982 7.13526100535515
Pt 3.8512841485669727 5.633809979721155 5.417494436038368
Pt 11.323882249372108 6.399512985699973 5.1067079052640185
Pt 3.0195666290371674 6.066650848496196 7.839998300122494
Pt 7.56326919816315 9.160726268306972 4.521812674752146
Pt 4.627097235741674 7.3886869202688175 9.47590287155896
Pt 0.9311277498508049 6.157307386528237 6.1869585701833305
Pt 8.655693124153283 5.687071337275218 6.787791303080778
Pt 7.11587295085918 8.486700666067753 9.633112781376495
Pt 6.095741829795238 3.0562868611637564 3.853806309765513
Pt 6.487793125539838 6.3121834849558045 11.034267446421563
Pt 6.845276823931383 5.368368694506303 2.9875923081054765
Pt 10.798584910372652 6.709162562747821 7.857977317732212
Pt 1.7514819632050433 4.662729910029303 4.048564929793315
Pt 4.934646531410887 6.987747287692813 2.118069239115095
