40
Energy = -200.67189376 eV
Pt 9.217781758247353 10.710289927098387 5.537033380919988
Pt 6.752090293078258 11.678368838866632 5.742590918251753
Pt 7.242258793561674 9.776847970748024 4.000675503177836
Pt 10.005432943483441 8.792782581820557 7.121370646065022
Pt 9.485721252230162 8.423780924141266 4.408343945295543
Pt 4.666576744196979 10.699698774818229 4.491155047159617
Pt 7.652109888181631 9.953447040329188 7.503491094480021
Pt 6.22927420760743 8.127962444899168 5.76932871991796
Pt 7.544877810525059 7.407124666471142 2.8988446412429263
Pt 5.024149661025844 10.145443853868986 7.044339870431273
Pt 10.536918258331001 6.747033920921931 8.600826694435263
Pt 9.893292902356642 6.068940773624048 3.407974844032956
Pt 10.133841111389104 6.397351536618873 6.0455994014897625
Pt 5.05220631695853 8.392428119328072 3.375678266488309
Pt 8.634042529523299 8.499737495288892 9.470305289635416
Pt 3.262570533566469 8.725124028817046 5.574277486679005
Pt 5.937680830880206 8.898788104859266 9.165835517930308
Pt 7.63565078956156 4.634298666467092 3.0042960427224163
Pt 7.531050767717445 5.987937443276658 5.148520241095793
Pt 7.712598759470016 6.9074098703507225 7.56041982753604
Pt 5.099132099713865 6.616347576194799 7.507991420553155
Pt 6.841265222322278 7.451185873201611 11.11738685096782
Pt 5.325784540377303 5.927378604798884 2.5688960243252517
Pt 4.211297784657057 7.32427118689791 10.516356143074695
Pt 3.432700135342684 8.456437213275157 8.25643106676997
Pt 9.289587547792973 4.04800991299344 5.075595011093307
Pt 4.090789950235258 6.324767629453618 4.838896107096609
Pt 9.51729032304067 4.433048010481989 7.79553692493459
Pt 8.435203009672685 5.771877781826393 9.843849183629303
Pt 2.363343216078347 6.543668008090037 6.766599533405836
Pt 6.597550473208478 4.531548118473814 7.043678373546178
Pt 5.809941155441596 5.293576724870815 10.095260631275288
Pt 3.34024337740636 5.345721153809844 8.948450490917907
Pt 5.474924840482332 4.1341487982740235 4.477626765101297
Pt 3.6693152255659562 4.2384078702271495 6.512304334303549
Pt 8.185789015130206 2.413575092396309 6.756300387838725
Pt 7.508124147146427 3.435419827505268 9.2947658622399
Pt 4.832322330881751 3.2316520812905436 8.757406809064184
Pt 5.527357555790355 2.3032190780783193 6.255322983834682
Pt 6.504341832944444 1.203046508669548 8.404109473929626
