43
Energy = -215.22838817 eV
Pt 10.666392830094033 7.923352533961156 3.0164900683914433
Pt 10.461458500917853 5.781486718853503 4.4225643348967445
Pt 9.349143069667585 3.68466761931758 5.493491795224063
Pt 8.49150288256522 4.694820445289363 3.221040135912904
Pt 10.5078570339314 8.133652199033017 5.655677970957183
Pt 8.398228163827886 7.103652337779759 2.150070882839207
Pt 9.531300957259557 5.988826996532176 6.884067628570885
Pt 7.849165930330432 1.777873842279293 6.594894789906478
Pt 7.89431934455838 4.13368352223139 7.7201037316051595
Pt 8.042851305756011 4.924345825497314 0.6543784487486365
Pt 7.0017598548668465 2.7899977894379857 4.352352830553184
Pt 9.619561793955707 8.309619281218524 8.129963724896797
Pt 6.0328615757753585 6.466984342484116 1.2471361981240194
Pt 8.413862468468734 8.86746332292889 4.0707347739572
Pt 6.139918424129764 3.896420979482019 2.1752217867970245
Pt 7.6050206366566115 7.567107387860949 6.204760411470141
Pt 7.885873086859251 6.496043159112667 8.896272138980004
Pt 6.256375712539342 2.2908119651118413 8.65598518543509
Pt 6.944014303949277 5.2218048638757235 5.332081559332238
Pt 5.266838306100035 2.0254738410100095 6.210277564660705
Pt 8.804296597384795 10.169075817042977 6.306766395356761
Pt 9.24928941598302 10.796593515839332 8.84019443376824
Pt 6.06420305179723 8.149623421446622 3.2067782159808567
Pt 5.069486395812461 5.789533915938272 3.6232617291749385
Pt 5.985693700379788 4.8002750741654365 9.495219207191765
Pt 7.719918158485828 8.936627032986458 9.898849948493888
Pt 5.544390695230253 6.293582714079152 7.253173945271443
Pt 4.392559095572212 3.2701033363736074 4.021254222672201
Pt 4.186236649381991 3.704789536539901 7.911629453086207
Pt 6.241563388418588 9.589053502781121 5.422951068229818
Pt 5.602827968504742 7.401229282763572 9.87428172102431
Pt 2.7453136452054436 2.705256993719737 5.982878864063502
Pt 4.406950162123399 7.701695000232087 5.273300971134762
Pt 3.424544533645417 5.266211776549093 5.5749863501680075
Pt 6.808764226318356 10.322518356877708 7.927369295570175
Pt 3.5695534314933877 5.815675152040074 9.300025103297148
Pt 5.143352827793175 9.975739632583725 9.91639055923568
Pt 4.563980842406148 9.159190033123112 7.467394017729214
Pt 1.7543935198194476 4.600203706476099 7.503798887842634
Pt 2.6660188514814145 7.27125990855542 7.120378363070375
Pt 3.0700028957860575 8.39266653362949 9.529843767217901
Pt 1.1209725976872658 6.717867603812858 9.11730336314036
Pt 10.666392830094033 5.147531674504006 8.20816631335579
