46
Energy = -233.07100914 eV
Pt 5.598877984892131 1.3240682895927187 4.737964180479949
Pt 7.224234120760953 2.385327729219701 2.9058852001241657
Pt 4.866192417223228 3.3631370887033345 3.1667031860277173
Pt 8.195459217536937 2.3551699304557867 7.903731642237198
Pt 3.6818380651818434 3.0212951052738775 5.594425086750657
Pt 6.909192741494915 4.77778280848961 1.9589847663842466
Pt 5.743132041641737 2.4457868509409604 7.044847452263368
Pt 2.510383937196504 4.451190770549733 3.653234514081331
Pt 7.775530102754097 2.737223600203031 5.34718263857477
Pt 9.098935448720118 6.255060905635633 2.646926314907891
Pt 3.8388776519534162 3.8825916915226935 8.118595517382447
Pt 10.582567708283717 6.265808590064119 7.741755168905086
Pt 9.685161216108613 4.047294369737503 6.492030329321043
Pt 9.136367337133336 7.176596069563425 9.820278928749214
Pt 7.402376386261321 5.195671245783833 4.423824858349918
Pt 4.526255704067335 5.863325818779799 2.6339225973336085
Pt 4.9932392814718725 5.280741379039083 5.323570035887722
Pt 2.478108080310506 5.2577501389867765 6.2559617673773635
Pt 6.3175275574144605 3.6294610632397255 9.299064546135837
Pt 4.360692689753133 5.118190743421082 10.412252488594142
Pt 8.749333155102736 4.710939983591176 8.972669268983388
Pt 10.000756241187917 6.289488236261648 5.121877064221264
Pt 6.752243306716111 7.294911873237541 2.8706051597807227
Pt 8.85149250573045 8.531310499201 4.065173702384406
Pt 9.937305858036591 8.522450489883596 6.425885782055812
Pt 7.9434520101197785 5.992183205185644 6.795950598648749
Pt 3.097601218485624 6.48105620287881 8.581721967639256
Pt 7.180269819892273 8.014819676782146 8.18437184439576
Pt 6.009471697682376 7.587285484558443 5.847587850955742
Pt 11.05404286264781 8.635422398627792 8.740857618814207
Pt 6.8379416386168845 5.9753548195537896 10.306402925463912
Pt 7.175223951191032 8.423839220516482 11.193092783579525
Pt 2.8863251300875614 7.007005040189744 4.3091778275039605
Pt 4.43492500910075 8.49910870575111 2.811526062647759
Pt 5.5791945219129655 5.909145180137967 7.783180581154256
Pt 8.290117973468385 10.447038958838966 5.7234437795671385
Pt 4.792572618902412 7.741862490596081 10.198147730633565
Pt 8.682897832247724 9.770375748039605 9.53542650799342
Pt 5.882578519580368 10.235132414951973 6.767154597726489
Pt 10.082108583525555 10.836245532832125 7.639083731465511
Pt 6.3615713685525614 9.603083249043962 4.193064291212336
Pt 2.052314803155206 7.837081768338491 6.638026441767557
Pt 5.960097595336397 9.989585238155055 9.39104100129769
Pt 3.946365023539759 9.177875698575935 5.374760702755457
Pt 3.9136822770017954 8.991409625378866 8.038424336049959
Pt 7.6234242063907045 11.664773488061511 8.012464039806863
