41
Energy = -203.45768424 eV
Pt 10.283284115186731 3.6466412018445316 4.468432850761327
Pt 10.178004640382206 7.6767475218581795 6.319798953902328
Pt 9.276967832514407 2.928634722739101 6.707723571713183
Pt 9.974205687293514 6.223145987851654 4.1483146326545235
Pt 9.718380502066914 3.670621783215201 9.08929067852961
Pt 8.279461697773643 1.7316533767883275 4.731953806341438
Pt 7.881114587965771 4.483699459264361 3.9195691113755027
Pt 9.405051730430097 6.188731390972842 8.479964152997475
Pt 6.104156140546734 3.0171724843260184 5.04266377761849
Pt 7.489880861521179 7.018642096377326 3.56531105791845
Pt 6.405376761723558 0.9938702679141911 6.507420723038894
Pt 7.541663887062372 2.2276448450051465 8.390073554749282
Pt 9.322939567929206 10.236818112980615 6.228204563583752
Pt 7.592921798678211 7.763931785388895 6.095826851410828
Pt 5.364691704633167 5.37485707980616 4.181003976171287
Pt 8.695041297615344 8.675402777949275 8.331439727899852
Pt 9.362156643602216 8.868220371734518 4.001658957996727
Pt 8.438813546492309 5.341081573481787 6.29272186000555
Pt 9.065801329431412 11.35312376935196 8.469530848543984
Pt 5.894368621272989 5.161819444626745 6.81222739972475
Pt 6.846138848312171 9.602842414741268 3.6157335736236913
Pt 4.056059775946813 1.635470290141167 7.203860043142097
Pt 3.6746184624409453 3.6277007867115696 5.609423317289476
Pt 7.33107953071918 4.613235957571501 9.381434058427745
Pt 5.0294459485382195 7.674526692150106 3.1429093330309006
Pt 7.447371900927233 7.152158374357733 9.945886009464047
Pt 5.1885256317606565 6.012714891070826 9.273515107505105
Pt 5.093493628506686 7.4302380270281 5.95761036053945
Pt 6.781984478100348 10.339752312628528 8.805415998460385
Pt 4.447314703648124 10.101731544043831 2.5120184450748613
Pt 4.705111282665301 9.402516600443697 7.604831087029941
Pt 6.7344455445743705 10.305699938065603 6.165798704132052
Pt 5.07380554510011 3.478959665934278 8.588299449381761
Pt 2.887700802767921 6.113599795619616 5.163148450311672
Pt 6.05820969352796 9.055909162178507 10.847976897733464
Pt 2.642441020346359 8.442116447074703 3.7026248809456996
Pt 3.2509927410711352 5.208671509595667 7.605254841646367
Pt 4.009829790262177 8.191625262420102 9.706612872699331
Pt 4.417808140446497 9.87132460990286 5.084088871612568
Pt 2.493930665477808 8.420830793645061 6.316461583015659
Pt 2.0562180941545787 7.2367240546153075 8.4847742414124
