45
Energy = -228.89152907 eV
Pt 5.457491323406452 6.6403952945298315 2.572871167311194
Pt 4.948673477802623 5.5654719171875415 6.115116014509417
Pt 7.0985620680365935 6.44793269362011 10.810968848754055
Pt 3.53613740082307 5.405510129476547 3.9229454516914806
Pt 10.457853721485733 7.622911424701322 3.632840704872776
Pt 10.72657213805474 8.714557335280276 6.004368015794614
Pt 4.227338658666971 10.436778699529306 4.970260778827689
Pt 5.684344357254387 6.8207713493259785 8.211541337176756
Pt 6.880126852420075 2.748976459641529 5.5790320432030205
Pt 9.371178766018039 5.236798813536411 3.475212980708803
Pt 5.7607929744254625 8.039723426672031 5.897578855231907
Pt 3.7351751646577536 8.05281347816772 3.9217773259260404
Pt 2.971733771805085 8.710213155642238 6.449449668876186
Pt 7.077595299504845 6.072821754822414 4.69332933617255
Pt 7.97943428903831 7.4803803439293 2.63406964733997
Pt 8.397360863060332 2.390764926771288 7.721904591228632
Pt 10.38517179095681 7.204057796473665 8.155455130414138
Pt 6.774636974200361 10.599408860918404 5.60036495664838
Pt 6.062039488033359 8.847491774499863 9.780879228681275
Pt 7.616795733735109 4.158611429361513 9.56583246405203
Pt 8.140406251452543 2.970281637048708 3.303765624638211
Pt 9.807472021685081 4.663846289388255 7.914984482753253
Pt 5.713795316809009 3.994048541458751 3.520718363737815
Pt 3.444642970144999 4.176486258442152 7.890355680041369
Pt 2.702050465848767 5.83580421102115 9.823802187591832
Pt 1.9349500023645085 4.411809766268937 5.76124291623881
Pt 9.538615099323419 5.856388160616449 10.244237560395915
Pt 2.08834990677721 6.479538609268492 7.424528777927878
Pt 6.065097017030819 9.154738944791273 3.4552688364222983
Pt 1.6218820820102613 6.965893787719541 4.968989104353643
Pt 4.993940524638649 9.980010353258791 7.579210026275034
Pt 8.618281904642112 9.259967914648584 4.463634089364454
Pt 7.647342167670826 9.770642907121127 7.893018508644103
Pt 8.639887229983902 8.320678630860835 9.851732038245988
Pt 3.570324919376584 8.156071486538213 8.956803157930292
Pt 4.623691818670563 7.106556730219071 11.186669129256993
Pt 10.398471919620565 6.0553205910986065 5.733644127224194
Pt 8.24726925408634 7.545751327960313 6.535670100875818
Pt 9.394108970863561 3.6087868250080772 5.575299376344987
Pt 5.806790595277914 3.0202861843934596 7.991481969914018
Pt 4.299258618892438 3.1092277069591128 5.634416055641643
Pt 7.34621828734542 5.145929175129277 7.117609271060561
Pt 7.380472765702977 5.044545113064343 1.751560649207327
Pt 5.095513880613902 4.827810427245717 9.880268992066572
Pt 10.200068401988693 9.811104862591614 8.293207932633742
