49
Energy = -250.08834998 eV
Pt 5.70809399724574 4.7177952458163395 1.021067837261912
Pt 5.93570475452075 7.312846528887622 1.0897328569965703
Pt 3.2755921502091834 3.920852635950169 1.3289471159118542
Pt 3.5156345279909416 7.729542342612776 1.8150051825523978
Pt 8.114127299434697 5.778536729225097 0.9308052852339019
Pt 1.7620839119305407 5.937476555495103 0.8622869497863355
Pt 5.164006805016617 2.3889619710639365 2.2404630944721555
Pt 0.9963270976986893 4.170607486913488 2.697284451510714
Pt 5.408294027626709 8.987947552938401 3.183538672734928
Pt 7.706190216244991 3.3591924962643667 1.985777465379056
Pt 6.558928995103122 5.192185449383426 3.6062885148637323
Pt 7.80682993740629 7.526591326237534 2.8715040284570827
Pt 2.703197296229046 2.050572580559183 3.154422064036028
Pt 3.921896442477054 5.578010114565318 3.2314531204813566
Pt 9.205236452341786 5.20184437657794 3.2978952474207155
Pt 3.2525171987647385 3.8305419342227736 5.02726143373092
Pt 1.4736849989045513 6.748336529320188 3.2830785709132755
Pt 2.8814947234665134 8.767920380727062 4.255350128155566
Pt 4.718231817323092 0.6524576457689598 4.211992337285616
Pt 5.338711708156651 7.047739842188133 4.861255144855149
Pt 7.277843362660599 1.2031647393772689 3.409367786333231
Pt 9.565002918400939 2.562158624718991 3.629367436716634
Pt 5.696197022918847 3.0372272990245044 4.802272222988075
Pt 0.5238806531259019 2.5238007555948543 4.63449493344087
Pt 0.5343669694627073 5.057244949299297 5.200876586384643
Pt 8.097877836025061 2.1058268087494953 5.791961758346183
Pt 9.418799672623212 4.273654335660027 5.708379326284372
Pt 5.179786218487867 4.990784120918433 6.537362864356082
Pt 3.061038065167675 6.272413663818443 5.855926531004996
Pt 7.657265903862652 6.1479873686156 6.017545187619658
Pt 0.8394531069374334 7.668440663912023 5.63366023894189
Pt 9.550654748491668 7.329581132739275 4.814935382166057
Pt 2.507212670209132 1.2741804523665212 5.704966020780948
Pt 6.740445919254111 9.435322298561735 5.695039282568247
Pt 4.894141387701333 9.435322298561735 5.801844022169157
Pt 5.938505292746925 1.870576113368956 7.327947768867997
Pt 6.496321204123372 6.1789937342461245 8.53896122019313
Pt 1.4012573811934919 3.3341311189545877 7.027336764625496
Pt 4.350217082710953 9.47231025126562 6.8363831470795615
Pt 2.871180466168489 8.44201550042448 7.183742668327484
Pt 7.3393867043901 8.790379294940427 5.143147524727845
Pt 5.1437258274187805 3.8792062712572672 8.885892493239846
Pt 7.487457686451504 3.9285591039624013 7.597836032013142
Pt 1.2891140195617135 5.966842337815109 7.677547727898373
Pt 7.861969503120848 8.22805060528328 7.628434298331009
Pt 3.374508241242997 1.9501744587433285 8.189280804359425
Pt 5.3054921715189876 8.509262601111017 8.15292106709793
Pt 3.836757660835733 6.366634400016844 8.667248381454765
Pt 2.5406668676673974 4.185610505300931 9.177221942214679
