40
Energy = -200.23478365 eV
Pt 8.414972464350237 4.52202097174879 3.7863915835214197
Pt 6.3414048643319445 6.109632391856397 2.972783473442331
Pt 8.403731292852685 7.112413117170575 4.207730485811263
Pt 10.453724479026652 8.092830807408097 5.647290854189508
Pt 4.2528257037071375 4.926292295288964 1.928468713276391
Pt 6.145406456799992 8.472668791267385 4.137302182448948
Pt 6.431290346608674 3.552897336749307 2.36986569170901
Pt 8.383568970407167 9.690511545454543 4.699227153282814
Pt 3.908872434676379 7.153532296163031 3.4666260075687645
Pt 2.350491014923578 5.07391912261599 3.6755466642809793
Pt 10.509197077427629 10.742687793024853 5.744570675569764
Pt 3.497487164981974 8.794335557347285 5.558146976578458
Pt 6.906911148179021 2.5791290209159654 4.761421450601371
Pt 1.6364427347274961 6.929119465568126 5.302516244756494
Pt 5.653792621300128 10.167584317000074 6.150203267608355
Pt 7.535268769404692 8.005169885312618 6.595821924424622
Pt 7.9947625801740125 11.400377158552487 6.5667015791458185
Pt 4.580439011930612 3.7001510114215037 4.242058271180347
Pt 9.632402538846222 9.525131898563194 7.856097625837057
Pt 5.03839264242452 6.702893146382764 5.765693188100249
Pt 10.08828298803977 5.523327111139789 5.592866708514566
Pt 6.993397940255062 9.84018819209602 8.409534831248653
Pt 2.640096117730096 7.007857838079405 7.645331016587964
Pt 7.120516800316253 5.219984401450027 6.019125172028937
Pt 5.315140675056335 3.414005221407514 6.749301795213173
Pt 3.2620397544913615 4.876166271421851 6.190011383303333
Pt 9.628988656652643 6.856557884631501 7.854399415082257
Pt 9.519133745577035 2.8812829344145077 5.520552575959081
Pt 4.582472018081556 8.712432740712151 8.070325263681218
Pt 6.231548221847857 6.430753865427036 8.109035375577976
Pt 4.200987938368216 4.858119732480647 8.683320042352827
Pt 7.597525217992186 2.120497032250625 7.221489401137391
Pt 8.974175093951818 4.305909217319808 7.693542504656212
Pt 8.647468505680173 8.304891746214347 9.88780777095534
Pt 3.666972207999351 7.094402094475412 9.980236193684128
Pt 6.6419822688596915 3.677977921276112 9.06185748569008
Pt 8.243411864100937 5.681336039851049 9.743845319973834
Pt 6.038060231501053 8.172737319957935 10.179059620779283
Pt 5.709814993669957 5.487838415851552 10.776184024875281
Pt 7.548153675941955 6.9784512857958765 11.91464770037474
