41
Energy = -205.58874515 eV
Pt 10.259148780388449 3.5239839301512093 5.761945465234444
Pt 11.040959547431033 5.897680930268888 4.72408429386304
Pt 9.15973542994506 4.359489471978193 3.5015629844194303
Pt 10.510302845650433 5.686864978629293 7.316161807706521
Pt 8.526900713296802 3.846242073676674 7.795163933556511
Pt 8.013631296665976 5.654486920780775 1.51271774689746
Pt 7.62253608667027 3.166627234017247 5.392617006240004
Pt 9.04783943226612 7.091469843384039 3.4253926363103435
Pt 9.601888983713907 7.886809003461194 5.869147858699755
Pt 6.567213435552714 4.009035045607349 3.0824265856257953
Pt 8.315275942662552 5.661946346084995 5.6949462440290395
Pt 9.462720535030952 5.384056384117756 9.753227327330125
Pt 9.436635573464125 7.786217441654314 8.592277258890393
Pt 6.120514417005319 6.14564827975316 4.516062559502519
Pt 5.363801315821885 5.575472681627236 1.2583664402624626
Pt 5.975347849593773 3.1301621904727224 7.586268356403699
Pt 6.552696814808224 7.6366921363401215 2.475074986099182
Pt 6.089162266324523 10.74550945401015 5.788105668509112
Pt 7.325766735521149 6.505353444483182 7.883782043280058
Pt 7.807411851481921 9.243535090227551 7.143109651139122
Pt 7.599652695009256 9.052746858723172 4.418854112872134
Pt 3.9114846295979797 4.120526960533178 2.8512833612614163
Pt 7.571652462784217 7.154496911486095 10.432173397624812
Pt 5.569017880247911 10.049979100003135 8.253025846437811
Pt 3.9387558417967097 6.7301700376052445 3.2517830579258917
Pt 6.883701578167054 4.577899743558231 9.695714265809515
Pt 3.304965399789726 3.208804001205172 7.088489437303695
Pt 5.170547964472441 5.4939121274421545 6.810786066856599
Pt 4.880186065580427 9.105901051481952 3.967524628107894
Pt 5.027100508130641 3.2405769423967627 5.0890940202821096
Pt 4.995094182024945 7.365664588089138 8.69666464649499
Pt 3.5872555388454495 9.98235741937874 6.467509732371895
Pt 5.579571768172122 8.027851617749155 6.249351697137497
Pt 5.762425577890878 8.955892967285482 10.556691039689614
Pt 2.946465523008862 4.999521364468983 5.108723519836609
Pt 3.0676268516753806 7.578746757673022 5.587961227646032
Pt 5.0732664622628665 6.212071003126933 10.967763106889313
Pt 2.4429714339339235 5.68343559289001 7.530927324712369
Pt 4.279868029511752 4.478577618198115 9.185993148231667
Pt 2.6431794636499926 8.209177704237536 8.203558153394853
Pt 2.545742665201619 6.304298392417994 10.077961234180126
