43
Energy = -201.47592963 eV
Pt 9.407446595134035 7.851518403112691 2.982458472123648
Pt 10.974774212295424 5.982044196852218 2.3370058054142753
Pt 10.290695365877319 4.421720383631528 6.507806300577517
Pt 11.314078348091336 6.252405559532137 7.816663227048155
Pt 8.798369304722128 10.45492640554829 6.430792368969121
Pt 8.264267177127664 9.446488754551691 8.833376924398921
Pt 9.164683480691762 5.2475706470802175 8.772988880151004
Pt 8.556385448110243 5.155250632144377 2.4115630332068183
Pt 7.219608954309032 8.819269746799508 1.8415462751473273
Pt 9.98459011741894 8.258799549787257 7.245695824661619
Pt 9.570786973112678 7.527645616406958 9.675800362549637
Pt 10.439456132056984 4.2062547820027545 4.0263713102839
Pt 8.57212604326683 7.032406869522489 0.7208565374025704
Pt 10.396880741921205 9.054768509411566 4.933239754810414
Pt 7.522239767489011 11.785548333073523 8.103411043275933
Pt 8.148700543673584 9.9017863215866 4.098238213401597
Pt 8.672024196800923 2.829038903681759 7.813046868249637
Pt 9.713047937826389 2.150557334871746 5.562993719490009
Pt 8.020055427494212 3.155986266752221 4.052574319467075
Pt 3.337766911932986 7.963383159306002 4.944813775815865
Pt 2.5755867591746537 5.58301006363194 5.074227320574483
Pt 2.491421420488969 4.1392059997537025 10.115974325842828
Pt 2.641443680079563 7.915723151300313 10.857531976047866
Pt 2.867831500464113 9.671763883538354 6.689199648818638
Pt 4.6555174283230105 9.442539315839497 11.192661746106142
Pt 5.048071595974768 4.233612492050116 9.951000716061937
Pt 4.539370864223477 4.755421931094687 3.6432536340501334
Pt 4.993017702150361 8.64354559363472 2.9709842062298475
Pt 3.6099279366837145 9.129642599844763 8.901225385488468
Pt 3.88140478223154 5.775716211970089 11.505730683750627
Pt 3.938196190590143 3.730386493865763 6.000769519516465
Pt 3.4428496614995265 6.752140232720955 2.7010777271822257
Pt 4.6152810065534755 10.244547086165579 5.021275136510937
Pt 6.198510343573441 2.830010345116897 7.983156284924832
Pt 4.865651640872927 1.3611554420592753 6.44808042120368
Pt 3.58063343949733 2.7997359992654185 8.29346849272255
Pt 5.632537556966658 2.5062266823914587 4.310450072198254
Pt 7.509925968636371 3.831352742899597 9.937166824451912
Pt 5.912038801908867 10.250610850831155 9.2024725553945
Pt 6.122523087027593 10.899200782609666 3.074268203414548
Pt 6.40088951612018 3.8904574844001076 2.229966256124405
Pt 1.1957076558539068 5.92020492580768 11.312598131560598
Pt 4.423887784518852 7.706629316319741 12.982427718146294
