48
Energy = -245.20701861 eV
Pt 9.618468226445536 5.741460919301241 4.010255105877606
Pt 10.751846733095283 4.775222239301894 6.280075593975698
Pt 8.090596526386646 3.984424871637768 2.702736238889316
Pt 8.969128280249372 2.9977552102329783 4.948526237716897
Pt 10.40435325764561 7.446559547287704 5.903862154339602
Pt 9.421231546816104 10.000073602012982 5.890187050036608
Pt 9.676278065419506 4.848082522769829 8.803833400307942
Pt 8.947983375032996 8.268881224461257 3.8720693686101693
Pt 10.627722812507018 9.121727803218723 7.9764199708019214
Pt 6.289995615447032 2.8436185395191704 4.306314545354568
Pt 7.9016518509827165 3.035683698818134 9.270046620997524
Pt 8.209627523775387 5.198591662806157 6.1161383636934765
Pt 9.742722125851744 2.59015313495991 7.438162405118603
Pt 3.4391057440770263 6.479181799737829 3.1071206937614324
Pt 5.7014949337756375 5.130273782276169 2.637621246166463
Pt 9.14897605965614 7.4204474667439015 9.31721818670663
Pt 5.880006315797006 5.199371224689296 5.239273173209303
Pt 6.806867173944359 10.279490089278505 5.8805375279510335
Pt 6.5714299483295076 7.74963134841768 4.8295061006283095
Pt 7.192515564306431 2.2700496233315333 6.752012612780496
Pt 7.8431907566136445 6.5521126947747454 2.2523129418775376
Pt 11.421365554192194 6.624128839479541 8.122759732122459
Pt 7.921709462837721 7.5277077267650485 7.005312562248494
Pt 8.244213183635958 10.71860391740084 3.675790377495914
Pt 7.985825797910132 9.79718517534 8.257796994596237
Pt 5.559210682540944 1.8592666655393149 8.751251957964342
Pt 7.4964730891593145 5.570820637238776 10.068289715981074
Pt 3.737929641539471 4.047783084270919 4.175532118195521
Pt 4.611039301891425 2.8773273827886903 6.423260790175491
Pt 6.325440448435988 4.723794518704463 7.794901405910029
Pt 5.787598858877449 10.173762037918541 3.389388130574827
Pt 5.77915667604399 3.6465635311866857 10.741418661292553
Pt 5.574446204623809 7.795307893771779 2.3801232710018825
Pt 2.814757819120647 4.795958386528575 6.685811438720405
Pt 6.683589312450724 8.128130234043494 9.927981982043205
Pt 5.511088549624082 7.1542307373061576 7.803843394318397
Pt 4.016193754861333 3.968136532545711 8.853027360188772
Pt 3.4181001917227265 9.140522300352302 3.061632576662946
Pt 1.533832293642071 5.600098477220217 4.5914159769970855
Pt 4.1512443275320585 6.961848256853284 5.644298999943683
Pt 4.947529558280023 6.139119408370486 10.533161519480865
Pt 5.329908204026188 9.74880399780794 7.954638221940385
Pt 4.247998302528126 9.67588605152919 5.514320008717681
Pt 3.053104732683064 6.386524018687929 8.778831841564932
Pt 1.1485308594468242 6.778227219101593 7.028099275990422
Pt 4.026555636635588 8.559093156256534 9.999231860587813
Pt 1.9780977838014697 8.262115946496163 5.077999882047937
Pt 2.8679908296516965 8.784097326897252 7.6026122027992145
