49
Energy = -251.32952107 eV
Pt 1.4567721334814747 4.440738507624353 5.977156698128045
Pt 3.80033377201896 3.573806612690321 5.105938580499119
Pt 2.237261204744473 5.109691154766049 3.53133420089771
Pt 3.2255561882872055 3.654300505866335 7.757639849587063
Pt 5.132227571141218 3.5069893681934046 9.48545977518868
Pt 1.7569884989018858 6.97772990896385 5.444226008302031
Pt 2.4389479756052306 6.1614505652816725 7.756877729163492
Pt 5.569355950660534 2.854300724098169 6.91800195587151
Pt 3.201482158497649 5.167618794027613 10.010146441800003
Pt 7.566361801592282 3.0080105252900786 8.786485619577338
Pt 6.291462918220371 3.1723807108116766 4.376803962886517
Pt 4.692718618550768 5.755354516192884 6.264073054291742
Pt 8.143157346232371 2.742152061469571 6.250939660370052
Pt 4.802764510391086 4.948480690653357 3.0158218825254073
Pt 5.5730732078677825 6.126763443386991 10.620332113573417
Pt 3.7628826506019344 7.191248722110895 3.774983948850544
Pt 7.0727421598176115 4.091132497070705 11.18571503452495
Pt 6.564564544972759 5.4295080477372135 8.238111875316262
Pt 5.6888323383413075 7.785856133890102 7.475038660866034
Pt 10.009119734035048 3.4752691389923567 7.998729627773361
Pt 2.5700017928979193 8.735732667376462 7.299788225875712
Pt 3.74735181748383 7.657994967739807 9.450807206905047
Pt 7.38672540900086 5.111585396537406 2.893876867983681
Pt 4.601105917848625 9.998402140297317 6.262973434634895
Pt 6.186158547357008 8.655099492334747 10.030220002502988
Pt 6.317753454388849 7.562844500431927 4.950779769662145
Pt 4.868551928017195 9.57776081852705 3.65117849293657
Pt 7.969575855212934 7.090375254651518 11.039909884777746
Pt 5.999209241447643 7.225508635876781 2.336729829099862
Pt 8.90537864545716 3.173116328130579 3.7368327144351268
Pt 6.755843640716506 10.223634362059034 7.811366392429081
Pt 8.944448429221309 5.141679993284919 9.710847901431833
Pt 7.280685945380146 5.2591272457255425 5.691021792460855
Pt 2.528367840150238 9.324467926476714 4.691679599995514
Pt 4.30849405170295 10.10242737056241 8.86334070343527
Pt 8.189999692034322 7.181596105088325 7.250934262319485
Pt 6.983040905232205 10.305373592004937 5.138712796831536
Pt 8.669596527696756 8.931134621704008 9.181941108136987
Pt 8.810268439830196 8.59027947545703 4.286455676716589
Pt 9.997216679943469 4.615106985115349 5.667178266792375
Pt 10.475952681638162 7.23355236545869 10.118315441915989
Pt 7.196182579419578 9.566456608862943 2.52419571283267
Pt 8.59490028867378 7.332486187083238 2.0285268772825873
Pt 9.012262343268306 9.665498270851757 6.640904364622823
Pt 10.554877779199655 6.007164464935529 7.785251105673578
Pt 10.013975230143846 5.4757538778631085 3.2735691529581095
Pt 10.997763281590647 8.513218922953621 7.819769638805958
Pt 10.998042493892617 7.836982276188425 2.9548205530060456
Pt 10.66872210759812 7.251915347710481 5.453314373952588
