45
Energy = -227.72735672 eV
Pt 7.720525655002224 6.9267135491468 5.459865446780153
Pt 9.325723313276669 7.506159347962073 3.065564919153969
Pt 4.00107799153016 7.559635618284675 9.00815578425724
Pt 8.438197392211041 7.514487106663207 9.699699790160965
Pt 9.300343809199648 2.8195727615905017 7.922645870409767
Pt 4.728964760639137 2.7264787593014104 4.705450669748537
Pt 9.784565867766124 7.000484357047658 7.46960501968817
Pt 6.516339470514826 9.783252139262773 3.248127185646602
Pt 4.190001020150715 9.913064172827937 7.884112920083899
Pt 2.6462731783920335 7.565228552919268 5.22630839600569
Pt 3.38884787615512 5.075620435273267 4.890345650801418
Pt 6.744027263505779 7.165201784759311 2.898694802238785
Pt 5.24453755660433 7.711920539301738 5.464070022500248
Pt 7.467679045513606 1.2290155924969923 8.683577718030007
Pt 5.126379089445742 8.611007516003946 1.4048479365085602
Pt 7.775533305776641 4.996393896744009 7.689499919286241
Pt 9.694032479872098 8.65947371072896 5.4306314751146365
Pt 3.8548111754237615 9.521220218912859 3.460017764447519
Pt 6.2623685606186195 9.0712903644715 9.395490599938203
Pt 4.101220393685481 6.883071625386893 3.119134343482914
Pt 5.868632846293019 3.260039870909107 8.851729528444725
Pt 8.107364161080353 5.513580508944016 11.415233183572893
Pt 4.026271595443671 4.960454392091849 9.401560355895501
Pt 9.715402218861993 5.1649992917321885 9.401725984237586
Pt 2.6390129731098804 10.160942611511086 5.6699589595953865
Pt 6.702377135927277 2.6591426487475673 6.43341146305961
Pt 9.064906513382653 10.069516202616851 3.2235953775190502
Pt 5.98504182092003 6.6258976722532505 10.384817506529535
Pt 8.328637855376511 9.13461104625165 7.647441796376944
Pt 8.335589678347493 5.112868336299351 3.3431820622931347
Pt 2.021042222881552 8.459555656041688 7.5926522548136255
Pt 5.651255607777723 4.766168258973768 3.2997363850837367
Pt 8.062928607050457 3.1889121736993946 10.292338917416973
Pt 7.262354961276492 2.7737182366496356 3.8494164034775764
Pt 2.6994438039289013 5.9172221840211545 7.33143170207763
Pt 5.8394564054721005 5.22082484400165 5.967228017322969
Pt 7.834646448064557 10.563867882590166 5.420031809002975
Pt 5.2316672395475035 10.389187501600919 5.529712136196628
Pt 5.753754839092344 4.189673134359431 11.29059601197121
Pt 6.549300623358042 11.063865414957895 7.657899878434305
Pt 6.20878696087159 7.067070079510807 7.732851239752105
Pt 3.9933417352976894 3.6686702564166054 7.095840456360187
Pt 10.92513096780358 4.625806425285716 7.087574836126629
Pt 10.285433413013688 6.045930877555486 4.996477847127907
Pt 9.102514419260451 3.663926702616281 5.463453911750644
