41
Energy = -205.04219013 eV
Pt 5.446730612013987 9.035433972254468 3.8828023135275864
Pt 9.842846296983629 7.604515997052323 3.710505526907632
Pt 10.600545278344915 10.024626759222183 4.310903196543062
Pt 12.379983480986574 7.951811499775901 4.180518488563141
Pt 7.361555331867252 7.127065651843681 3.3841912510100274
Pt 7.973445961487296 9.702666654111402 4.009560779999012
Pt 4.757015071988131 6.615881999237346 2.9887040672169816
Pt 3.8350551790818317 9.819552015458592 5.889038569113096
Pt 8.979627519410226 5.148583775643755 4.143351409922789
Pt 6.419434010048362 4.781418874875129 4.2761021439570115
Pt 8.157720954472891 7.674846231915151 5.959661916080802
Pt 11.356731297777477 5.712893082770722 5.101218275322384
Pt 9.043356097594868 10.29803874596524 6.417117146281325
Pt 3.81742378448598 4.838146047625011 4.555584692224359
Pt 10.871674698472582 8.268899572156206 6.26227696261314
Pt 5.604131978462834 7.156716517332248 5.634376204529525
Pt 6.403559903381402 10.243531189260201 6.059153865743986
Pt 3.121384379789825 7.421323055252585 5.028999650465292
Pt 7.8672051893161505 2.624225884847617 7.183885576370636
Pt 4.81914080162108 10.260148910227842 8.23284043484151
Pt 10.017668743997968 3.7037138941317984 6.124373413907366
Pt 7.565422436145427 10.376233615621402 8.514856248827265
Pt 7.771572827998036 5.149295902570849 6.555045275475215
Pt 3.4981740606823717 7.885955712660863 7.652843261898409
Pt 6.413627225816576 7.926087794405949 7.965845831666709
Pt 10.200442922759427 5.983285065105898 7.427645021148091
Pt 5.465547375679858 3.1839335452196362 6.175623665011968
Pt 9.309899791685053 8.316235896446106 8.31973808548529
Pt 5.495418364605034 5.502814351547693 7.624849973617282
Pt 2.8118579471216654 5.498556641467736 6.926300467852405
Pt 2.8323783662697664 2.99414440125579 6.001857862311666
Pt 5.618244000486272 1.7691286732493756 8.396568499709455
Pt 5.967280359485891 10.404173024958245 10.58193322902652
Pt 8.232416195185186 6.030734625920909 9.131765354169794
Pt 4.695053487595193 8.204182698601379 10.039809992483773
Pt 7.499322653461936 8.285600583078107 10.320555034866665
Pt 6.825948863083861 3.8516565729085017 9.249590918113306
Pt 6.123686725012898 6.070513504508882 10.705345439593103
Pt 3.646666984183037 5.922574601946674 9.434659364841202
Pt 3.594525058569753 3.3935546703454973 8.397138703588436
Pt 4.695483086562258 3.8218521825337732 10.677952304116726
