45
Energy = -226.55425281 eV
Pt 2.3422483853678973 5.937979517142475 2.288449023940321
Pt 2.7474922776285324 5.457136104891752 4.79417586627845
Pt 4.305780110731313 4.261589689899867 2.927967051952066
Pt 3.7043494138879316 4.868987343075063 7.1592487174103185
Pt 2.316654772742813 7.913952399266231 4.025087411658784
Pt 3.706727628161589 3.109209083641306 5.240198725712857
Pt 4.6443914948206215 6.94985111543151 2.999182862860623
Pt 2.6882619900262053 7.28264958727869 6.668254481314577
Pt 3.660345018078903 6.743836310933421 9.08745165274581
Pt 6.101442687338622 2.853991877466769 4.2083736008627755
Pt 5.210426708933533 6.760034158878969 5.833912392034659
Pt 2.3794057638302 9.809470388206952 5.834170761724951
Pt 5.8949379604797905 5.154060824602403 8.5986111179004
Pt 3.0959174671447327 9.278619167856363 8.244162733421897
Pt 4.6295080741506505 9.111139694459228 4.534652310697353
Pt 5.672067717810263 3.008167943855445 6.873891467235002
Pt 6.6273149354194585 5.366438171820527 3.546057906554017
Pt 4.351213338256316 8.864779240607103 10.485800466645564
Pt 5.772071697198983 6.676757933982327 10.788628697606475
Pt 5.875342272356211 7.736577282569929 8.128501444803414
Pt 8.099153667970931 1.2330029561189257 4.647242249954609
Pt 6.8647299676320666 2.766134477494912 9.256484167000124
Pt 7.850469841966316 1.7142870444308012 7.116128342277293
Pt 10.589901736215637 2.2369191744196977 4.62475488771298
Pt 7.26398798758655 5.077343320612211 6.16779985699559
Pt 4.609141285846232 10.999310442715394 6.306140717710765
Pt 7.686270215827681 7.654202571388372 6.2668178805155055
Pt 7.475165435525696 4.727144663057078 10.87286454236088
Pt 5.4509250774728715 10.397797844005632 8.706401317857813
Pt 8.575961107934251 4.749212888683621 8.590118531917447
Pt 6.886172145515268 8.02832132622596 3.7183051537157548
Pt 8.598288090193048 3.753420427173025 3.931055460912389
Pt 7.030583791252335 9.018359329747465 10.243879209934057
Pt 8.745807603554658 7.39695516900332 8.779533193284864
Pt 8.970432497417933 6.384782338204662 4.027309996483601
Pt 6.978553471161634 10.134314970468282 5.312009327455512
Pt 9.516666479950342 3.518865187259137 6.588592288046801
Pt 8.042975207229862 9.864672411460731 7.953794054341021
Pt 10.194210782569778 6.0590796500055655 7.028732136964215
Pt 8.388865073374822 7.097437971053553 11.339474806736648
Pt 10.052996119612146 8.723829109289827 6.8330539336274825
Pt 10.996914412967127 4.7894235076616 4.811851848175925
Pt 9.241662655426802 9.05626985925185 4.389085486489416
Pt 11.243446238993696 7.345165923725479 4.922510952962639
Pt 6.7951259289262955 12.002826137164787 7.173587499694594
