48
Energy = -242.61209612 eV
Pt 11.994581659271374 6.160205474571454 4.029647210701777
Pt 9.704603992560278 7.381683274484114 3.873714697434886
Pt 11.10458045534699 6.177566914229931 6.447898487136555
Pt 9.81223161487836 4.700879820580196 3.7675452844104718
Pt 8.213914061510954 9.393709895655217 4.368974889918387
Pt 11.69440657481389 3.8089015805162236 5.325511329034558
Pt 9.278258338350836 8.065006663741633 6.477714758570539
Pt 7.70476609901148 5.8809843389340335 2.7902498383369063
Pt 6.726535481794059 11.544546196878688 4.839387153529813
Pt 8.655541978369737 5.281194071216247 6.095796038103701
Pt 10.301417158265952 3.818128633075937 7.529523351040156
Pt 9.464927857686408 2.410551928785493 5.231439314995087
Pt 5.1515174600304245 6.9481750235944615 3.1905232713462772
Pt 7.723952653666433 10.148673704923626 6.86349916061925
Pt 5.753397219112229 9.48465714150128 3.431671024215715
Pt 7.545004618552387 3.421771978418667 3.7315518015366242
Pt 7.072316330730565 7.04528495758556 5.0296801244637495
Pt 8.181968967164151 2.2071022902292636 7.433200015582363
Pt 9.522157328965628 6.247376598302044 8.54569437909398
Pt 4.109617416222061 11.108326388223821 4.80613356520776
Pt 5.255885719550768 11.332263903000108 7.172580677018709
Pt 5.537407754075939 4.4918906651287775 2.475246124749889
Pt 6.7989983138129775 10.693413909609891 9.235040832675509
Pt 5.566104541635605 8.906800733125067 6.019741906837638
Pt 8.032275841178096 8.402342262063103 8.796862764304198
Pt 4.382045521828796 6.563305977602353 5.936906611501703
Pt 1.7033408872842906 6.703322661369768 4.043544862809134
Pt 5.389488844912825 7.62631324457882 8.202523503035975
Pt 6.203575501738315 4.646098164906006 5.920971589665731
Pt 3.3388242960423127 8.63803013502672 4.31330895076415
Pt 4.957242500658231 2.7930003186229606 4.430677365946374
Pt 4.301707627279309 9.90191467140713 9.172900960473738
Pt 3.036479076324521 9.852335534379737 6.823589950396842
Pt 7.7413422111590595 6.336770534107287 10.549835863582008
Pt 7.147514994200635 1.2650042692342478 5.119362084121328
Pt 6.867747972141407 5.516113293836029 8.23061571004494
Pt 6.142239340162055 8.521120419324047 10.627607046451253
Pt 5.56585875539992 2.298451343987101 6.950692048275718
Pt 3.2080378624993453 5.97055322190373 8.327768421031111
Pt 8.493178638761764 3.937148418509101 9.42175745220103
Pt 6.565735414037846 2.1867665830854914 9.446875348697171
Pt 3.4535671547179727 4.941824388484846 3.9396759826599768
Pt 1.9221608641536323 7.505453506098252 6.4498405928760665
Pt 3.5845969310611627 4.059753202480098 6.46970903820224
Pt 2.2768730139913584 8.335217265409835 8.849615236561522
Pt 5.000926337839904 6.122935821587335 10.349073579552794
Pt 3.5523819333047113 8.158501932331262 11.10254175948502
Pt 4.807193645036816 3.9790119204011023 8.844674131119
