44
Energy = -221.4742067 eV
Pt 9.735235775632088 7.413608496141004 6.071542314156521
Pt 6.194069392734436 8.294249025392253 2.6845161087674025
Pt 7.131982138282362 3.0073899094171392 7.340078072022144
Pt 4.630361383433147 3.274611275573584 6.436606958239735
Pt 9.104159988230474 8.425200095948394 8.437187791523014
Pt 2.7060763339186353 9.071255087560305 9.375240888300079
Pt 7.5735942606827225 10.620690896202609 8.48098277835143
Pt 7.9842914112873276 4.5252637515024485 9.394025150596296
Pt 3.0191880296138307 5.3966324314835825 5.594436370540764
Pt 10.701628905942101 4.919204183497725 5.9344321456426385
Pt 2.4448539173123276 7.996657087484567 5.150337261087887
Pt 4.54961044757279 9.412492874831853 4.513010170599129
Pt 8.264820942884437 6.805623947605203 1.7935620050845085
Pt 10.396835943474372 3.7155162714890024 3.502021187293936
Pt 8.876387005299044 6.722039057095304 10.550525217749644
Pt 8.67220036266514 8.470063643420996 3.8758475388677613
Pt 3.7089663336415715 5.410394588319831 10.598569455312576
Pt 4.735325249209055 7.564424666919128 9.814611909704611
Pt 4.182190770586793 6.822113628199854 3.683958261264852
Pt 6.899891317947007 10.429388218641048 4.059258313762528
Pt 2.9900700868049426 4.685892097767659 8.122445205955117
Pt 7.826029019565834 4.632879189532162 3.2639654192874032
Pt 8.242394573155476 9.563789276323597 6.204325883479847
Pt 1.648449363432718 6.547327633977031 9.506088968019862
Pt 7.095043709760615 8.68354518681032 10.25084629676619
Pt 6.31743846793258 5.826021256687212 10.900826002898976
Pt 10.134449053907142 5.985739223117713 8.320569358116087
Pt 8.451375016082265 1.983046844246694 3.1673291394555734
Pt 3.369211747670585 9.81452679893982 6.875815619229982
Pt 5.457637582351318 5.694949215729765 6.584623941098431
Pt 4.601275496625518 4.198811599613579 3.8629164909694285
Pt 5.827643563710474 5.707721111858887 2.093893245071699
Pt 5.758974621509937 8.258313519248407 6.54103270947668
Pt 9.953798653667597 6.218260134813815 3.7378618057794006
Pt 5.390563554326091 4.171455862502521 8.93705305644697
Pt 6.532916915096229 2.7804987981893468 4.686528418355383
Pt 9.751541754008226 3.3485881274530245 7.947387223634628
Pt 7.025267909413261 6.88399070356163 8.302871149841062
Pt 3.235286964698601 7.24993241166098 7.539392787603042
Pt 5.881299687408672 10.877602616461635 6.448892389744559
Pt 8.099802348961694 5.318966881979339 6.482819514506507
Pt 5.1424313651335725 9.964217935680026 8.88847494435229
Pt 9.073776914714681 2.7785188419403313 5.552112724925901
Pt 6.890710620199968 6.737644495665681 4.7002367066043815
