45
Energy = -226.96342726 eV
Pt 9.806599270925483 4.16905237323959 8.766196552299869
Pt 8.286118984881243 3.4587035979656937 6.61304894281378
Pt 8.108477477288847 1.9894848864956045 8.773802891563834
Pt 8.386243825073729 3.448973698964029 10.995269696613041
Pt 6.173375607656345 3.334894962497322 4.962025146365978
Pt 10.318005375934982 6.760055528664293 8.510767610117743
Pt 5.943249111364306 2.605724341349751 10.193058945321068
Pt 8.98677781461989 5.969139466934839 10.676206050990318
Pt 8.417827697904007 4.76968805073418 4.369391613157458
Pt 8.339936670674273 6.957454803626486 6.138098503342309
Pt 5.776169173395452 2.6462567631498426 7.4691679032930764
Pt 4.583738894455628 6.936112070509557 10.13716190050386
Pt 7.313769736214568 9.754474962110365 9.291239900826247
Pt 2.996992165909792 6.391820373060526 7.927095481411703
Pt 3.904261254071779 4.377831890305434 6.419070548698185
Pt 4.549749792279785 4.517052190466035 8.98228134295911
Pt 4.203270926705817 4.734672149560645 3.7935473110591387
Pt 9.335034302197943 9.177772109115697 7.7134094107320745
Pt 3.701602850456964 7.177332849778513 2.683767016547117
Pt 6.23970178487343 5.14941728339137 11.08223297018864
Pt 3.07491197319091 8.823423903935272 9.299505874972294
Pt 6.186057697585135 5.542341689366755 6.517924028426843
Pt 5.227093911032131 7.675575642825594 7.623840023121347
Pt 6.515898287635729 4.466929114963697 2.5394421842634807
Pt 2.911831329642052 9.185881918848677 4.1860435909218845
Pt 3.3451941771432474 6.765917348276792 5.282231545168686
Pt 6.100858813140663 7.010091715510627 1.6077887992403062
Pt 5.332399927728792 9.19901162390394 3.0976444448535148
Pt 3.049668076416673 9.02157825933387 6.728268465722468
Pt 7.241108904524099 4.6390047612741006 8.768970531160646
Pt 7.524550671249388 7.200800524747704 8.555142342470727
Pt 8.580263193711499 6.117381795133615 2.054775529823289
Pt 6.927367830531791 7.704507685499108 11.02033376243862
Pt 6.091311581843759 6.510291478430204 4.141186440089672
Pt 6.434022101653581 8.571438327839099 5.618907857673802
Pt 4.8435679114342225 10.576619493153762 5.41782761643105
Pt 10.300017416025646 5.227923358766086 6.331263578183174
Pt 5.037588732032109 10.214962320032337 8.16503483418085
Pt 7.878029277369529 8.403264399677989 3.1044665949026258
Pt 7.2160354839288745 10.76653859178118 4.107344460855532
Pt 9.41234426729207 8.52253049862627 10.326281462582154
Pt 11.073549171613962 7.885148389950793 6.231521617917678
Pt 9.977792327271537 6.953815829983321 4.078270662057773
Pt 9.299226459953179 9.50154861489393 5.094157959129971
Pt 7.266254161801422 10.707824913608897 6.776099195629946
