40
Energy = -199.81074481 eV
Pt 8.547564110707492 3.5843695319437625 5.702714217807128
Pt 6.891163351158782 8.205554321258463 4.131784512050114
Pt 2.4418262734210026 7.9104463279104476 5.660179521005323
Pt 9.428873875039777 10.733729854419481 7.0475310031107234
Pt 8.852803704246996 6.25677135088942 9.792216343430514
Pt 4.09601779672858 4.1954712441090765 5.723866614887364
Pt 2.1663185198034456 5.51604940755669 7.197826477080555
Pt 5.124383631501934 11.30268014649841 7.068142455977146
Pt 6.2582332844677415 3.462741367686522 4.361071341260486
Pt 7.18597621753202 10.37012723429112 5.694380215135591
Pt 4.791731643031334 9.233208029207681 8.70170255423327
Pt 8.522276365594076 4.010329736415264 3.075807248649198
Pt 6.886200226548643 8.077555868259667 6.987102743003167
Pt 4.2108342417638465 4.39953463730436 8.369454367211596
Pt 4.473195492212682 7.03839457584981 4.0677619741232895
Pt 2.855083441366053 9.990103440464901 7.135882240642336
Pt 6.9152957166593785 8.147742276430245 9.897327423570225
Pt 10.769422464219856 4.360533617954706 7.15882437065148
Pt 9.218908801754354 8.688562848428056 5.370995139142773
Pt 11.072345174567445 6.610022003872523 8.453252293448946
Pt 6.590594398195202 5.815353325859446 8.267101519366452
Pt 4.466469313402994 6.860228226784891 6.971827545097463
Pt 8.895645422169302 6.2627012354736955 6.943243117190452
Pt 7.195352675187189 10.327956416630599 8.421205950667451
Pt 6.241973214896593 3.261223979578794 6.995917220882217
Pt 4.778846615482933 9.283551574572948 5.386566071084206
Pt 2.470605143460467 7.751639622009098 8.508553302581516
Pt 9.231778356018355 8.640370019963067 8.674889394295402
Pt 6.576372746972568 5.806955365845554 5.645043476170448
Pt 8.517321965873895 3.8264769546903774 8.349862265644507
Pt 11.283133800669694 8.876886530999577 7.080196697092092
Pt 6.563729475523559 5.798618199534406 2.9948469604003085
Pt 8.916896160436359 6.448877885726023 4.044141574184936
Pt 4.5430176448866995 6.835336817777071 9.815297941659805
Pt 4.208856098573987 4.5806837013084545 3.0983321387060148
Pt 2.25425643550124 5.592657413644164 4.539348939765707
Pt 10.678347489267313 4.46959920499366 4.502844026894827
Pt 11.123529948151756 6.752154506850722 5.619612291670431
Pt 6.590098482575036 5.688960649611278 10.987044629342483
Pt 6.287991053693036 3.507681009544448 9.688327917706477
