49
Energy = -247.70245831 eV
Pt 3.747346292522001 8.235283184003775 3.685034368830494
Pt 4.460895658434306 10.309820129839785 5.181635740128438
Pt 2.3908008678642867 8.77306872793132 5.938867933490312
Pt 1.9107290578861136 6.472132871556317 4.679130155304626
Pt 6.12219124214799 8.456822982690824 2.630237367529479
Pt 3.291974796818449 6.053614090639027 2.3438380754666523
Pt 5.951988815446969 5.845736821871348 2.426385184425344
Pt 2.049432403396483 4.032183774629395 3.515256168387969
Pt 5.96727779578672 8.127196713790084 5.214635202592396
Pt 4.219178246437511 9.484501221620038 7.738458564449587
Pt 2.365107810556138 4.297726615327354 6.1124979036838045
Pt 4.1318836296358885 6.92674574860962 6.474162943434592
Pt 7.0936631463416875 10.313581944838058 4.158265880494409
Pt 4.429699833841476 5.182710081300491 4.627850128481143
Pt 4.533150636159588 3.585584552814124 2.515330461003875
Pt 8.300521096005504 6.8209972401377055 2.9091981901659127
Pt 6.9579342391977175 5.794197649117983 4.867738923857334
Pt 9.407951717344684 8.924185353496425 4.028218371036233
Pt 3.946162081039977 7.117763351588686 9.215569586905834
Pt 3.9186062008345006 2.4647102689154035 4.812087272933961
Pt 9.061641313002035 10.846996877530374 5.89122116539821
Pt 6.278632009700108 7.670314604374135 7.885461354445552
Pt 1.8367996569809533 6.520749429292614 7.497496746902385
Pt 6.561226872841074 10.51523617881595 6.776238638409705
Pt 8.300525513472298 8.220013993695039 6.254982192051117
Pt 8.83113023037909 10.061154890670403 8.382891477750388
Pt 6.508108930707898 3.1183135250283556 4.302985209357304
Pt 3.287606333923747 4.575522980331551 8.55369830985614
Pt 5.8686972912978215 5.115686553173092 7.2417901784224625
Pt 8.913870161889083 4.251465889710043 3.922593224175735
Pt 6.286184287602657 9.894502802016207 9.330578884956608
Pt 5.527730400714454 5.026987136141898 9.92797250664497
Pt 10.809809290301285 8.77088503445601 6.225564381131796
Pt 3.18382620090932 2.172944106521462 7.289693250218485
Pt 6.3047065583997615 7.4223831036949655 10.503982222001602
Pt 10.24204389575096 6.4982069873142905 4.71876286175648
Pt 8.68050724584763 7.398296657748702 8.88655516005126
Pt 8.312271296056352 3.0744900230490235 6.291772750867045
Pt 8.445458001571074 5.674749464183523 6.911500865963883
Pt 5.7809670173436265 2.4551833389500515 6.738648884774462
Pt 4.854024805081279 2.5797698285554462 9.215772993564865
Pt 11.024611073110123 8.540640037337207 8.816572305221737
Pt 8.348882633610437 9.148805149969164 10.771406541034274
Pt 7.295610276523451 3.2754094536314993 8.783515538099488
Pt 8.140865104253015 5.322318199510784 10.272949413678806
Pt 10.688740826774378 4.167524345369425 5.892564373680388
Pt 11.050324541326106 6.329958405715789 7.3173742272095215
Pt 10.721206931010485 6.090612073717523 9.952315590293711
Pt 9.75147177020322 4.088288157931817 8.459039217920488
