49
Energy = -248.70849609 eV
Pt 8.825478831491658 6.603288139224907 10.252267756046402
Pt 10.117420826170658 4.889745568221238 8.233255340565577
Pt 10.53633196802939 7.603455514623979 5.516446914149428
Pt 9.04421951708043 3.9649281878843787 10.687281465051296
Pt 10.041216689054282 7.495769341250112 8.096232396222446
Pt 6.948547602334922 5.300355050790602 11.623713373694
Pt 10.103672698189806 4.817738322345855 5.567988222744488
Pt 9.445905568022358 9.716365624286531 6.8000747593365345
Pt 6.229685236314222 7.61472349835862 10.568255335005494
Pt 9.309929844048016 6.478945882837699 3.526887779036919
Pt 8.743606509523712 2.6071239103426276 8.46829213305556
Pt 7.542264958373168 5.07888465618843 8.545383984579496
Pt 8.29433456517139 6.4608434306255615 6.368009546033473
Pt 8.014968407669016 8.849732148658513 9.021382782281767
Pt 7.825204508603787 11.333794317431133 5.28615856842055
Pt 6.552526776480113 3.1060978068724823 9.944618345174275
Pt 8.707412149478563 2.418130090670836 5.898122089673383
Pt 7.390986226255078 11.142880218193126 7.924939008610843
Pt 8.716287445111277 9.10724189939574 4.161205609401403
Pt 5.02302121088584 5.32296630113648 9.826765210511589
Pt 8.447688474095049 3.8670775104375648 3.7186699726381587
Pt 6.834712279100517 4.237198951773948 6.257101202823979
Pt 6.321259637390072 13.044599811542481 6.551888241951825
Pt 6.0614260444072245 7.141374042784304 7.967127764554405
Pt 7.138527564792002 8.719823140486 6.200072337970165
Pt 6.377666495936851 1.9858455562727773 7.370190144767138
Pt 5.39460302986081 9.601658456316734 8.813274661629636
Pt 5.216148657591839 10.75605806452696 6.333260502670312
Pt 6.226956667960624 2.342952710137358 4.658417333810921
Pt 4.599585172718376 5.2322497859559824 7.006857017806145
Pt 6.106948393714305 9.768942243774035 3.881354270921668
Pt 7.093006781693637 7.740465153041649 2.511697477846951
Pt 3.7565879179359367 7.56931321836904 9.332663318776566
Pt 6.7264026248860995 5.931839694185534 4.358828975311032
Pt 6.375284386134224 3.233967527800079 2.191675218862122
Pt 7.871100865996819 5.358253233668147 1.617682684394448
Pt 4.2694587757959495 3.123798252042423 8.656371169297064
Pt 5.00947358895376 7.395435848022012 5.574688197293865
Pt 3.359171499289857 8.88636987337466 7.0927122774428835
Pt 4.003180734687955 2.76606126781271 6.087270031304905
Pt 3.51232470195037 9.856002402947652 4.6379254909303205
Pt 2.0213407486508426 3.8333804383436862 7.601795795670008
Pt 4.4294885337859675 7.947415369503966 3.0503800164071553
Pt 5.321980088009028 5.653492351299764 2.151735748460419
Pt 4.239108294163299 3.718180829911426 3.6476444533631542
Pt 2.3853219084996895 4.783807935495076 5.192977309925492
Pt 2.3302510860142607 6.416458702182812 7.424354248374683
Pt 2.4771614530050208 7.420629256134487 4.956247329528895
Pt 2.829325071067753 5.824030176101117 2.876552364466322
