41
Energy = -202.18683129 eV
Pt 11.551903607751607 5.386405371508271 4.649458692501771
Pt 10.330045009361644 6.981231583040449 6.225835965535832
Pt 9.951992558661743 6.3848286731075 8.89330161718109
Pt 10.70953237432191 3.9224935876748948 9.33510085499753
Pt 10.960529433326693 4.528399313004023 6.947262120793964
Pt 9.104768597682654 5.407344624879383 4.06555120419028
Pt 7.528987894082747 6.751932115072447 2.604784229773731
Pt 9.343172719086091 9.168375247944573 5.231644257286977
Pt 6.890229711234177 9.619611594053787 6.211957380334539
Pt 7.521984279238266 7.232155100716445 5.296054028867839
Pt 8.678005678167478 3.822207809932536 6.048545843072539
Pt 7.393962863307709 9.22233818154415 3.5085878965820423
Pt 8.364171169428024 4.592594107293113 10.019134458623268
Pt 7.820279964308002 5.78724204869813 7.541917617116366
Pt 7.622171073548369 7.28187100423215 9.775700550395703
Pt 6.7066727763851075 4.308487659345886 4.408166204012121
Pt 8.663095947775387 8.373322537932935 7.6889585582848055
Pt 6.863284067835221 3.414255649788215 7.858685230261839
Pt 5.598961391997615 5.739676853755848 6.2410840103265155
Pt 5.112642277199729 6.298593989909968 3.28086152518798
Pt 5.626949241660356 8.359773455681683 1.7553744631437387
Pt 4.196548587507682 6.715500596728754 8.201127382468943
Pt 7.7197356050521835 3.599445364603033 12.316476966933534
Pt 6.802836583434228 5.939180956978669 11.878138752830187
Pt 5.4413492418769325 10.727377363882402 4.382543763930643
Pt 2.591186400309514 6.343712145798652 3.876582389730608
Pt 5.064029562975229 1.6493170010909675 8.442002147723487
Pt 5.918481820207657 8.815411232810371 8.439166512406318
Pt 5.898047355252737 10.90594569324362 1.8732598787220742
Pt 4.013777038570921 4.1286230364007395 4.206692818697956
Pt 3.5307259994408633 7.855805293440834 5.949209787066228
Pt 6.380505347123908 2.703344896266148 10.371919771912069
Pt 5.174980220396621 2.7210965575909642 6.001131265423259
Pt 2.9257183660633324 5.331218189561675 6.246986596682049
Pt 4.424301161035734 10.082049866303834 6.6781778540992836
Pt 5.150170781195395 7.520373302276613 10.563036116486638
Pt 3.7248678802313298 8.649186545816157 3.4305348476960407
Pt 5.289823239605377 4.976929525841106 10.09995645330247
Pt 2.3716510519778016 10.110798544054957 5.049865649438741
Pt 3.4281090400310688 11.115191104772036 2.8788341721922674
Pt 4.128099619826768 4.044639811898049 8.044677702262547
