45
Energy = -227.88010513 eV
Pt 10.607177116055052 6.600094534816984 5.50232520948646
Pt 11.524515639847527 4.314753917309392 6.5295674832740955
Pt 10.389716841627893 3.5653642676305752 8.796693911811955
Pt 9.489743739968757 8.902345805995887 4.761412076430019
Pt 10.69655299748427 6.12719058697686 8.206624094073913
Pt 10.076111789311783 8.453297331103606 7.304837103056071
Pt 9.194231923328177 3.2166238815440105 6.239419487694626
Pt 8.784258491856837 10.62026194581281 6.8114890572145
Pt 10.510464069979527 4.33894308366583 4.141403557868524
Pt 9.614457963038223 7.90574942454404 9.845723433597364
Pt 7.825804118891879 9.85858999451203 9.217827980989835
Pt 9.132343330952416 6.371146667678723 3.1270423538622323
Pt 7.409005832665851 10.625763467778857 4.650902016905336
Pt 8.790777553265144 5.334559291283522 9.963570170111149
Pt 7.865012498737971 6.993421162466086 5.2883875589240255
Pt 8.273329530289642 5.452467543168921 7.276480738239203
Pt 7.805980096142665 3.159649587150629 8.50446127753411
Pt 7.087250730980051 7.4254228240116955 10.263324593802949
Pt 7.514879951892143 7.834797003327492 7.674809086832395
Pt 7.56019313674038 8.463758130414929 2.943796022836365
Pt 6.224970462671963 10.183572774158678 7.01988396713025
Pt 7.922181683218626 4.157361108957787 4.092870219275735
Pt 6.485966655194279 6.006508972311301 2.8133090963309764
Pt 6.027364588277303 10.537597594983263 2.5049283708254944
Pt 4.7356862268587205 10.077146699767662 4.7511171267866965
Pt 5.925672181722885 5.281811837242179 6.158409211454955
Pt 6.628745143602309 2.722390841527054 5.971950649001923
Pt 6.273220205076876 4.880504924003192 10.034110559173458
Pt 5.426219984639395 7.639699723751012 5.187205121498525
Pt 5.210308026031481 9.263273279368875 9.35087965918092
Pt 5.2639862146109895 3.4485564346356927 8.124445147343538
Pt 5.303545611604774 3.916039944927794 3.9494319910518065
Pt 3.873967632265774 5.907066095886371 2.9654053056713905
Pt 4.882502476240039 8.226545100160966 2.625670500940744
Pt 5.064471445264145 7.134684122603495 7.685432249276061
Pt 3.6667915450914688 9.409616003120034 7.006383746184934
Pt 4.512081124057623 6.819656250258761 10.228633121851413
Pt 3.2133661511472864 5.275576826873496 5.36226904073571
Pt 3.80062551664499 4.190620298033517 10.188931978103213
Pt 3.932761715495331 2.803276557234379 5.948966722146962
Pt 2.949083006711493 7.872233995163277 4.765764548893087
Pt 2.6757062991959777 8.609228273566888 9.33600103110778
Pt 2.82694750485847 4.36090139355087 7.7394620154145874
Pt 2.440674359292662 6.994528364054322 7.197243292869678
Pt 2.061836946383381 6.053718976193198 9.592519732291706
