48
Energy = -242.26088629 eV
Pt 6.7759543154908135 11.139411586774628 4.944711422025504
Pt 5.828793810132069 9.25304898378681 3.485282390010257
Pt 2.4032040822812113 9.526109180705493 7.509378023180883
Pt 4.494974098684393 10.082278542029345 5.997494335339792
Pt 4.789215333413082 7.26909619701119 2.101756747986214
Pt 4.6599304051891846 10.003916916185725 8.711770349760954
Pt 2.305515452519192 8.185567602409387 5.295327565408212
Pt 8.3976798721484 9.72736723652026 3.327708248611207
Pt 8.881053010904292 9.680690481702289 5.9508840908683895
Pt 6.86595019570395 10.893200812967457 7.495301836908301
Pt 1.5042353424840968 7.0265845559924935 7.588743885353613
Pt 7.4890480260420125 7.420955339358489 2.396188161707307
Pt 6.628122612345064 8.405866129769523 5.929694873516671
Pt 3.056680168371253 7.769715887087897 9.505262278729129
Pt 2.617145656495763 6.330213365727759 3.3356930192226066
Pt 4.508584796314383 7.443583402246296 7.297115578610953
Pt 4.904330141350686 8.733011683636626 11.008122468576355
Pt 4.660448555413533 7.249318487838131 4.7034441614187585
Pt 8.852356613087208 5.1433460267485085 3.1008077218894545
Pt 2.8417977506683734 5.568172617745759 5.841755422239443
Pt 9.131007575166807 7.428605326256079 4.496229869281164
Pt 6.217225146670745 5.106528380926563 2.110543133542572
Pt 9.036071950579482 9.604938457020946 8.51836295901473
Pt 6.851017028542079 10.352737041858234 10.121527456992908
Pt 6.852766940465307 8.215280632150792 8.501418445156224
Pt 4.515104341447595 4.439296089517063 4.087708655704854
Pt 6.819976227674533 5.807885210123312 4.561427986896639
Pt 9.159950153032208 9.457840480736435 11.112570556947087
Pt 9.713284492500227 7.433747407437434 7.061905906649421
Pt 7.304403476033847 2.9046609258307328 2.7071362066219242
Pt 3.3530577340574514 5.233039667169023 8.397939398281155
Pt 9.843419667483078 5.174703852396636 5.600169488028996
Pt 7.330473558148021 6.117709519307808 7.145161096991232
Pt 5.327347896323444 6.337108030682965 9.85798422412962
Pt 9.705716227389653 7.237031868266994 9.746177929807809
Pt 7.313200109469953 7.648221798891213 10.974637298203316
Pt 4.162580388452625 3.446466804548251 6.498039820409053
Pt 9.283797303559846 2.852950826528231 4.432711058532272
Pt 7.474900562694479 3.7906853575113892 6.093229211399643
Pt 5.819624533744924 2.28622033831349 4.787346281634845
Pt 10.04136737253348 5.103471177730252 8.293430181562353
Pt 7.7991450823253485 5.361818045617239 9.66571681802365
Pt 5.7952670267081965 4.192710617515512 8.431897724405182
Pt 7.730457369237673 0.6870971151988304 4.020983818669138
Pt 10.396992658937673 2.932813891618373 6.888088995018468
Pt 8.254659388563415 2.999027123417943 8.493895538492815
Pt 5.9704358746409065 1.776219923512119 7.436760385114248
Pt 8.370350155025934 1.2583495341180866 6.469177453571703
