42
Energy = -210.57320286 eV
Pt 9.699846342109094 2.5318329248643483 7.8382231834149945
Pt 3.3640845811967774 6.004770373286545 10.820822691747308
Pt 5.550197379957457 4.693802662380431 10.109208307977875
Pt 7.47121446209284 8.872832934274362 9.337190786966772
Pt 9.662529782430777 5.134816697573066 8.006601366232612
Pt 7.951750266374317 6.2299122314328566 9.663581907418893
Pt 7.56505478955834 3.573910141854326 8.96276645646889
Pt 9.656540305786034 7.679500060658808 8.20188525639052
Pt 9.415144781819343 10.330634544581368 8.154592013835435
Pt 5.478834010681538 7.328181909926624 9.953875826667591
Pt 9.393241311791103 2.248240370516192 5.250998063959134
Pt 2.975719114508542 7.864276719721276 9.024822219704195
Pt 4.898233195113058 9.660917329436904 8.836286710335523
Pt 7.834441203403477 4.407014825438225 6.165104292297137
Pt 5.154521698411413 3.4356308336830548 7.677587079590628
Pt 7.2322211433628345 1.8927704938680057 6.931415719278838
Pt 3.496336879277763 5.372092308618968 8.316082954740125
Pt 11.010884391514432 4.120841516941069 6.021959482073151
Pt 6.945473504339847 11.25427895283201 8.388271156132388
Pt 7.40330772807028 8.1059189803776 6.900677701537537
Pt 6.251622441646068 5.9358352314655445 7.714636060176418
Pt 4.157021204537131 5.058042695602622 5.810185648268232
Pt 2.366959243899885 6.907078466799609 6.556660032733801
Pt 2.927691929050006 9.627942085872448 7.090274866273258
Pt 5.736684994949719 3.1788198552243947 5.092816452281661
Pt 7.285223197732357 1.2275177473667334 4.285600567707473
Pt 4.865477894610112 7.831487296460725 6.497079254876955
Pt 5.3527470956941805 10.6463228001075 6.399319472315242
Pt 6.542330541201691 6.4099705885875276 5.080495055228826
Pt 10.22337321318903 9.042017427882524 5.9870379344448805
Pt 7.966342322694324 10.479148380302872 5.991646244153401
Pt 9.382351682862394 4.49563745572418 3.9745723936827964
Pt 8.290002296205492 8.363976685482735 4.227414742571174
Pt 1.6429530427635484 8.761434320121802 4.90725884172185
Pt 9.619300095366462 6.5254912755473775 5.626138100730654
Pt 7.204935585299124 3.4889603210282245 2.968497517147802
Pt 3.261152256042292 6.85822240834997 3.995532407191701
Pt 5.11299154480419 5.174402266741651 3.2297296154290613
Pt 4.078452669344373 9.39807694628965 4.480374935204718
Pt 5.745088570413202 7.83079458619741 3.0990184830068657
Pt 6.406123042456578 10.247307871986264 3.9389436080309923
Pt 7.717751170215352 6.065489381367702 2.780967496828941
