48
Energy = -242.8594177 eV
Pt 3.7812033074415736 3.9873089591601403 9.095501934374498
Pt 3.96147923377716 6.169202481731017 10.462998915505237
Pt 3.0078730085353254 8.493730567565429 6.693847152808245
Pt 2.7870424997331855 6.216009195137035 7.972892351649656
Pt 6.643733655724922 6.955400854579568 11.182999512713778
Pt 1.882809746383968 6.426694945382568 5.487427262911086
Pt 3.463384769548804 8.511710886908963 9.251530623485639
Pt 5.784570663994449 2.2533043175025895 9.056995840381372
Pt 5.258368258972015 2.539234308260619 6.498241800199072
Pt 2.920895960645438 4.000886730051782 6.520739545603646
Pt 3.9002132598407444 10.736186333669817 5.280715602932166
Pt 6.242105203777031 4.611195414873297 10.046124480640469
Pt 5.371977643088143 5.008024630099257 7.353698017154661
Pt 2.9631496109116933 8.680027501502028 4.070575849427504
Pt 4.494951466649507 8.362077867045633 11.684377959292075
Pt 5.700785970492421 8.242513102102002 6.239361627063736
Pt 1.9736855224691154 6.612366036839301 2.8630091364244503
Pt 5.669407778474457 7.247183417142636 8.5749948229826
Pt 9.813473455527447 4.041834495013653 8.488808550844212
Pt 6.002665628742047 9.51409051607575 9.874260917075148
Pt 7.640349821706308 3.1466972282168983 7.4152010804734845
Pt 8.771473627513402 5.680959877414256 10.436839570250443
Pt 4.506754729398032 3.601844755061837 4.270626625599421
Pt 1.957575289289264 4.211551770129612 4.057928431804464
Pt 4.422294295444035 6.129268188682622 5.167578233464427
Pt 8.310929407233512 8.152446020702802 9.369100250582461
Pt 7.8235737303195 5.805794549800884 8.035590013958505
Pt 3.6971495980741476 4.745691419302904 2.0879767699772946
Pt 7.095871186791309 3.525739456333346 4.756432179044296
Pt 10.417907366133619 6.7258948490457975 8.562639601246445
Pt 4.717437983776055 10.333213132395056 7.682293043150544
Pt 9.520694218985254 4.04064384602649 5.758509872516241
Pt 6.924818072783279 6.074565651175405 5.569476149866704
Pt 5.573075303290481 9.280538798093387 3.8798604698775065
Pt 6.298130351472973 4.902760773569928 2.6468030242950102
Pt 4.657384007637921 7.052850731364824 2.7675857381412694
Pt 7.288815217813426 9.852357978697546 7.6185516247057645
Pt 11.721874119174586 5.010690945657946 6.962037287406893
Pt 9.385110874814822 6.661818340217646 6.023976212241556
Pt 9.66628783937531 8.992211983601667 7.266620317648404
Pt 8.823649279531761 5.022972932166311 3.381020919914668
Pt 7.222946469281055 7.317432833169667 3.248484638170223
Pt 7.987997031942306 9.203865438620564 5.088193455605094
Pt 11.833169476380364 7.569075808840655 6.430647232026455
Pt 11.287539384208724 5.472327326849462 4.357234657589001
Pt 9.731986552698359 7.541671583700448 3.604017161499357
Pt 10.679862656551613 9.532868659439297 4.949678674936541
Pt 12.404692360764779 7.796389458194938 3.8991217576540964
