43
Energy = -217.0454199 eV
Pt 7.603782815206748 6.302250024034384 0.9392052612787097
Pt 8.838247688874448 6.773066042014791 3.192373700293391
Pt 7.635692196660451 4.362267457296017 2.7424157040376858
Pt 9.007170116585566 9.303615109292233 3.894071340252949
Pt 8.827065210434865 4.880647505969249 5.075720697779531
Pt 9.719573328251345 7.352015579461299 5.546684326369426
Pt 6.8631476349419716 8.379614589381731 2.3855490777519543
Pt 7.480531973143953 2.645688754198811 4.685645149942247
Pt 5.530814550052502 6.067032540252065 2.53536890589516
Pt 9.502609862960353 5.628584114260797 7.519668731958196
Pt 8.20665549314167 11.588422883991418 4.909526750619337
Pt 5.15979975154036 3.659529843283556 3.53823735785717
Pt 5.073530842500899 1.4328138438883908 4.93254161814737
Pt 9.0449371897614 9.845606787061643 6.536714216138657
Pt 8.422118197826538 3.2849322506842564 7.149863505846856
Pt 10.386128542097769 8.112868662423164 8.001816234219234
Pt 6.556250564787164 9.65768220134344 4.662332468385709
Pt 6.655117156886236 6.817083674422659 4.829702214027897
Pt 6.0511813704439685 4.496983324484962 5.887739587082215
Pt 4.5164892274938 8.222495439735725 3.827586912248272
Pt 7.035735414821159 1.0192497979789519 6.692962738240331
Pt 7.602297808702052 7.642197982146927 7.1169813384295
Pt 8.418915500444534 9.558856498877384 9.07866922342839
Pt 3.7077907836984965 5.723031132225384 4.313241327609621
Pt 6.3422269501689374 9.944930232041225 7.441110239226989
Pt 6.725065265574852 5.415661568020467 8.202679213504437
Pt 8.739872343235733 6.993563895578225 9.747497514714315
Pt 3.319384503905443 3.3178346570101698 5.440137248142427
Pt 4.925773602993116 6.640029528343394 6.865144297733461
Pt 4.252002675010825 9.904400112911244 5.795900900940319
Pt 8.51318529922277 4.314224468794784 9.673540641421575
Pt 4.981437649014596 2.5452590073301775 7.3706296829476265
Pt 2.7792990718191644 7.744813104830135 5.758772235900821
Pt 7.0507889533534 2.170131132646653 9.066359577457616
Pt 6.225349474207864 8.137841516898085 9.430920023216784
Pt 4.215964827225415 11.289122504265215 7.940147063799972
Pt 1.740589998394347 5.343083417367078 6.039648327403081
Pt 3.8738730408683955 8.741603183256444 8.243473683121783
Pt 5.189807460411419 3.940629111991801 9.604861223354828
Pt 3.3354133547596496 4.5122603524975755 7.8638659310229135
Pt 6.576280276103444 5.927341750489041 10.840428411483684
Pt 4.246486461559311 6.424619805765111 9.606200907385128
Pt 2.0767102647223044 6.864875440052921 8.167519747504684
