43
Energy = -216.81266698 eV
Pt 7.858405548910161 2.831163877283448 3.3227850736136544
Pt 5.908564937535243 1.8790736511259285 4.686244857344903
Pt 9.661175815572424 4.317338462430967 4.478201427473031
Pt 5.5581849882746726 4.124163038967897 3.176195521275822
Pt 3.978982938315539 0.9342819803395013 6.046940817600688
Pt 8.021030804904976 2.9024686279341223 6.035019361107559
Pt 3.608587564294862 3.167457068248722 4.721008137941896
Pt 5.771828238996537 2.3853609492670897 7.3369023552198005
Pt 9.653778695391587 4.673447481134313 7.1481781500241235
Pt 11.273491555129871 6.051402168937774 5.502025198014099
Pt 7.829327020031458 5.437326193440261 2.8303460315159628
Pt 7.567210707539868 3.814517559028725 8.593059265481637
Pt 5.750799568406684 7.154747530750811 2.134852477202107
Pt 3.440197496154267 5.555964020762639 3.7746102400358095
Pt 6.401272980606047 4.901192007808696 6.551886003912052
Pt 5.807259585601854 6.310716629911794 4.526059484708845
Pt 3.1832193915873934 2.936865067589991 7.484499139330479
Pt 10.62927682812053 7.001727506796112 7.982377048853599
Pt 8.324479300581066 6.330424289094912 5.609068216977026
Pt 9.250179854716873 5.599247725039261 9.578228785982805
Pt 7.977165718742887 7.940416523435161 3.453179240026089
Pt 4.957630818874359 4.38563525819075 8.930767450777093
Pt 6.971225452350474 7.678589964822682 7.3527121635167285
Pt 2.5241305500117908 5.08313722160105 6.175660824175038
Pt 12.140358981285498 8.376860783334354 6.459189473890312
Pt 5.64225835656517 8.959335293384104 4.286000966662968
Pt 10.036272102183704 8.279306789352448 4.92397714884867
Pt 2.4040396913397974 4.992449248754178 8.79291608799474
Pt 6.70933776240231 6.267759782711812 9.54706624238555
Pt 3.425428731425676 8.073151208009694 3.180760587246241
Pt 1.6250150799152852 7.1737444539778075 4.930890140682372
Pt 8.64912901983399 8.17730960863095 9.317443508290713
Pt 4.6185963451935175 6.746768616320789 6.744070815839372
Pt 9.916558872562279 9.501697405685105 7.332982832067774
Pt 7.821990448714727 9.486483808147378 5.6387601927011
Pt 3.379265252927596 8.917604484304903 5.702578309227919
Pt 4.163279935692244 6.909192261463137 9.342117146792056
Pt 2.127827683459049 7.380653760643651 7.600736381163298
Pt 6.008953859318902 8.79953264251196 9.5268225194742
Pt 7.68264098550636 10.436275546888591 8.19085971290092
Pt 5.48166518658215 10.189430117844116 6.562739015922481
Pt 3.6427896118926535 9.383047211261916 8.315948266437761
Pt 5.32494068862712 11.281269285680638 8.916704241929706
