49
Energy = -247.66235095 eV
Pt 2.207346149618257 6.71840987737474 7.127843875089672
Pt 2.694355017076555 6.586434449646303 9.726685024974913
Pt 2.7581744719824095 4.240173732515949 8.422668695294208
Pt 2.001934045274893 4.29073188427296 5.843955522246531
Pt 3.2005940691078716 8.272643709395046 2.905271484815199
Pt 3.6375229940471723 8.659084766065698 8.298882022631457
Pt 4.553107291563979 4.726177404000099 10.237786888569314
Pt 3.889297370516621 2.5966153608242393 6.6741641648520345
Pt 2.8527448712062555 6.319782467810573 4.527867458135767
Pt 2.836615265335843 8.864758018068809 5.693508477772975
Pt 4.4793396457487 2.26798270637554 9.203696818316153
Pt 4.403898580059135 5.39737806946552 6.796430465535303
Pt 5.166632658873616 7.3383142072814955 10.12874255783555
Pt 4.1916655197418 10.51761890153253 4.034914960360167
Pt 5.055535824755847 6.056666785509015 2.8003445596920074
Pt 5.639278544223126 8.998730376480676 2.280775070163507
Pt 4.124935362374903 3.986373191383691 4.2478759137056
Pt 5.14366326664722 10.215811416478576 6.584469629702212
Pt 6.544506817839182 1.5671796217570466 7.681223850684284
Pt 5.151926658528867 8.121385942222043 4.780285118787551
Pt 6.3481865556870956 3.7363295223328765 6.467785769381665
Pt 6.389469673542996 5.468912823141701 8.477678838246907
Pt 5.529955352362091 1.7753582149371712 4.790939096468322
Pt 5.7648901142047455 7.635683863305432 7.258242171629168
Pt 6.367774992916192 5.866796191925703 5.07583794169619
Pt 6.89111131668181 3.248240340557055 9.711953601361067
Pt 6.793752041114081 10.460270684054391 4.409805370275789
Pt 6.851769146732415 5.470845433119262 11.299588149844714
Pt 6.2430510904893035 9.519663899889888 8.926467426222533
Pt 8.07767488248453 2.295463909960031 5.246357453536876
Pt 7.288701254450475 6.9551170314403254 1.7775857493208351
Pt 7.691807974445413 7.897287876031474 4.211966232502554
Pt 6.691413060467039 3.7884677762508403 3.4598379346438284
Pt 8.907704428316544 2.987606972047724 7.759925067171396
Pt 8.19672903971256 8.013425593152457 6.725693845804918
Pt 7.782058501894328 7.578145682130939 10.097587266913036
Pt 8.340278577429077 5.444770977585356 6.753202784906882
Pt 8.665786384646676 5.528337837684026 3.5230751922534935
Pt 8.257527776207096 9.514092416882256 2.1979809941853636
Pt 7.832258857900171 10.551631800504554 6.8446579464451895
Pt 8.852215113273546 5.090016286076521 9.656002495613318
Pt 9.964894494059854 4.119164908042114 5.31142179688177
Pt 9.370296700090996 10.061133318435811 4.554511484710635
Pt 8.92705091728641 9.650132967124474 9.080072445073899
Pt 10.230396314885112 7.733393033571097 3.6114520400749757
Pt 10.753758685974066 4.8983231552393365 7.864532609884777
Pt 10.048678370697667 7.330305228024155 8.617777318719925
Pt 10.566427647914102 6.74349820166566 5.952005525353001
Pt 10.374244865769334 9.43787921093588 6.848528559843016
