40
Energy = -198.41828458 eV
Pt 9.820686654823353 3.3731891176720636 8.11463086422872
Pt 7.680592052715924 1.8134356629470143 8.128316373824006
Pt 7.746113142505171 4.34279773011828 10.155427052254339
Pt 10.724631921127235 4.544798454022987 5.876184764744397
Pt 8.611836489892605 2.8810023258911004 5.826936498506046
Pt 9.499462463502276 5.850715266670972 8.816686762267558
Pt 8.90761651325311 4.690986626049018 3.82075153145376
Pt 5.542038916638041 3.196068328658879 8.896875167566776
Pt 7.357540551722305 4.566727923026437 7.6428229275909745
Pt 10.665490324186838 6.69983907370948 4.2022299189416925
Pt 5.938178982955262 2.5314747056771396 6.324316671047949
Pt 10.978676633284051 7.022545794475243 6.889914111710886
Pt 7.296610493210202 7.041474882000221 9.802820425980489
Pt 5.208372235324507 5.379525521648058 10.311647385784203
Pt 6.8391993014625845 3.0881656964828577 3.8651575666176985
Pt 8.680229294254799 6.07931989845008 6.054958779579586
Pt 8.844950096401623 8.20946994048004 7.982725920474667
Pt 6.157283215473013 5.424531332560148 5.446845010592574
Pt 8.199378116042254 7.471164801484652 3.4854495078534566
Pt 3.975586700223629 4.3029591189776175 6.9950936517444635
Pt 6.5437010196216665 5.536657235009804 2.898704700418116
Pt 4.038861808569234 5.838330886962061 3.988645308197219
Pt 6.889229350881787 7.936331988063086 5.9038938088507384
Pt 9.546317597353251 8.814686227812736 5.353940873369039
Pt 4.288456429314368 3.353975226999216 4.50398134831932
Pt 5.585139938530193 6.36131619733393 7.907658136297803
Pt 3.034197232275082 5.926529137156975 8.826531124100471
Pt 8.139719393144139 10.476845318742711 6.800699412142101
Pt 2.6298932450805537 6.408092625974659 6.206123513302398
Pt 4.597685255043221 7.96085410812283 9.776227916320568
Pt 6.482975343268887 9.228596670435035 8.451551725136783
Pt 5.613922235043043 7.9611432753663935 3.340828242999356
Pt 4.445489129098644 8.185065447306481 6.579924169688799
Pt 3.098689798478134 8.236454821473872 4.275775382912466
Pt 7.277759790355269 9.941603743518886 4.264170127302284
Pt 2.3971851217905065 8.409979716850048 8.087617839833994
Pt 4.121529908591861 10.361142478467407 8.588594905727925
Pt 5.592319636716306 10.604012448097206 6.303034240668725
Pt 4.619244976724527 10.356741742277611 3.880808567934817
Pt 2.9786816503552944 10.254385881003278 6.0737689982431515
