47
Energy = -281.05295908 eV
Pt 10.246531543967802 8.878421991341952 6.953544864968887
Pt 8.322729605361474 7.736902441880411 3.0197625028936135
Pt 10.267630638907876 7.352226606235978 4.906317969558753
Pt 9.154889532905583 8.697163522465075 9.480845896418932
Pt 5.924895464084288 7.211204849987172 2.2334373690766385
Pt 6.30759556047061 6.424001879568949 8.664122793604296
Pt 5.893164682325865 11.26061565255329 8.230697813849986
Pt 5.5407247372597475 7.646197590642315 4.656832863695063
Pt 5.687894267489563 3.821198957000897 8.788271257356884
Pt 10.957762690159006 6.214265895908869 7.112872436181953
Pt 6.619810460165006 9.59496471685824 3.440326291144403
Pt 2.578551599882583 8.03730840784153 5.827050872305215
Pt 8.187042074561948 10.224002196763772 7.643073360555511
Pt 2.9184181951632264 7.932176461475469 8.587777354858435
Pt 9.716382955750367 4.848916466167998 5.376257002659844
Pt 9.816074619592595 4.03632165485751 7.879172349428683
Pt 5.887742580183901 2.6608627282949997 6.478795219538296
Pt 4.499461895707418 6.787658697171809 6.911594156109271
Pt 4.303183680087815 9.536050036960065 7.127791806250066
Pt 4.010864865971998 3.108527513047619 4.704402878857561
Pt 3.799156144901989 5.544126659988964 9.226386217535412
Pt 7.5232100947033045 4.746076458754212 7.068821400784452
Pt 8.929223489531177 3.369138187761012 3.4813058801938586
Pt 5.720336975791448 5.153874327530627 10.972368523118547
Pt 3.4514022348939637 7.42677206460875 3.30234857205279
Pt 3.1521496826223463 5.612663479372252 4.979302642889547
Pt 6.240893943313761 10.607140463477219 5.756417641119331
Pt 1.9907237104154907 5.888842622783888 7.358790633071511
Pt 8.679171564762308 7.026372622230395 7.699962705404292
Pt 7.6433278066418175 7.032921609202424 10.732117949956146
Pt 7.365061446485115 5.318640876099423 3.0992372183294363
Pt 6.649956708363483 9.074501799550433 9.401436777953679
Pt 7.737502659802074 2.366728417411875 8.31247824010876
Pt 8.40325139396617 9.194165174016181 5.219492465605311
Pt 9.981865415180653 6.1281647795362515 9.636168275409092
Pt 9.926478112260101 5.716037396588585 2.9388606568598465
Pt 3.8664484478912815 4.187741363750687 7.020146352827391
Pt 4.9162033420783855 7.538378284580775 10.519627578955603
Pt 5.713584974562462 5.1067120576399185 5.314042061388178
Pt 6.592751264002592 8.347831045470977 6.918183408610963
Pt 8.443014045587947 2.6671172256210873 5.86862703875839
Pt 4.242482494088637 9.8162055819296 9.645335624392716
Pt 7.836551103846324 6.6260405086743575 5.283936695745249
Pt 7.979103892072464 4.651393592293337 9.66082903112719
Pt 4.74994134912875 5.04242688592828 2.9687167151850278
Pt 6.454778327809545 3.064232609955774 3.9433024598672897
Pt 4.125318273602154 9.692006186522319 4.60405072174147
