47
Energy = -237.16152545 eV
Pt 9.360665796340228 3.371123634125486 5.170646302336102
Pt 11.015831335580396 4.960597494927546 6.389521653598369
Pt 8.582596030593653 7.938538756349418 9.924034059283063
Pt 10.421220305176147 6.818269445158742 8.165298118662854
Pt 10.531461011837717 6.3431489427943175 10.777290878666884
Pt 10.567940100074416 5.36810206527154 3.856423752053677
Pt 8.197184163868862 6.034850067770425 3.233637879053658
Pt 10.0237558027205 7.869003668532413 3.0372735963400936
Pt 9.62103628830234 3.4475148436750587 7.908627948853135
Pt 8.821447242546618 9.464519123744534 4.865260606251198
Pt 8.679385840544603 8.66384229709628 7.375798098864631
Pt 9.33947684236317 4.080297579034984 10.428955437757587
Pt 8.036619423983721 6.069372598473213 11.740272300751467
Pt 7.614881501597218 4.99909431361552 6.167809811870136
Pt 7.445331849290071 8.559633416212941 2.735818923258144
Pt 5.422499541124443 3.0540004357708885 8.359259948974278
Pt 5.615471303932373 6.547093506426083 2.928162848927832
Pt 7.728941692172772 2.30010124909884 9.362513074402276
Pt 6.840508529526964 10.263944419337601 6.428473395305794
Pt 5.991749924121268 7.108697132055823 10.41472891137003
Pt 6.560136238606517 9.271653079410674 8.878543183377067
Pt 8.25318370733638 5.626363175576824 8.69111867870627
Pt 10.090563275266446 7.316627763437059 5.639921747822711
Pt 4.578405885798534 10.568005053516762 7.774915676765825
Pt 6.517679687459476 4.490221437045512 10.231381750005369
Pt 4.693953414896734 11.235847801973613 5.103625606715015
Pt 7.369598986568503 1.8629591651464723 4.317827938558225
Pt 7.4442175111205335 2.3356265690006257 6.8027366765449875
Pt 6.861272312784264 10.910177010328184 3.8134980630434105
Pt 6.288129218602204 6.873784657380053 7.5636069675321655
Pt 3.3983904747231555 3.9983439590769567 6.9950796255563406
Pt 4.630912422676507 8.405174381277833 6.080219986148951
Pt 2.519598744515771 11.597892968262297 6.4118878797100285
Pt 4.115288143980274 8.107179863301381 8.885367420175273
Pt 4.438570970498631 5.44617734401484 8.925658776550383
Pt 4.963406554756515 9.1178310607666 3.3951728782508623
Pt 4.998534289600156 5.677801274939425 5.6642328258693855
Pt 5.142408424177072 2.5433411094711484 5.6331957668131025
Pt 6.98860512567053 7.530978173895646 5.172693265010498
Pt 6.496657691076696 4.200980190852325 3.840758191871005
Pt 2.5992831858136194 9.613817434753711 4.643301497951784
Pt 2.7414848935057883 6.5766404424854175 7.203258205029252
Pt 2.3000089086830315 9.108377108724234 7.218547708619285
Pt 3.210521823893998 7.222644938321534 3.9503542463349746
Pt 1.8871907066698443 5.26294471106453 5.142900498279157
Pt 3.9030363285820093 4.662134151027662 3.5339762064423215
Pt 2.713601394547771 2.7373750329859305 4.779056033243246
