46
Energy = -232.57909668 eV
Pt 4.808832545417789 2.1875404410490775 10.025897513779356
Pt 8.446975112399137 2.8922451378349727 9.523996726638778
Pt 6.417519230560962 4.055544693686942 10.77913493979024
Pt 6.2389132402791505 1.5043147314372276 7.979731319493882
Pt 3.998345843517339 2.9777196585411785 7.672528032603084
Pt 4.066065440548438 4.769720833995623 9.587076627789969
Pt 8.616657748629097 5.461056261119125 10.23082621618901
Pt 6.599229027068457 4.192162657325009 8.170022679432902
Pt 8.509955394574483 2.494369213930695 6.948970485010125
Pt 9.575115540335052 4.716611373979 7.910418046032238
Pt 6.279305054720432 6.446760681610409 9.604972359886432
Pt 7.2490661066686535 0.5337495141470174 5.771795149539836
Pt 5.032260558847017 1.8404102667231605 5.515936484960126
Pt 3.1741411066558483 3.683351296469898 5.307639134997687
Pt 2.4288791171277326 5.090216424566834 7.4841074109339205
Pt 4.943012465099786 5.6706905103195595 6.741924808555776
Pt 6.570546867393552 3.9399885839029616 5.534591138823498
Pt 3.98546795947174 7.222921058078301 8.663509661889465
Pt 8.402056784285868 7.106196611732901 8.204581590130143
Pt 10.275421410941982 3.9152970580328157 5.576418862008484
Pt 8.454698890426178 2.4298938234072778 4.331250758563284
Pt 4.331612497789628 2.790506306364528 3.161323276233147
Pt 1.46220024037181 5.650826316792053 5.042322660868251
Pt 1.368434499312736 9.27255987644375 5.242778819910243
Pt 6.235362340766632 8.53859077328675 7.965791429680679
Pt 6.7734648146490395 3.548591698889004 2.802255173733256
Pt 8.850349537096202 5.003714138784693 3.651317842023226
Pt 2.7652503722766277 7.462500318760192 6.346044560755237
Pt 2.806832357317539 5.012558558080076 2.8510451527309724
Pt 7.029645234878097 6.541176912051984 5.4835779697039015
Pt 9.62072562143421 6.422843150797506 5.908504425041444
Pt 4.923219831788141 4.529781192194498 1.2577181556119286
Pt 5.030159818434504 5.541906795687235 4.074330285233713
Pt 3.92834309388945 9.558823764498966 7.327258296545061
Pt 5.034711563961854 8.038049426600402 4.8401999105211875
Pt 8.273608442736412 8.736538703904188 6.221957583415315
Pt 2.4078568134899343 7.583728737064805 3.5748882720466755
Pt 3.6087209634598953 10.286192858458572 4.754481986452444
Pt 6.049510419362771 10.186163523126478 5.9011542607449305
Pt 6.92867280222927 6.145606322063521 2.222049079564319
Pt 8.566105491455312 7.638883876295326 3.6502403932298373
Pt 4.380853377746697 7.009373751594714 1.8065344879350282
Pt 3.722608668130566 9.43569608841194 2.2721523220721114
Pt 5.591125514951865 11.083495624994246 3.3216792962771757
Pt 6.3240587018637635 8.6534300212257 2.6158737201602253
Pt 7.948296883539397 10.202761292656028 4.078739915486086
