44
Energy = -221.95091432 eV
Pt 10.038255143696993 7.65935364363026 9.892183902076843
Pt 7.596256012794321 8.329871163393063 10.788736946381773
Pt 9.796278088683462 5.884838454473634 8.025020807031748
Pt 8.024824416220088 5.868184846451915 10.0023974124272
Pt 10.812163072172046 8.312531633283655 7.5207816173805995
Pt 5.549111662592364 6.806943932054412 10.292029584553854
Pt 8.275381602247588 8.992388379612578 8.377686714067655
Pt 8.328154215850413 3.774778352282116 8.426328171058884
Pt 5.73382068495218 9.18144974858454 9.070273393471464
Pt 10.452600185510054 6.560943665423639 5.4859593867305065
Pt 5.939352186501278 4.344953255638689 9.579671780317542
Pt 3.330538923483873 8.135071203715311 9.5574089612891
Pt 7.7793162843289 6.955529803664436 6.536804391212579
Pt 11.432074682205554 8.980996229487149 5.0915114114463025
Pt 5.332397121826103 6.862663216438552 7.516488355140004
Pt 8.955722005034154 9.219417482285918 5.830970888632024
Pt 7.778903786903796 2.2321984691353025 6.260583716700553
Pt 6.408372431248162 1.9573282883998817 8.557393602536745
Pt 3.621977604620499 5.530815396816914 8.989067198277334
Pt 9.073326044639119 4.4551203420685574 5.94194520454368
Pt 6.469889651472552 9.372543645739349 6.547324404632707
Pt 6.390474552369475 4.627994867180311 6.783688359974322
Pt 9.508451208003448 8.073925370489437 3.4778710108080317
Pt 4.275822438822277 3.324530985106975 7.728022394606004
Pt 5.265204344331864 1.399268736297851 6.245382583872844
Pt 9.27323068427486 5.36654634441963 3.4375079222187743
Pt 6.91396488549154 5.774618847272295 4.419327620928664
Pt 7.094346631095223 8.985713074315655 3.965222487360393
Pt 6.122851956041421 2.9736903120862563 4.352968194062622
Pt 4.639064350797854 9.560459622166311 4.730362395106347
Pt 4.512457569111481 5.772354449471684 5.35069390092736
Pt 3.8419449182988448 8.996329508416723 7.138414626322022
Pt 1.9664316438239875 7.2025488975428065 7.576142333107836
Pt 2.425370555878143 4.790791137929915 6.685332423316296
Pt 3.5068258148028995 2.9512024900009313 5.083611699925569
Pt 7.498170950901824 7.005701702850426 2.2073250097315493
Pt 7.121826687569653 4.255447599183753 2.2978964718232584
Pt 5.028462538004048 7.648334366863238 3.1113972965966603
Pt 4.345958542179674 4.351218666296582 3.043021720401319
Pt 2.771911414386517 7.703059574052925 4.853112247145429
Pt 0.6219933236995465 6.419977625684555 5.552309888027629
Pt 1.9598116644197536 4.801661515785055 4.05530132267045
Pt 5.254682635760697 5.948664369064299 1.2033230752719388
Pt 2.8713786117597575 6.505350940495611 2.388935287954959
