42
Energy = -210.78042729 eV
Pt 3.569799344739752 8.43129756043001 10.266922408297596
Pt 5.11660014780553 6.614032049182172 11.374037069009006
Pt 4.362754721071681 10.228009483406966 8.45160297494985
Pt 2.496985741479727 8.092826661340894 7.956931466457381
Pt 6.135014838069087 8.487269614424662 9.720050880419196
Pt 7.6344363662903945 6.512641096862379 10.562719975149832
Pt 3.9075344506239977 6.0497356506379765 9.05744444784692
Pt 5.834990862494609 4.503726571159379 9.966872828622561
Pt 3.42890917911976 9.963962627828508 6.009229489931764
Pt 1.8121808388501877 7.901384950868512 5.486764562889286
Pt 8.677117913927386 8.322903057806526 8.900648367739658
Pt 6.89353493032313 10.112724628238638 7.846579074521207
Pt 4.962169513771651 8.04450238609652 7.0825775342194905
Pt 8.386135109446448 3.9854935818199646 10.460569182469738
Pt 3.0441324209920197 5.800655652981773 6.60404215948486
Pt 6.685382974328683 6.198240202288021 8.088473823779662
Pt 4.704452788624773 3.9773079059590715 7.605827780066362
Pt 5.784575095707915 9.752777723126995 4.877404541667632
Pt 7.490199819274669 11.54379433651587 5.74946792900398
Pt 4.1223633535375 7.858810680438454 4.304128072020702
Pt 9.509043936804147 5.803249808724785 8.85593611939743
Pt 9.86358498932933 3.159238194571704 8.445378059010665
Pt 5.801374341539312 5.916234110177294 5.645444909127543
Pt 7.279880661059679 3.4121158179161104 8.07305709348809
Pt 10.269140286021347 7.43039868162138 6.957573461845115
Pt 8.348140853589419 5.2988077875512065 6.125872614319066
Pt 9.247668867238328 9.837631718206614 6.76026393742003
Pt 4.033611145639538 3.971753613054135 5.0103421638366905
Pt 2.388966458013381 5.7950100946030885 3.998133177485647
Pt 7.479232968411949 7.85994874604023 6.23396931370805
Pt 4.8783657677402 5.676498065314015 3.095780340591178
Pt 6.4247220077051 3.1560532583791283 5.637245125872574
Pt 8.296783731329779 9.526560062492122 4.2530603283246835
Pt 6.5785986851591565 7.729432849438508 3.2744426131009634
Pt 10.841591877526021 4.787497422521309 6.715709190625734
Pt 11.425891431557925 6.364270408675435 4.7751724964830835
Pt 8.973046201726099 2.7273125928910305 5.960552255354968
Pt 7.409252636706296 5.156652517909625 3.3748181347540847
Pt 5.7188504517416066 3.1750890944695525 3.1235261604274007
Pt 9.80553959343228 4.358261871436339 4.073905625640181
Pt 10.821303377673706 8.938795373411715 4.809565063378462
Pt 9.069513866748123 7.055781309493393 3.9411660188368254
