41
Energy = -204.70569928 eV
Pt 7.050916461806204 1.7095222765005222 6.416193032725685
Pt 9.149534545035095 0.9343135382080342 7.6677371808454025
Pt 7.343419295847719 3.7412741616920693 4.740064499746917
Pt 9.50191108007626 2.9317368301604145 6.105717916198459
Pt 4.910097433155624 2.809371099586442 5.4304991482375025
Pt 5.604560302164933 3.156325303264829 8.016302456791292
Pt 8.35593969307182 3.2940129558900972 8.426828122556653
Pt 6.9808188556166595 5.098894073631527 6.9815846423235985
Pt 10.709225893155384 4.822024939970924 7.516611661604383
Pt 2.7451956581892496 4.088187955759323 4.5551986968897396
Pt 6.720169683897718 4.804648931741091 9.790776315312012
Pt 7.497037794103618 6.150841278477196 3.6556426639106196
Pt 9.334476130074755 5.4234942260550305 9.5638040213585
Pt 3.3333721551273863 4.2517147254795455 7.08035388575636
Pt 5.163579600160234 4.86053608799859 3.8260986439234395
Pt 9.269000202805886 5.453463533710679 5.4208887268855195
Pt 10.46061598331902 7.266402484141676 6.868023970017094
Pt 7.819280194182764 7.224640970123044 8.3858365772312
Pt 9.230646496770738 8.035361442916411 4.582370030826939
Pt 3.2287256012278256 6.563804018953778 3.574181581291887
Pt 10.26296067059222 7.4864723195204155 10.860377429394799
Pt 10.087819051471005 9.804270063072043 6.396966296183072
Pt 4.807214974348777 6.193903476616209 6.096941645393473
Pt 5.426545059130918 6.889038172385128 2.1510827309823406
Pt 8.0036106716465 10.442055694387594 4.940420208064382
Pt 4.1276536064317 4.627686045987726 9.547158441886157
Pt 1.8098883669114576 8.602004292650767 4.467028782077655
Pt 6.978487889278863 7.556473330600593 5.83963914494818
Pt 5.463035904567613 8.461644417503194 8.094535657496559
Pt 9.870906413135032 8.852532256881721 8.811973766545458
Pt 7.7407700877407075 6.992090594047447 10.953784538168334
Pt 2.1161108969841407 6.370527644136553 5.9276484699926915
Pt 6.844610890738004 8.689727912600908 3.387357492378663
Pt 3.4220509030403905 6.767015392636335 8.279750534571397
Pt 5.8050285416517395 11.112454418516213 3.7547416464488412
Pt 4.255227094963908 8.90367374190449 3.315801904031533
Pt 3.346257846842541 8.705323417334359 6.537905100598062
Pt 7.704330142644096 9.720879553427375 7.50008742855727
Pt 5.2544286853438535 6.952206072394404 10.21009235439285
Pt 5.5329053744651215 10.138878608288357 6.141422441513046
Pt 3.3667549013819422 10.745692773945894 4.815691245041474
