47
Energy = -237.22167193 eV
Pt 10.490002893376241 4.828479071806459 6.493567187048175
Pt 7.938280406872545 5.926437175253327 5.337308342180939
Pt 7.949115415753427 5.32160809670643 10.51574973075488
Pt 1.742541050524742 7.342833026442334 5.657437536600066
Pt 9.392220820445978 7.364315826485508 9.704818521489333
Pt 10.311118630974038 4.810075023662026 9.200097276276658
Pt 6.697785374234229 7.780625331943889 6.864300470220482
Pt 6.516590011578924 3.2020147976503854 9.16605901088209
Pt 5.475715153004489 9.507912727481221 8.622943819038907
Pt 11.371299023424811 7.037380547857916 5.278594711856483
Pt 2.9588757277106428 5.080517055581442 9.434318099886456
Pt 4.15730384698238 3.1703214718327875 7.817075523121599
Pt 4.051115418540828 7.68339918319742 7.040187654229988
Pt 6.5443457984572335 8.131482693720237 3.6817018923605023
Pt 10.699141495013068 9.607100073002108 5.085953070161541
Pt 2.8245243036003074 5.524909757867289 4.090200234498623
Pt 6.30664662480237 3.8425245356898796 3.8505575248847
Pt 3.90282720823898 8.043135474418776 4.236563161796832
Pt 8.033293476892242 5.681241529802899 7.890619556519791
Pt 9.21746772955612 7.889176346530574 3.7919404703712645
Pt 5.091707817733156 6.0550735371549305 2.8681387122691957
Pt 5.3045522737937105 5.841177340810351 5.4670527217759135
Pt 4.090422237341267 7.583285671829342 9.788093208515374
Pt 1.833396777621497 7.1320668817347075 8.346815955321189
Pt 8.680298646483495 3.354937795843302 5.1415857399075255
Pt 9.417650412128836 7.918179788101779 6.77559977826864
Pt 11.458258036356519 6.793113080642612 7.995429436981873
Pt 8.073162499710847 9.402418137054708 8.713183348274388
Pt 2.641961925350317 5.128872296224005 6.753948986245829
Pt 9.574842303367998 10.920871316921088 7.032684478677107
Pt 2.8467730876895176 9.636534863398998 8.635798225304328
Pt 7.975606190140211 9.724254634996388 5.231262407623944
Pt 10.796113853823778 9.299500580465628 8.670917402178134
Pt 6.753041031754475 7.5874576482233715 10.142273952890047
Pt 2.8209224109707702 9.78322843978423 6.0207509050498045
Pt 7.703843314717514 6.0391392159507955 2.6823019170414644
Pt 5.346917523938378 5.451245162600935 10.657647031826809
Pt 6.900674490660839 11.181665985087264 7.172131785968091
Pt 8.730003490014319 3.120036218950543 7.67901460115338
Pt 8.883493604492822 2.9177701286831135 10.283450558968553
Pt 4.1033587964868286 3.482247123685264 5.241335438668216
Pt 10.1322707644592 5.286323226927511 3.842762421842789
Pt 5.393821958142975 9.77570414648458 5.532670820807538
Pt 4.2483803690351625 3.0694967139373066 10.432330571158918
Pt 5.404092791010368 5.582289847530467 8.022710461508387
Pt 6.404069406907995 3.063253548184863 6.437293229318607
Pt 8.598905343060014 3.6189045283848933 2.542537235314796
