43
Energy = -215.95486988 eV
Pt 9.526434632589853 9.785315346906335 3.2634136034210255
Pt 10.61736514669329 8.88505110489219 5.453954410126012
Pt 8.121640520978533 9.912367724677605 5.526106327676377
Pt 6.989092287309269 10.56975715711326 3.197776272169126
Pt 9.86059585435793 7.178278835730253 3.685735142848852
Pt 7.570968601921736 7.483343987721478 4.809612371924847
Pt 7.570217745810948 8.237486871052823 2.2584408607198347
Pt 9.138127616501428 8.76807684947778 7.6620104074261945
Pt 5.491938665534074 10.28028337364281 5.351865321454303
Pt 11.266472170401805 7.146702064371673 7.223420124450109
Pt 5.175553611898475 8.601910924450992 3.2053262083009777
Pt 8.498924928817324 5.853616950278714 1.904319073640763
Pt 5.28249141502739 7.6427113509859845 6.048156039198277
Pt 8.258450005344606 4.562785504992964 4.112263248326012
Pt 3.124052292237395 9.26797417283355 4.667488459022228
Pt 10.482115072223683 5.374900542584857 5.410470633155502
Pt 6.563586434403783 9.409327534844346 7.635756385972415
Pt 6.088394339407477 6.004174778400603 3.010529345463752
Pt 7.62857951646718 8.333914217231335 9.80334699092597
Pt 8.48896657371446 4.431823019571931 9.088755610380586
Pt 8.792194105650529 3.605766695602972 6.551580846871071
Pt 2.3007968971421136 3.4070187058983064 8.082018616257614
Pt 4.454950980139723 2.524576027857025 9.25782786432307
Pt 3.417870199190701 5.051765199184692 9.891544476578174
Pt 1.3926742082442105 5.828602416480591 8.051138434781782
Pt 4.467159262736315 3.0612421108369143 6.677974168953677
Pt 4.265481758915982 5.66127791846736 7.525674349099304
Pt 2.487469991232044 4.873007713648942 5.787722761482083
Pt 6.028950828587019 4.406983309490827 9.983830252705957
Pt 5.280661803727737 7.002869863570952 10.540976931750311
Pt 6.7683706731918 2.7767738454269075 8.002710867857438
Pt 2.2649947830264177 7.531979762198651 6.337282884694412
Pt 4.626697293826336 4.172812302106416 4.318421197334326
Pt 3.8474554665616716 9.468972417622167 7.265849631352082
Pt 6.344818433575622 5.254034254057818 5.9281150320231415
Pt 3.263039124590847 7.578148652646062 8.948510793116936
Pt 6.681999711202995 2.697948213806842 5.314824180323576
Pt 6.473644731984331 6.5996535152792575 8.325152389910981
Pt 3.7504983589885557 6.639225562197463 4.155432490759431
Pt 7.773371071235709 6.023066593953928 11.072854914128422
Pt 9.750474755509233 6.748951834280157 9.387165320909611
Pt 10.855591531439362 4.649388401876703 7.969258748516005
Pt 8.57499787638946 6.314263650477869 6.9135172883986975
