48
Energy = -244.3665922 eV
Pt 11.242085354642791 2.9420027601561234 7.7286790831742245
Pt 11.47738713033883 5.407194328854577 6.97219335809221
Pt 10.607237210450661 7.4333344756498 5.70819054156853
Pt 10.570100763059923 7.43320890450976 8.405007543533847
Pt 9.583927734000397 4.003584268142974 5.804035115194684
Pt 9.879694120138486 4.832798197280467 9.096226738913735
Pt 9.144104487369018 9.293877230268036 9.596049303983087
Pt 9.657414862848086 9.350968319217005 4.311403883953443
Pt 9.467644157388698 9.53565272684007 7.002778177293185
Pt 9.492712079333383 5.783714862492809 3.901608648240726
Pt 8.80276367654701 2.5283448830281143 8.2406350749038
Pt 8.583624625839182 6.056694104897538 7.130294664405357
Pt 8.233032545606497 6.779467594408962 9.717909888114482
Pt 9.453196053938251 7.765507441233393 2.2308193360441617
Pt 7.359855741485204 2.3883004110732657 6.139926223073757
Pt 7.4939636462774715 10.33157057925928 5.468230893843662
Pt 7.345949648197632 10.718008669115909 8.168450013871526
Pt 7.812718894460014 7.4192248456073475 5.105436659132001
Pt 7.083710833405906 8.219300849951487 7.45324696108146
Pt 7.554918423052694 4.04525231116117 4.091306100098088
Pt 7.261371910528449 4.336824433160034 9.428227843468326
Pt 6.600984677327441 8.781101310290598 10.093764759152418
Pt 7.262065945000136 8.945175778776747 3.094516198742496
Pt 7.349933950762827 6.173680826300751 2.4170733117683834
Pt 6.314695146656532 1.9601240866711553 8.612607791402647
Pt 4.870571013435037 10.546256376871332 9.229005689149659
Pt 5.160693160034143 10.116343320462569 6.738315737074756
Pt 6.4542929479836815 4.697255884709176 6.907198235247805
Pt 5.181297101883479 6.327797838464136 0.9655106488321651
Pt 5.219960334070226 10.086559274263655 4.193629662331787
Pt 5.511731061806298 2.43963743225418 4.3139481664218735
Pt 5.628050509930489 6.292902664243847 9.96264022898892
Pt 5.372354702660101 4.360422666128805 2.5887479258191597
Pt 5.635424208899811 6.061029325261918 4.8915827415973
Pt 4.985085685748637 6.747176229379256 7.441372653363852
Pt 4.825474640227979 7.859291821336105 3.0094041745697915
Pt 4.055896171640461 8.336887241199573 10.409400400744632
Pt 4.618263578821473 2.85337183191439 6.763484066383025
Pt 4.588225307985602 3.944008281579075 9.161981416149594
Pt 3.2051281177550797 8.851666067232573 7.9655938702892035
Pt 3.831989339084278 8.210807745572906 5.425975791691115
Pt 3.1421937756742824 5.935093747422372 2.7590225576990988
Pt 3.6782930528176774 4.225534005777956 4.7108231392678395
Pt 3.0322192213078694 4.89983856843796 7.220748778198162
Pt 3.0257519363610466 5.947601826845897 9.692898547611758
Pt 2.171343925704888 6.268850477383349 5.131027455636068
Pt 1.5367749197686515 7.001429566957687 7.5080032586641225
Pt 1.507233692088358 8.061892500350613 9.894828708289609
