41
Energy = -204.1888328 eV
Pt 4.787766906237356 6.852699194676764 2.783741077219064
Pt 3.0968225093609725 7.6417035163618205 4.703338835383652
Pt 6.896952502658967 8.860099029022223 2.5489233584425213
Pt 5.66883542787533 4.427301053106948 2.7178487751498115
Pt 7.651865268209799 6.076678836676764 2.2928482263669636
Pt 4.407805926901615 9.417553272030592 3.1509681054261196
Pt 3.6215497043721268 4.984237929188675 4.36155914152042
Pt 3.1930844905885323 10.260534415217213 5.341739460710997
Pt 5.880169584570388 10.526352883500138 5.039787094968278
Pt 2.6638400503392625 5.9106990190686695 6.796901073408138
Pt 6.733503015137159 7.135219851596248 4.4212675622942115
Pt 2.154661969814945 8.510086043701836 7.0474846740217325
Pt 9.384546319068798 7.9770786325414615 2.825009385884893
Pt 5.719997618859273 3.200658061399784 4.93226483208661
Pt 3.6775903221931063 3.4416270337768937 6.707363615397973
Pt 8.016282917853069 3.969336692091666 3.944145724406706
Pt 5.193471044097899 5.755746856831441 6.214999026234288
Pt 8.218882207125928 9.326706740229309 4.841383702739038
Pt 4.365655177571876 10.025245736992227 7.748486395366227
Pt 10.096515332551164 5.457945261272669 3.427097387220951
Pt 5.246531046735502 8.30238696162573 6.089507774782978
Pt 9.82995064259771 7.148504411616294 5.289452665556516
Pt 6.356543044809705 4.108185282857767 7.816654350911759
Pt 3.8744250431849796 7.525872696935804 8.718753462920615
Pt 5.6200687946283345 1.521089477999542 6.854812637595534
Pt 7.773489667073379 5.517872586342389 6.082709175838742
Pt 7.071128527159685 9.828162195626797 7.3418556929912855
Pt 4.505068585427837 2.3158033049249833 9.0589077197906
Pt 9.582849662525051 9.016819048836268 7.0274714142833545
Pt 6.686620285113767 7.058918809988546 7.89891132567212
Pt 8.0331302508192 2.5508229750235385 6.23681208399811
Pt 4.013693138538164 4.938185512909215 8.92832600788779
Pt 10.069350788688439 4.40343257584232 5.8998632287683535
Pt 5.479881498218855 6.497142300112332 10.526682868785935
Pt 7.310367830802357 1.9856855250913594 8.931717475198933
Pt 6.124905831627521 3.970992927271326 10.413397172049509
Pt 9.749459668401515 6.484451515285491 7.891742978463186
Pt 5.862222861402873 8.991818847097564 9.683614006592592
Pt 9.007835265891002 3.9656823461316915 8.298349053306628
Pt 8.408965144301296 8.398949787891599 9.27192379771327
Pt 7.927656555847907 5.819898366710848 9.808980136243749
