46
Energy = -232.61211875 eV
Pt 7.2967943888350755 5.220457543602581 1.5522516752466073
Pt 2.9660027196984813 8.408995287246011 6.103218876682523
Pt 1.0168430816555818 4.283955747561826 5.967311358071113
Pt 1.9783541370066382 1.5565116640044498 6.307782715667082
Pt 4.431462658803154 1.6450601837448606 7.503391656003559
Pt 7.358093349607155 4.7779075502965 9.4602296372236
Pt 0.9650015254366447 7.056453015998877 4.902413828450909
Pt 5.361109805513293 6.484063907294305 9.13539822206936
Pt 6.680572353040762 2.6111723900601547 1.4290356533200836
Pt 6.746424017705033 1.2437559371561857 3.7123864774950306
Pt 8.791316761642804 4.429952381093627 7.298283917943436
Pt 4.007380786878622 3.499008065483721 5.734449637511591
Pt 4.844108683552476 5.7532145519538815 2.8057141714220073
Pt 7.503743631330148 6.840964536345097 7.684235344557265
Pt 8.807083853275447 6.313980391856114 3.4519410815881897
Pt 4.044750268020934 2.097889502949263 2.1412478399631034
Pt 2.844440084285683 5.521440258560928 9.521519341260996
Pt 6.447683660829327 0.6759685968192003 6.230653746598133
Pt 3.3114557119164783 7.998168110062553 8.609355286166274
Pt 8.232435737369675 2.438803195730776 5.576304723274435
Pt 5.6757740085096735 6.805349878650966 0.2425312828558533
Pt 2.5028893426792824 3.410209955716672 8.030925231105133
Pt 7.417060747298918 8.041476797615564 5.19446520950081
Pt 5.494085521618242 8.456772626509515 7.067007915170086
Pt 9.50454053536702 6.665951164215656 6.002141454577065
Pt 5.525460794099437 3.4809707051950247 3.6584127200000593
Pt 2.3864548908111174 9.010572706294017 3.677403887090334
Pt 4.982525842386933 8.988769821524757 4.3242257380912275
Pt 7.261123558202961 4.867830207382058 4.869633096141792
Pt 10.045728433092338 4.291792468340223 4.997648457390734
Pt 4.104879163415058 8.125927090991851 1.904547820831409
Pt 3.4903893543495417 5.7845289149140315 6.993935427114236
Pt 4.229508762619797 1.0572407399505694 4.734954839896138
Pt 3.109159505269678 6.250903060132076 0.22397856155329832
Pt 4.827539260881096 4.251278074283791 0.5904549933955807
Pt 2.1337462095753135 2.6595084274444574 3.9524542566498355
Pt 8.566706501889506 3.418878681332463 3.033316741626454
Pt 5.251361080545286 6.617637827333881 5.213331272712409
Pt 6.68461134536487 7.678721519382356 2.5934269964003565
Pt 2.8518070793800376 5.368322377914068 4.385767897996494
Pt 1.1660994554597282 6.585534405495214 7.4683292781520825
Pt 4.8599712310090135 3.754136227684983 9.224002698993372
Pt 6.93459830147487 2.573927611655186 7.990055942075756
Pt 5.884097045086905 4.766278761796299 6.953707516751641
Pt 2.5324219158751946 4.278631293644276 1.9571338329144317
Pt 1.7779537886007515 6.786676728045204 2.4246326317648124
