43
Energy = -216.90503098 eV
Pt 9.706015874907571 10.325415590406921 9.709134101862064
Pt 7.307067517119586 10.431830218813971 8.660812257991564
Pt 7.912245390183199 8.973838284104449 10.852029783338681
Pt 6.306690092941323 7.278580084921398 11.866515642687586
Pt 6.418174725917641 11.864437980606628 6.660909449704479
Pt 9.14027482450597 7.239851965360306 9.524503508029706
Pt 9.433210984235043 9.114312398373217 7.476332660774847
Pt 5.067350242925906 9.774961435289766 7.457878102790708
Pt 6.939507931928866 5.616857696941545 9.900945937432795
Pt 5.554869862365137 8.665065664017295 9.749449777855382
Pt 7.85465140720708 10.004815412085737 5.658229363825488
Pt 4.381572187919136 6.403506405948071 10.396945504087864
Pt 7.209038997304925 7.600614334289306 7.784454604640496
Pt 5.377154451098079 10.385817439981025 4.826414260191735
Pt 10.259674014048187 6.606952833322116 7.1788891545918725
Pt 3.520190647367789 7.860321845397902 8.235049013351494
Pt 9.302352200139769 4.7764734705508864 8.910491414073102
Pt 4.779492350824848 4.148423140646683 9.002285060673529
Pt 5.995278394095204 7.586287268556769 5.481601603604405
Pt 5.124982291497747 6.072811920900742 7.3378563894789215
Pt 2.42151320009147 5.496244670030385 9.04063413693321
Pt 3.519990831030404 8.475519275327157 5.618950083439774
Pt 9.415397722010146 8.071213041150331 5.025416694474593
Pt 8.01118152279605 5.998630070622157 5.886581404719765
Pt 7.247687708267648 8.64249725729581 3.4633754102728482
Pt 2.7286162125705395 3.558693729477362 7.277391171918213
Pt 7.111699615622065 4.128056855560062 7.694632370544608
Pt 4.516680851616079 8.691075718368271 3.0920143770530584
Pt 10.777518662631028 5.729761186279073 4.650501591546103
Pt 2.6815834837552504 6.027478346257591 6.405057921044023
Pt 9.689319726705186 4.0559625103739725 6.44336395514808
Pt 5.826089996112106 4.935722481122652 5.086489701633221
Pt 3.5422682792331015 6.411005355278047 3.9543879625566163
Pt 5.148153943693001 2.77296608492817 6.699922080854492
Pt 8.521485041971118 6.279091082210881 3.250434330366702
Pt 5.956408994800287 6.510991321584198 2.6720516406061807
Pt 9.322042245321356 3.752949484807067 3.850387760348543
Pt 3.3724672305637906 3.885570519603542 4.787740561269519
Pt 7.542800961192994 2.672193900837888 5.580897071668221
Pt 4.350659253089392 4.391750283222121 2.4336005367389797
Pt 6.950634510768288 4.155863009836478 2.72304726482579
Pt 5.383242132097889 2.355648477636122 4.018836389306776
Pt 7.847109919152855 1.7442863813011216 3.1479044253688486
