42
Energy = -211.14356596 eV
Pt 1.6126868153954415 4.027014622576341 9.179673504391015
Pt 4.229281376196813 3.884743270627753 8.9430642588276
Pt 2.6299538964555493 3.293517931947339 6.910144763014394
Pt 6.82381775641529 3.7421206381061776 8.743961815382248
Pt 5.29207576339403 3.020293093289735 6.692621789826303
Pt 2.950456386758265 6.091675401190299 9.982712601979957
Pt 9.489718554492793 4.239723731846596 8.12363138593111
Pt 3.6116380699563346 2.6610896475739447 4.638374979089814
Pt 2.0385896259505456 5.844114423900526 7.307882411978835
Pt 5.641155490034989 5.7593950812342305 10.161577406259456
Pt 7.839439578837436 3.441941736879576 6.202613412947127
Pt 5.620321656589558 5.732618349822288 5.325338658062462
Pt 3.01229633690511 5.20981254936489 4.967991100832119
Pt 8.20235200110489 5.864610134988827 9.893816243394136
Pt 4.456134643613232 8.20957689239645 10.160589051644223
Pt 10.663386430713578 6.384275082934538 9.483005172800206
Pt 6.117705480239794 3.3920682936615925 4.184958753088741
Pt 7.250842201093386 5.87628455563506 7.394063835762638
Pt 2.505484772827246 8.167298312738344 8.394487828735407
Pt 10.311544779590434 4.387090579141568 5.608393738455392
Pt 4.654925964905072 6.361271686752043 7.723815549618045
Pt 6.799198454550117 8.075222371534268 9.177478963520988
Pt 3.2095247107582274 7.702972150873192 5.832830552687386
Pt 8.487990929634028 4.169502841579112 3.6505946453862914
Pt 10.035475779174131 6.568917436134053 7.002324369514953
Pt 8.096822884150454 6.441672463160694 4.981249722788108
Pt 6.346471530972463 8.068205530444434 6.256017052936602
Pt 4.668627388462079 9.471655636408462 7.808956785564776
Pt 4.121347049445475 4.446413624324344 2.72595335460578
Pt 9.236100887542522 8.461794077687683 8.574851876966505
Pt 10.887384962197533 4.973637224521597 3.08354836954289
Pt 4.344307180906422 7.063229664279121 3.468429374697366
Pt 6.45982170896363 5.534142793296947 2.5226036135096637
Pt 7.451405039727643 10.095773457352209 7.538948451317231
Pt 9.278600644275725 8.900910809698102 5.9615479996250755
Pt 4.832017935572174 9.378331287231711 4.599750760506914
Pt 6.764279197887685 8.122612034411343 3.1520470378282144
Pt 10.59742155882561 7.125465997901775 4.482870123302436
Pt 8.837380703564166 6.607008740480564 2.414970662174974
Pt 5.504423461480672 11.301257991738664 6.222673277843841
Pt 7.380647223422339 10.341947446375785 4.702975198763393
Pt 9.194762824501442 9.066568233856142 3.39066522859909
