43
Energy = -216.02976642 eV
Pt 6.683535086727178 10.434173642312617 10.138777474083449
Pt 10.631415428088461 9.913250875434835 8.577652321360949
Pt 8.123389080385927 10.704899319149655 7.94477090897175
Pt 5.445304149299192 10.344510842949097 7.82543025533169
Pt 4.210820992483998 9.652594835193161 10.206253582352765
Pt 8.708232369455091 8.763070545277149 9.85901351323817
Pt 9.345705042605319 8.76606861969592 6.663613980064685
Pt 6.367165841593538 7.800570417461067 10.4991739351007
Pt 6.784225302335624 8.139002709825741 7.934352829328005
Pt 7.039594335330683 9.73964657189658 5.655712115774973
Pt 4.332757365137168 9.412582842450243 5.585443440221765
Pt 10.416188567479933 7.227204262622721 8.513691849547332
Pt 3.5803847055218174 8.470440609812208 7.980904570754927
Pt 3.792924017475375 7.168882060712881 10.423628913189017
Pt 8.239801491810352 6.139443875897103 9.576976979135551
Pt 8.29073095828802 7.695417993959355 4.550226360643711
Pt 3.4122986435757507 8.021621148627691 3.4788915287520585
Pt 7.816925749848016 5.9998693105580125 6.754654326074431
Pt 10.323655606590627 6.518072606950762 5.8637269586683765
Pt 6.040710091210461 8.54109104706163 3.4607791886399166
Pt 5.8752768071063155 5.216441655022054 10.30722824540868
Pt 9.77329859005335 4.71053905741626 7.963059081871209
Pt 5.674763825865517 7.133563159807739 5.608082129929056
Pt 5.419924234565696 5.943705057721511 7.869210615592066
Pt 10.877457481085948 3.9847858440481296 5.637735823176783
Pt 3.288576652686156 4.6499037005048605 10.521932813143142
Pt 2.82735844019397 5.913052162460365 8.276191126806355
Pt 3.019696674797155 6.996097173039046 5.908921007856741
Pt 7.330961911558104 6.3156060535398835 2.5736133049298036
Pt 4.863599316486008 6.7233429195098555 1.7910706524125075
Pt 9.19042522725849 5.111872397682523 3.9594466758520555
Pt 7.275754826874911 3.802824764125821 8.457418511105148
Pt 3.8028903375513945 5.445594653757307 3.875386312442894
Pt 6.4438212824917604 4.886901675572846 4.663659977318442
Pt 4.630240380791798 3.4774856434261943 8.577322893045203
Pt 8.424159127175617 3.321644176511782 6.067000656751521
Pt 3.612552784535231 4.439406104111425 6.284911294374971
Pt 6.408214198419064 5.321883453292311 0.2669436379559331
Pt 5.387545270489634 3.9984163434933926 2.2218005617302663
Pt 8.056177082702693 3.86394855828997 1.9529862119481287
Pt 5.903962640193918 2.8600286621584385 6.386406310995615
Pt 4.308700410293506 2.8961851570722885 4.28208122485656
Pt 6.961218760810736 2.490424551953365 3.9286171719686576
