47
Energy = -238.4483504 eV
Pt 1.5944256378898634 4.498524333950818 8.711268687835586
Pt 2.4966445190119457 7.014602813249982 8.78066181546265
Pt 4.112746149417821 4.969278941612404 9.196671107431559
Pt 2.1748487778167926 8.225545946272664 6.428547023742723
Pt 4.789250643740215 7.366187745631683 10.028803852844652
Pt 2.3821549737618506 5.600914464653294 6.507144529032801
Pt 3.8672737949294547 9.1711287136355 8.327524248193418
Pt 2.578681911165101 9.215945480791142 3.9772978323763737
Pt 3.400035667636642 3.2469021828181557 7.294823608521602
Pt 6.5382562728192175 5.1065498665561595 10.058460751160476
Pt 7.13524546563345 7.6260744748992035 11.141780930249375
Pt 3.1730693257153924 6.654064839141654 4.286115788763421
Pt 3.331195567447194 10.587396358345227 6.109754991763596
Pt 5.39927526622549 5.6796055832607095 6.938246126180175
Pt 6.380408433116313 9.292562858845844 9.102922937476768
Pt 5.989867478072811 3.3477058013211196 8.172221920241405
Pt 9.04878568347057 5.957900555738988 10.233969817221597
Pt 4.145307408285209 4.352644624322291 4.930263872838718
Pt 4.735291715202818 7.935678551720933 5.864252854203021
Pt 5.849746561756695 10.140747905524236 6.676201973651325
Pt 9.659119987752314 7.808668983502071 11.94293989586429
Pt 4.259138018711206 8.063795822644012 2.2696409666516018
Pt 7.2306858648418855 6.899914052247792 8.31475011495255
Pt 5.141535802284436 9.863258935556434 4.128293845098074
Pt 6.819972627011696 8.207331310827161 2.8431889147749168
Pt 5.298511395952339 2.1930463388052743 5.901083190605192
Pt 6.717061188129813 6.7093892037944975 4.912959065393198
Pt 8.278490310518862 10.077723642033172 7.43377790847269
Pt 8.884749600974429 9.0666890674915 9.771873322855901
Pt 5.317210104873408 5.734538648348091 2.962692145110383
Pt 11.042516397966581 7.637917333319863 9.718610876835958
Pt 8.539204895771588 3.8833032935831806 8.755356267944462
Pt 7.836953401860584 2.5391362072385304 6.304484757446819
Pt 8.65295499299286 7.66066265199054 6.335860961972597
Pt 7.726418810252866 9.91510503946935 4.712178824773728
Pt 6.582258857944184 3.7412295157385187 4.15698903830098
Pt 7.957429295223064 5.62455271836842 2.8549166745292323
Pt 8.06802975907245 5.1733056968073505 6.532114438290008
Pt 10.783170435675709 10.027840002764277 8.23650992483853
Pt 11.178239249399418 7.738945318457614 7.139114719362737
Pt 10.243696456746287 9.730485915585787 5.621266841246306
Pt 9.28412877214698 8.017709875533862 3.7845295293861914
Pt 10.545862735625178 5.842934851210563 3.2841982491618342
Pt 10.838416861668092 5.331838214620607 8.396115256211814
Pt 10.297023916185822 3.240232055419016 6.8577220511476735
Pt 9.219022777201038 3.855267298215711 4.4443466684219
Pt 10.696299342664439 5.649813008947511 5.823307274174693
