40
Energy = -198.55001031 eV
Pt 5.347365585097705 10.860960711490698 8.99840799206651
Pt 4.310499128856282 10.252376524825603 6.599440649413104
Pt 6.780452556810547 11.241301705905451 6.769743128233584
Pt 3.827254573762179 8.6593281612312 8.92638532757573
Pt 7.873335461973617 9.954475078279367 8.903923724876087
Pt 6.029551996938173 8.896081543454967 10.59909551106636
Pt 6.041028825497124 8.495052361688868 7.600179312342795
Pt 6.11133777715436 9.579127763958917 4.838758113590525
Pt 3.7912771838501595 7.95907211048809 3.95012279050936
Pt 2.880600815215158 8.174664197109974 6.484810432014453
Pt 8.388542929199588 9.10935475491339 6.4470199368154875
Pt 5.967287024949131 8.720151991285546 2.4488595251086904
Pt 5.245542842022105 6.529683501540508 9.77391285627021
Pt 7.767486834709187 7.3269305635958295 9.270662072669653
Pt 3.01552354246753 6.155174552099946 8.402029435201447
Pt 1.887085107381879 6.290776999737265 5.140580667448303
Pt 8.190050361823387 8.181843183468635 3.969810391673129
Pt 4.748652547109937 6.485083779399496 1.7948814728348235
Pt 7.507974776025471 6.521898751063777 6.463395746152465
Pt 6.060003975423657 6.619928831936862 4.306662866136929
Pt 4.815976932536369 6.446612076546744 6.5725969962347515
Pt 4.628640815660869 4.140948153121128 8.98168234814726
Pt 7.210595581203041 4.779885370877647 9.186458044375293
Pt 3.1508086887864786 4.35729363749532 6.341709212543335
Pt 9.43427695230294 5.732538915060754 8.030452185748956
Pt 3.8159916947392345 5.15593405272488 3.8857877425607397
Pt 9.918446987440024 7.024559860789674 5.721668481153933
Pt 7.37662216708666 6.4674175966003284 1.9905485016740176
Pt 6.024113584989787 4.256752902542063 2.7086323791755365
Pt 7.806154101138833 4.610599250120187 4.6520387833060255
Pt 6.201815544463354 4.257606807319213 6.782493339648189
Pt 6.501334609474078 2.2117867115843035 8.91706099394722
Pt 4.374079873216566 2.1933755711313117 7.265997691182137
Pt 4.993772133545206 3.0096136226110013 4.8148625349194525
Pt 9.554984220836712 5.952260591340099 3.328028437521996
Pt 10.0794548780268 4.352959247228078 5.760736289443075
Pt 7.3678688069585405 2.2412311910340006 3.8167924165150087
Pt 8.627259716288172 3.202513114475055 7.60340848001707
Pt 9.3291681100639 1.8285659102696665 5.476267035335741
Pt 6.818261203754535 1.6374490614107176 6.339558750019432
