45
Energy = -225.41759092 eV
Pt 7.860927210297788 6.061126034751261 2.710779235414703
Pt 9.680990242904342 7.239693613643575 4.375853196139187
Pt 9.742803021637595 4.590095372351949 3.8293743967488094
Pt 5.8904835788907155 4.663898811382019 1.5247204288988911
Pt 8.84788970652163 9.578978903632196 5.411704157006385
Pt 7.484400545411734 3.305082871040768 3.239715971802689
Pt 7.46709095612875 8.604669303067265 3.410530366343736
Pt 5.577759155709513 7.289439229278126 2.2106021408040135
Pt 6.067871576694308 10.16978053641458 4.991728485566123
Pt 3.3674957906592042 4.888936658041227 2.5811908303823503
Pt 7.758587128395726 11.655693240667695 6.531588647928087
Pt 10.25594373000512 5.445418971202488 6.258592142861661
Pt 7.482771981899164 7.397617409496225 5.735133690949362
Pt 7.667356325867527 4.888643099769239 5.457693002011007
Pt 4.9430380939348035 2.669568462332556 2.9897053524796857
Pt 8.758761543363743 2.525269160149179 5.451535710651242
Pt 5.226507767118082 11.632632238072533 7.04404941098009
Pt 10.193460103126743 7.898138654910719 7.076926926800203
Pt 2.643315044672615 6.256521028354523 4.695844714425605
Pt 9.62774243665866 10.30715060305389 7.835025755070238
Pt 5.441495303489837 5.368450496402653 4.026312747842325
Pt 5.73298346162528 8.599621366008726 7.0821236231036915
Pt 6.054217265275847 2.5734716348020927 5.418774059018847
Pt 7.6541904208610125 5.852186508108199 7.870765072920034
Pt 7.031024315055139 10.250837779900447 8.598787361584508
Pt 3.487838692673467 10.012952488453342 6.031880647328113
Pt 9.90588552628138 3.342858135731755 7.661156155269492
Pt 4.587001914215498 7.985014026476888 4.583689907750936
Pt 3.6526168159540746 3.7429974616395354 5.035492699649772
Pt 5.359842757653717 5.910494209936738 6.562710269830909
Pt 8.674841639883955 8.277944448925371 9.176302817036143
Pt 9.999339933129754 5.912716670968436 8.889257764941757
Pt 7.283845236765465 2.9424913228986025 7.719349721826608
Pt 5.453478141765835 6.854263284404872 8.955388193582591
Pt 7.785892918258098 6.255897990988079 10.585617762616803
Pt 2.5944816644329096 5.092153590003121 7.070902772035943
Pt 4.372326915965164 9.893490371930213 8.85878630018401
Pt 6.396403531603326 8.601974688324661 10.516714792482889
Pt 3.085139543866975 7.632614949698875 6.943029668805636
Pt 4.729785939320292 3.5395907430601694 7.49011176447982
Pt 8.62565860297889 3.8293643603507403 9.875523592444186
Pt 6.063017150827335 4.14684798535058 9.7152565601174
Pt 3.580349892097865 5.015764593839556 9.45649244566729
Pt 5.186919113706781 6.083385882355488 11.380278481386943
Pt 3.194184858738585 7.692218304152792 9.610957751153878
