44
Energy = -221.4856901 eV
Pt 9.735328609594069 6.224344999760505 8.386499329740882
Pt 9.572882033004241 4.420384453525855 10.33843639565735
Pt 8.873818809589993 8.621984882017186 8.716499131735736
Pt 8.213767711537173 6.7668174838824635 10.460049199133222
Pt 7.559654716237471 10.938454565436857 8.848316527371267
Pt 7.1543334858638685 4.607023626901842 11.566499844432654
Pt 6.612888060943409 8.829541160347848 10.136693522737408
Pt 5.5758095140455675 6.6238264937611175 11.0907277369162
Pt 10.828309048733297 5.324529743200033 6.1268200586064365
Pt 9.954437868110821 7.91796948994563 6.426476719361408
Pt 8.877058538748717 10.343807538985905 6.64915682975584
Pt 6.428871935822077 11.247868074949176 6.4795935117468115
Pt 9.757822788850802 3.5926938221806233 7.851285359454172
Pt 11.182011914956352 7.169774392095447 4.280728410844175
Pt 10.086496792580782 9.694513188680839 4.4919745771008115
Pt 8.07834358966961 5.443221366758364 6.42515681274867
Pt 7.36109016498339 3.723428458060367 9.164283947078877
Pt 6.672259383549995 8.537579238231416 7.295482239418141
Pt 4.990834720519645 4.080595666704554 10.016729015036233
Pt 6.550724406264132 6.18337984247533 8.41887982454318
Pt 4.000423671330889 8.573585760038457 10.425471961696877
Pt 4.956570100512235 10.29766255563755 8.644659251416037
Pt 9.572056636260044 3.0566305936682108 5.299184625690621
Pt 7.400000928635579 2.715101209708004 6.849445606194485
Pt 7.347415873142382 9.810098451938277 4.38288046571213
Pt 8.92285061521093 7.786061303139667 3.22520493622464
Pt 3.8380939696887357 6.245852871457138 9.180085434097146
Pt 3.1463518742180616 8.369790674408218 7.926950345298121
Pt 4.593981543853554 9.506780939073074 6.147409499841455
Pt 6.887503612478239 7.253925241208325 5.05853495821301
Pt 9.351328187636364 5.271863892472162 3.889030456951888
Pt 3.654381045754182 4.073275420148223 7.806529213577988
Pt 5.255312213522115 5.68537286897046 6.248878329438051
Pt 7.187865652102992 3.913973202162673 4.423957014343181
Pt 5.058334409800603 3.0719457700293162 5.817986080806535
Pt 6.77981587844153 8.469188057783905 1.9801633100758043
Pt 4.999109944599875 8.628888911178988 3.81809906386519
Pt 7.076513273901027 5.918056025042594 2.7333805542005494
Pt 2.02599945057341 6.057098244447068 7.281993556327642
Pt 3.2904521818324306 7.422860907133638 5.429919109102776
Pt 4.834985342601179 4.784748074139962 3.7566623588455745
Pt 2.74490511975872 4.351449046794055 5.370312780238908
Pt 4.663697036968125 6.837733052456498 2.066602769273427
Pt 2.5855105627432518 6.077634671314076 3.3658659918441356
