48
Energy = -243.29432427 eV
Pt 3.449842345434188 7.440802301809357 3.9733044240160305
Pt 5.689351198609383 6.584480487038942 2.865811585949047
Pt 1.7206317441658576 7.9915099815649 5.9209301590009025
Pt 5.738491277701409 4.0689693621751335 1.9707849558208712
Pt 3.9196224900428143 4.8154074968636635 3.771298236414563
Pt 2.9566217062612075 5.675000308139859 6.066303293992216
Pt 2.327719728609988 9.599767395319153 7.927587673319332
Pt 3.965573726314398 9.365585229324502 5.760235191503341
Pt 8.00832577421817 7.869039725968834 2.9254329986389545
Pt 5.743666180042182 9.020141817713487 3.8603086971518343
Pt 4.996671410749102 2.365424563374843 3.8472515960679754
Pt 4.476711708217055 3.5690070035352783 6.134308768494141
Pt 8.034058394409193 5.210195680935817 2.783878012289188
Pt 4.677648766247874 10.593282066780093 8.027126227528996
Pt 7.72145248510699 8.023346126932195 5.578972107703665
Pt 6.25405325045852 10.573715748322563 5.9509985606124935
Pt 5.367054334251026 6.871352762348125 5.755152403054864
Pt 2.5152945499934547 7.038776513266497 8.2803025707837
Pt 8.20469453822552 10.228919584723043 4.1482854204997075
Pt 7.56012219864444 2.6137351849593853 3.275928050288759
Pt 6.828836298990317 11.84484447977046 8.349917365844613
Pt 6.501043180733748 4.725875380237774 4.829466465742742
Pt 8.597001962604697 11.644900573433238 6.366832680050007
Pt 3.8209159048192434 9.227556511632695 10.174110149280596
Pt 9.738686090774136 6.437358802666826 4.2743615254973
Pt 9.1969875448371 3.587497406159589 5.008620381337296
Pt 4.964149046946723 7.909984494685363 8.068915245151077
Pt 6.846454571465718 2.2979222877288437 5.85946377536449
Pt 8.743136966871658 10.152010828828743 8.507765170271696
Pt 3.784933673201943 4.724289771680658 8.41048524334688
Pt 6.473401874677435 9.525380884790644 9.883653232235533
Pt 8.392989482340491 5.658763349050953 6.474745165202791
Pt 4.182517199322872 6.68245219110386 10.312476914603103
Pt 9.898951591384828 9.4205886865862 6.077821901080217
Pt 6.260029193296411 5.5264378825127505 7.890120365956078
Pt 7.579630991098443 7.763202270667926 8.095469865934328
Pt 11.339254274158781 7.326903300312694 6.106428762416204
Pt 5.9563537059583265 2.9579194493144176 8.279575233926346
Pt 8.597565514779792 3.0925980142211755 7.554920802575692
Pt 11.406751833486304 4.7559244354621235 5.40735566169566
Pt 8.842558485629759 8.514642813227963 10.550608863164022
Pt 6.858967225709699 6.7707904603424405 10.545539820615334
Pt 5.351944643742027 4.430001807049258 10.533329052766994
Pt 10.256694428879609 8.057935370958127 8.374712923976924
Pt 10.701605970724565 5.472860748530123 7.784805680721784
Pt 10.241815227812832 3.6577583197418506 9.506034231451
Pt 7.756501504786115 4.219864459007878 9.823523309428548
Pt 9.579151695472902 6.080680963443774 10.115324078623157
