46
Energy = -233.63195763 eV
Pt 10.227195998122918 6.815009124886425 8.364614664910214
Pt 10.69545632618919 4.317728402342224 7.93838597673835
Pt 10.690525735644197 8.607820116328469 6.526539226548991
Pt 9.527428910286147 5.0678073643727055 10.197169412124264
Pt 10.657498459211661 5.71250679708203 5.669695937759578
Pt 9.345097309332129 9.3205992535886 8.714133466074465
Pt 8.205475914495095 7.3519289275493875 10.179013142585468
Pt 9.494752671349174 9.365598069486413 4.24440026702487
Pt 9.091652526695349 10.763090398146065 6.455513501777666
Pt 8.995347967461038 3.599528320048831 6.084220151472247
Pt 8.360026864423107 3.248820849753482 8.648701407969906
Pt 7.790915863002585 5.755942563567679 7.7386840609361265
Pt 9.500179568750166 4.265887959478815 3.606098150173952
Pt 6.593652493296832 10.738959233919886 7.482425247192606
Pt 6.899026860167215 5.0197694016254975 10.134037858916477
Pt 7.285805749373393 8.307262181973105 7.638850083413051
Pt 6.887251563016624 9.624965068924675 9.915202443467821
Pt 7.083929164800973 10.332161860646542 4.8721694986336
Pt 9.656213840710473 6.861781781794725 3.384804593979805
Pt 7.198172289846623 2.9143376819974356 4.238956025968533
Pt 5.510497675385383 7.342648591348303 10.26664202871416
Pt 8.628743468667334 7.304909115017551 5.712054684656232
Pt 5.110899492482948 6.87191241064135 7.699186885938465
Pt 4.284993183869336 5.028519671301938 9.586368290104227
Pt 7.452886610948832 5.6750094348559035 2.5824512656241674
Pt 7.390369577969909 8.336199424058945 2.9991796751937887
Pt 6.861690911052755 2.1508918380354336 6.768035644279002
Pt 6.038310906375413 7.85279751662788 5.356412050210581
Pt 7.002024697023683 5.38041435802001 5.073340102208516
Pt 5.083319778975885 9.651100213075242 3.2852906916919964
Pt 5.778486113364996 2.8262769728049735 9.1436739633217
Pt 5.626793191622561 4.409782491711572 7.009173868333455
Pt 4.563275083217652 9.38243809087336 8.533180527012059
Pt 4.546555164440941 9.9380356877952 5.8897189169599145
Pt 2.9564571602288963 7.3877998354147225 9.51800054391869
Pt 5.1329013015496985 7.023027924504646 2.7933670284216836
Pt 5.17549439751264 4.398750972709012 3.2878359440556855
Pt 2.498537048804642 5.5865638341816855 7.650028749486093
Pt 2.7797115173017395 8.203591897372297 6.988226237304412
Pt 4.257762859840679 5.979091798045328 5.4275944673138845
Pt 4.705745891860844 2.599805771111226 5.240867716300389
Pt 3.138969140634785 8.231207557767844 4.337600941889006
Pt 3.507058875124053 3.109995150239307 7.734295711983645
Pt 2.839311686316055 5.688691412980351 3.2442145701927525
Pt 1.4182932165629707 6.554374640132687 5.374409677763959
Pt 2.5227730680598577 4.092126127228347 5.462702794822921
