42
Energy = -211.94740422 eV
Pt 10.229037879115126 6.985848711245797 4.546049649148193
Pt 8.372440344360891 5.405077590430115 3.2660019522559582
Pt 10.243079099322223 5.226865315741892 7.789529343703722
Pt 9.286558612867697 9.375257722152883 5.264776366267298
Pt 9.94471762127752 4.3802470240062945 5.189057569918014
Pt 8.18602041741045 8.08634976150946 3.2792807711812064
Pt 10.394084531390515 7.840120492996669 7.131353413345036
Pt 8.700018889506078 3.141208075477534 7.171079973536906
Pt 8.253365384227205 4.6028562406565054 9.415951284752044
Pt 7.672104152776551 3.1294218873920254 4.5537361223620785
Pt 6.308841968232593 6.58679458706947 4.7823454045321885
Pt 6.449341195657261 6.78834400450737 1.8375611515468064
Pt 8.97170263142275 7.160119718048585 9.295420656078837
Pt 7.124470705572088 8.452045393441773 6.42597470096551
Pt 7.975944351723786 11.421378375019723 6.30724034624244
Pt 7.511518820583183 10.632218285060059 3.8103951801215885
Pt 8.433442981611275 6.257177113975431 6.278232229282096
Pt 5.601566905621616 8.854621854693708 3.4181091285902525
Pt 6.690613147936932 1.5447613656555086 6.486792460948917
Pt 6.9929294638302855 2.3483812130797115 9.020791983106104
Pt 8.708879221392694 9.585732056896843 8.146291306525576
Pt 5.870117661503369 4.555775879904235 3.1091064110502384
Pt 5.605975600371897 10.362413970939201 5.66851946752515
Pt 6.435101681409846 10.843959845056434 8.347844296248166
Pt 4.136507177793103 6.688156498571774 3.2403793241722387
Pt 6.5333122646484005 4.532947354693306 6.462644213836819
Pt 5.0045386038962265 2.826555005989529 4.917512766154243
Pt 4.784297126531566 2.870293103463436 7.72305912463277
Pt 4.506579812469168 6.0960194057785175 6.602867687572932
Pt 6.701762476364828 8.650298703109646 9.760301471246379
Pt 6.94305657797879 6.3601943696210546 10.949881558988876
Pt 3.836455201978792 8.421755510793046 5.37377108100745
Pt 6.5665323137579845 6.5394193864985075 8.101243903354575
Pt 4.699048339887999 9.003459628459218 7.8098859315550495
Pt 3.277525568371258 4.205702000399086 3.567724644764203
Pt 2.897444422509255 3.809404293170339 6.161722861231803
Pt 2.32482370306441 6.203498990276581 5.060740537715374
Pt 5.57758191383865 4.5337065720343315 9.640628286589752
Pt 4.49136312540975 7.027678748626668 9.695222195515242
Pt 2.605153508011198 7.451716979317694 7.6640273669630306
Pt 1.0347895162443097 5.4060194266665675 7.210428051120064
Pt 3.23743889272436 4.850682497522714 8.571936363711808
