44
Energy = -224.99379305 eV
Pt 6.547919711538241 8.429815331809632 6.547919711538241
Pt 6.547919711538241 12.076753319999998 6.547919711538241
Pt 8.68397647179376 8.68397647179376 8.68397647179376
Pt 6.547919711538241 10.309830596152727 8.486498704472641
Pt 6.547919711538241 6.547919711538241 8.429815331809632
Pt 6.547919711538241 4.666024091266849 6.547919711538241
Pt 6.547919711538241 6.547919711538241 4.666024091266849
Pt 8.429815331809632 6.547919711538241 6.547919711538241
Pt 4.666024091266849 6.547919711538241 6.547919711538241
Pt 6.547919711538241 6.547919711538241 12.076753319999998
Pt 6.547919711538241 1.0190861030764842 6.547919711538241
Pt 6.547919711538241 6.547919711538241 1.0190861030764842
Pt 12.076753319999998 6.547919711538241 6.547919711538241
Pt 1.0190861030764842 6.547919711538241 6.547919711538241
Pt 8.68397647179376 4.411862951282721 8.68397647179376
Pt 8.68397647179376 4.411862951282721 4.411862951282721
Pt 8.68397647179376 8.68397647179376 4.411862951282721
Pt 4.411862951282721 8.68397647179376 4.411862951282721
Pt 4.411862951282721 8.68397647179376 8.68397647179376
Pt 4.411862951282721 4.411862951282721 8.68397647179376
Pt 4.411862951282721 4.411862951282721 4.411862951282721
Pt 6.547919711538241 4.6093407186038435 10.309830596152727
Pt 6.547919711538241 2.7860088269237533 4.6093407186038435
Pt 6.547919711538241 8.486498704472641 2.7860088269237533
Pt 8.486498704472638 6.547919711538241 10.309830596152727
Pt 10.309830596152727 6.547919711538241 4.6093407186038435
Pt 4.6093407186038435 6.547919711538241 2.7860088269237533
Pt 2.7860088269237533 6.547919711538241 8.486498704472641
Pt 8.486498704472638 2.7860088269237533 6.547919711538241
Pt 10.309830596152727 8.486498704472638 6.547919711538241
Pt 4.6093407186038435 10.309830596152727 6.547919711538241
Pt 2.7860088269237533 4.6093407186038435 6.547919711538241
Pt 8.486498704472641 6.547919711538241 2.7860088269237533
Pt 10.309830596152727 6.547919711538241 8.486498704472641
Pt 4.6093407186038435 6.547919711538241 10.309830596152727
Pt 2.7860088269237533 6.547919711538241 4.6093407186038435
Pt 8.486498704472641 10.309830596152727 6.547919711538241
Pt 10.309830596152727 4.6093407186038435 6.547919711538241
Pt 4.6093407186038435 2.7860088269237533 6.547919711538241
Pt 2.7860088269237533 8.486498704472641 6.547919711538241
Pt 6.547919711538241 8.486498704472638 10.309830596152727
Pt 6.547919711538241 10.309830596152727 4.6093407186038435
Pt 6.547919711538241 4.6093407186038435 2.7860088269237533
Pt 6.547919711538241 2.7860088269237533 8.486498704472641
