40
Energy = -198.15117281 eV
Pt 6.839076290924006 11.714872526783006 7.627721510470835
Pt 9.181751170608573 6.508440510614638 11.564066732445806
Pt 8.148023067274892 9.41208067783134 7.433271677811453
Pt 6.306311025591484 9.790572597479011 9.286770848788509
Pt 9.244562073865623 8.003121849492285 9.344943597455794
Pt 7.2862704218261545 8.172775446074521 10.97233868427008
Pt 3.752966256385844 9.013989770502784 9.416447745610737
Pt 6.546596925624981 10.434598115306487 5.353559077129619
Pt 9.493233972503747 5.163545689386869 9.363933200633209
Pt 4.6545605890150235 10.227433195123554 7.174798614872922
Pt 10.998266528279421 6.742462527423036 7.860983057184575
Pt 9.983717629215626 8.314479406921636 6.034968547053823
Pt 7.039108769096568 5.497600238287534 10.442896017741859
Pt 5.948296276852157 8.024392356630162 6.343822411897642
Pt 4.952880322248582 4.711411544509391 9.177043237038173
Pt 3.071480842130354 8.11002933509842 7.091251867675507
Pt 7.928926400325642 6.6834289293210976 7.523890958691188
Pt 5.735611347553755 7.265843652048859 8.925647549468527
Pt 3.0147538250106134 6.499399011615309 9.25308715525694
Pt 8.80972553503957 9.816415042511274 4.314184255385972
Pt 4.708302702051455 5.811576280194366 6.756904958496492
Pt 8.917569917003773 7.228819098071245 3.8933461652796035
Pt 10.686135060177453 3.967584667301635 7.507242417305982
Pt 4.164333279645213 9.066277246705424 4.748435253073132
Pt 3.741731822926949 3.4055499401531946 7.316811539101488
Pt 8.661010951990175 3.276202455384508 6.08975212840379
Pt 7.334454093771222 4.126042509597426 8.186628120426958
Pt 2.451100849682839 7.0240348185853145 4.849656509010983
Pt 6.871637985916627 5.843384228597991 5.261004288812574
Pt 9.831191685364248 5.666722937115721 5.767847220827115
Pt 6.566913286950436 8.434958626965603 3.6712986481404055
Pt 2.0773800001932328 5.489713073715955 7.027507564812769
Pt 4.650913007356039 6.671678655570962 3.5055627455386693
Pt 8.717931605660143 4.623312181554055 3.674177818530878
Pt 3.482619520136221 4.61246617036194 4.836429014452572
Pt 5.997638193353598 3.3523780741967846 6.030108540556847
Pt 6.99279748882744 6.192948769720512 2.363811679017499
Pt 7.396782974931129 2.3892464668652287 3.9785326343489196
Pt 5.5033986271841115 4.137212571405397 3.3888127984948255
Pt 7.353659207726352 3.6222317849457553 1.653153867445898
