40
Energy = -199.16362248 eV
Pt 3.495816537713775 5.388967281928994 0.5814718490236183
Pt 5.954390896465033 6.44484345410893 0.47539277113982054
Pt 4.082600322443557 7.987712247421175 1.526894786262977
Pt 1.5969263491389885 4.132747859302772 1.9970090342218472
Pt 3.9577349332920124 3.1296257765179853 1.760394589756787
Pt 2.4070229407656245 6.461541397158904 2.839174318950869
Pt 7.254096915514579 4.800206349666294 2.1931388196410784
Pt 6.372480692959211 7.820253741939665 2.736351307743866
Pt 6.378997188943004 2.480518041480984 1.6435765464362027
Pt 7.501891920714404 8.6292360473512 4.909234793466497
Pt 4.881968296360647 5.488895666181614 2.8038404917420676
Pt 2.90185553665382 8.964084641347934 3.5731288547175324
Pt 2.22110075588333 2.3159162853851916 3.8368153611410447
Pt 8.60914944271613 6.6207078288748225 3.500607199668641
Pt 4.103783173971084 0.7728226200764083 2.7959700595366357
Pt 1.3307201254618526 4.751305265409449 4.583809911280941
Pt 5.962476385022043 2.090727078529592 4.08623169446462
Pt 7.418382554170955 1.6649582448180698 6.347375869364314
Pt 8.052027671998381 3.593740320290606 4.343067926783815
Pt 6.426616146802176 6.014014894373956 4.827931614835005
Pt 4.831938956275253 8.3591953692793 5.099809923875449
Pt 8.48467937601008 6.625520771239663 6.380656853168744
Pt 2.293671656860209 7.171885981137259 5.366044108460482
Pt 3.844072784430498 4.159368204409267 4.7434719886445755
Pt 6.000597595022612 3.8442969769583644 6.181001449574027
Pt 8.749408118447636 3.9759672684446397 6.914188221339737
Pt 4.0258920764757855 1.0799767647384202 5.438230907641735
Pt 10.100712527631675 5.080302066074508 4.9715459455340705
Pt 4.43907346247102 5.833758382419599 6.550502024532811
Pt 6.383888577311019 7.937425309102298 7.206693695646847
Pt 3.5897996473029408 8.237990516074088 7.431785388715891
Pt 2.451976144813196 2.901916648291078 6.520702493713465
Pt 1.617363104886387 5.3711962243762095 7.091745028531069
Pt 7.081824313796393 2.9044531856392934 8.650283852906894
Pt 7.020866642304624 5.515598066254258 8.24882460257722
Pt 3.4858782267464745 4.300015332570632 8.583156593285693
Pt 4.770876218979563 2.186034012885564 7.683359284270531
Pt 4.893160088864998 6.741272956367851 9.086479784515266
Pt 2.3134888480632982 6.650038991114581 9.206395132857375
Pt 5.540416714372884 4.400585798515335 10.113328788086099
