46
Energy = -232.61200312 eV
Pt 5.1900384488185125 6.353481961466495 8.73131806337032
Pt 5.871752053040442 7.871926631108003 6.717587469027674
Pt 7.499481363962299 10.856087000189715 6.268528503700191
Pt 8.650573063929917 5.673835042996791 10.838741696357078
Pt 5.220091719108593 5.427239909446858 6.196969456403072
Pt 9.983045109497377 9.786225152226063 5.55498298748582
Pt 2.837251054719069 8.470753959912168 5.455673024300937
Pt 5.045430420855801 5.7254674908752925 2.6922482086634543
Pt 7.451349542656105 5.984628936775613 7.4467276675632545
Pt 2.9726278886329998 3.920500108525302 6.32959306075256
Pt 6.735139492744049 4.207054399109348 9.857027437441136
Pt 6.7812890969478055 2.9757125111805522 3.7951743335622066
Pt 6.837785841615224 9.672214776937786 4.046156626384224
Pt 7.0296002163976095 2.3922314153879007 8.049486687939835
Pt 9.154544483315167 9.028359314820365 2.985933439648252
Pt 11.018997845656559 7.87849586571511 6.972262164270583
Pt 8.116843234991626 7.683961399235336 5.376761381319236
Pt 4.909954015111264 7.961602884733947 3.992046245346608
Pt 4.657665883980211 3.422789543029577 8.469709465614665
Pt 7.062187010507788 5.471375730398496 4.464581281621001
Pt 9.695496456644586 6.702541198597962 8.760990007040384
Pt 7.508773586827753 7.876598716075294 9.788935981953934
Pt 6.903539295243601 7.599437275210565 2.3888059035863023
Pt 8.806817965229985 11.449887362566658 4.03590338453058
Pt 9.196792655092237 6.454970807325212 2.9272436381447786
Pt 8.801400120522313 9.054254527072814 7.805957781275211
Pt 6.267858057002832 6.284076518460099 11.518088439005464
Pt 5.410641248842166 2.7650543298939425 6.039518919278458
Pt 4.96177428721468 8.585015162191393 10.24382561543115
Pt 3.8761004100501606 7.020499100284604 12.112033232514731
Pt 3.150222262165931 5.978080237671136 4.559289363911905
Pt 4.0767719768522515 3.554885914731627 3.9487234575786787
Pt 10.916743390185035 7.557879222936653 4.424717840280525
Pt 7.498864136088157 4.898654772942903 1.8134849224081562
Pt 2.3536595805786216 4.55205983328219 8.804667746693735
Pt 4.929010361618131 10.099065889185313 5.832821192945252
Pt 9.324391623419627 4.01855005787081 3.751260803525394
Pt 9.861619795413171 5.597617291009076 6.0471493596368235
Pt 8.175090757963043 3.4730551747525475 5.989132729602713
Pt 2.840074577373958 7.0348169480177445 9.675911179558804
Pt 5.378355782163422 3.3765121183135234 1.623390057539059
Pt 3.70982511733391 8.850943756478964 7.901328003241628
Pt 4.231737489628929 4.820157711907944 10.67071622839102
Pt 8.996145917032354 4.162136389687072 8.424647706945578
Pt 6.381954033888959 9.797032256149874 8.388149078807903
Pt 2.554527028905936 6.506109093084526 7.115633925169915
