44
Energy = -220.16046574 eV
Pt 11.623439743534014 6.061357103310534 5.668360246306221
Pt 10.862723140725954 4.55139367446526 3.6108300414444496
Pt 9.925433720914839 7.094502448523345 3.627031205881129
Pt 11.003051802398405 3.5694488384452967 6.172230263915534
Pt 9.973924181165435 7.943457471441479 6.218240034440587
Pt 9.894520524884095 5.747258909071532 7.832801305897187
Pt 8.55299732570442 9.29181936243673 4.51306395253936
Pt 8.414193345140808 5.046404278157062 2.74801051261066
Pt 8.94538931515832 5.317199590343469 5.431962114941413
Pt 7.292259915548953 7.511748006730711 3.0274065604828433
Pt 9.016213640825084 2.801932398498546 4.583535880467514
Pt 8.333621378531623 7.964086595468733 8.223707960894945
Pt 8.667865113384359 3.206553034407021 7.279497294379936
Pt 7.325502352872966 7.3507895447868075 5.842216405990873
Pt 5.940204486462425 9.491191477307078 4.178253398662285
Pt 7.890337718883695 4.789554939142744 9.28854675075833
Pt 7.029730426034777 9.927897645532394 6.794883636348389
Pt 6.918990990493401 2.8896849132256395 2.9890950508428618
Pt 6.293698902174741 5.216690651140682 4.464127700606342
Pt 5.879449498413675 5.441609259064501 1.9794659982480738
Pt 6.6954074651108035 5.106730197591536 6.982679820173735
Pt 6.676991530541939 2.3885766794505607 5.656210322634987
Pt 4.620993116013457 7.364278173029482 3.2841126182988987
Pt 6.210273285790681 2.932536295320731 8.273495324038338
Pt 6.55872455489317 9.516218509937113 9.366425104828604
Pt 6.869066493423197 7.024802286087595 10.217014859667845
Pt 4.985805689584894 8.294522626104177 6.48681006070227
Pt 4.680477279394768 11.043663765495147 5.989226417047534
Pt 3.358257473766928 5.12286367665555 3.0351261826215277
Pt 4.609545855799242 3.205910739887702 4.189162152826356
Pt 4.363189538108481 5.88774765650908 6.0062098701158275
Pt 4.276144909511954 2.2557363654870177 6.6000767925006185
Pt 3.3143475145653145 9.328471875772179 4.365057609607282
Pt 5.204429597025439 6.571329580124111 8.3829356031102
Pt 4.146940164294414 9.951691407181439 8.284936055759056
Pt 5.328314010401554 4.647621153633301 10.139886581517262
Pt 3.514225127881732 4.024703335386324 8.289121004048399
Pt 2.295362573268703 6.802820193144857 4.8064824827886765
Pt 4.417330176382601 8.179756947101648 10.222981147603647
Pt 2.3847587842189912 8.694507501105917 6.662931932995537
Pt 2.5832484790484926 4.086113934527681 5.700189486897933
Pt 2.1469404276476203 6.177795866265123 7.457649175421361
Pt 2.9801993374252076 5.935318369853877 9.992775556088478
Pt 2.0456204183077698 8.277294100383722 9.174880126797229
