45
Energy = -225.93497579 eV
Pt 3.5839742066269817 11.527073998546717 7.833887908699899
Pt 8.675502599310317 7.339403914604436 9.008144813834296
Pt 5.57853623908812 11.605004758453463 9.586402390180442
Pt 9.79193489373899 4.433891639564787 2.9278654579128647
Pt 4.5097386402743584 9.32516225529529 8.897848180224871
Pt 6.372783184583909 8.899951672989983 6.628469788935201
Pt 8.499562068460515 11.542181165244072 5.928579192981955
Pt 3.430963695638303 6.968411330755212 8.348931841299677
Pt 8.863777917118979 2.942726839996024 9.211207931748739
Pt 5.043626442336801 5.723577726422069 6.684265506213008
Pt 8.934470657762903 9.20472817590225 4.790611776403366
Pt 7.3822669105781165 5.174812435364058 7.5957808064097065
Pt 8.883340471439466 2.7942728992631802 4.79722445412332
Pt 4.613522356410038 8.653653746387379 4.522757841127201
Pt 4.935946279389496 6.17600013739663 3.816332928588592
Pt 6.6070717771144 4.101715115415776 5.411225240703347
Pt 10.313391673644352 4.939359528174043 5.47590021005262
Pt 7.185227251822394 9.472399145152611 9.59945266809783
Pt 6.9025866477495175 8.00771828188081 3.2512044738098305
Pt 6.604142450650401 10.388294304691923 4.45931882720135
Pt 7.207054779815357 6.725959029775101 5.502113462216788
Pt 6.2416377476848615 3.2302879100250266 8.98599819859125
Pt 9.903489083568793 5.123361389523309 8.106263006177059
Pt 9.637624286590016 7.24244837669035 6.539661204103097
Pt 3.825065309107201 4.006126133779481 8.381171570275399
Pt 6.499740802181726 1.5211384925511893 4.629437179608624
Pt 3.1688907712430625 9.14433618732955 6.694048142980086
Pt 9.375388060309644 6.84272989368015 3.877825170481807
Pt 5.249790079813606 3.559307345869861 3.2549636054870374
Pt 6.038596963196127 11.582498191509341 6.897256876595132
Pt 5.124880129524154 2.27429467921458 6.7559299036715466
Pt 4.148817981738488 11.12179784175758 5.221069910075914
Pt 7.698338692433175 2.0364541612301816 7.02694996620501
Pt 8.778969686456243 9.48185778534445 7.5113750333328495
Pt 2.5338050794569797 2.5514604724644094 6.672306308427518
Pt 3.4548901055715278 4.294754181626427 4.977663960776739
Pt 7.284806154210919 5.373528411042194 2.9658921843091957
Pt 7.749956461552656 5.162444566493737 10.2097525560259
Pt 5.047802293925037 5.367667529660787 10.131148314461894
Pt 2.9369281695898213 6.8868763068746235 5.496003721365062
Pt 6.048108312075257 7.285005879409579 8.721274715210173
Pt 10.26305776726304 2.7741373093028177 6.96858771241875
Pt 1.8940454108022502 5.103189033483622 7.0583182669720825
Pt 7.997362371138995 11.78993554555358 8.573191107710601
Pt 7.665306698909999 2.7847838362039985 2.5531052458689985
