49
Energy = -248.90457184 eV
Pt 5.862543851394433 6.364542584229939 0.842198990401313
Pt 3.4784930588118055 5.355931230306382 0.19329232494245238
Pt 5.3649728906965155 3.605259139402396 0.5831005814449833
Pt 2.8817292739255533 3.389289487117855 1.8098095823098905
Pt 4.607691946198135 1.3749237157841572 1.7348999552593665
Pt 3.6426524293156026 7.504383160542345 1.6808343566124286
Pt 7.705027599952572 4.4795093191834825 1.6559979411880594
Pt 1.5921053018836246 5.66200584714158 2.078740165699894
Pt 7.236063204392842 1.926975985502801 1.36257903354961
Pt 6.037900683062597 8.370598883500742 2.5684323828127376
Pt 5.432312292959815 4.890232467187479 2.9387049426706033
Pt 1.4121393087519551 3.7058197261502532 4.008640377550112
Pt 5.925279645147389 2.4053944714635374 3.678452433087683
Pt 2.8964141962127434 1.5568106512006958 3.72245358388977
Pt 1.4614757665681222 8.217811375051918 2.945056967961304
Pt 8.930240884808294 5.355006457445972 3.871171283264249
Pt 7.236219126606272 0.26355102715648504 3.6341064599221156
Pt 3.791069024669455 9.086871350135189 3.8489668214816364
Pt 3.2961557275518967 6.150306150302377 4.003472543117582
Pt 8.182697938753927 6.978569837451551 2.004248942440456
Pt 8.620168495983014 2.7147440766686657 3.484836911960489
Pt 6.20974001665848 9.696256805645918 4.83786316195325
Pt 5.6689544535896434 6.835746971583764 4.628688569827071
Pt 4.032135819615563 3.78224154388327 4.876669455323532
Pt 5.888889590695949 5.032016475773417 6.3853828255329725
Pt 7.539614673081238 1.8392692273339206 5.73599853693762
Pt 8.071507852324164 7.767378672399401 4.55154222645368
Pt 0.5518519476226699 6.1989295109191636 4.470079563381622
Pt 4.725381258574935 1.158095167652499 5.759607320472137
Pt 4.36551861991776 8.790548493558742 6.432750112794161
Pt 1.962929332221142 8.229028044193722 5.53631420328734
Pt 0.9314233228476473 4.607656745209598 6.521574098827849
Pt 4.6917883139408145 9.696256805645918 3.6626109834997944
Pt 3.337910279396557 5.621935632322081 6.551765204868615
Pt 9.481512037512038 3.643685968111973 5.738388059409654
Pt 2.152960860603974 2.3091210714735904 6.180900112720013
Pt 4.456220466142296 3.2287177247424403 7.54599993216975
Pt 7.732651408938894 3.617434368536067 7.709015595582464
Pt 6.889613401390123 8.066447375436075 6.903412048451005
Pt 8.374800808479057 5.898048107849745 6.425550682676148
Pt 0.2691194803438041 7.012752243066057 7.062377991335866
Pt 6.221406788466233 1.4520834426469689 7.977325994158847
Pt 3.457660360482751 0.9368675686980369 8.09154043161618
Pt 2.6246264672495716 7.587439447343625 8.043717841637212
Pt 2.137397170924516 3.6233383181851218 8.614067124658709
Pt 5.0406492931063624 7.971040075459886 8.8200756536146
Pt 6.744601835639815 6.021184264139935 8.608746321770859
Pt 3.984107494401221 5.528762771949153 9.140092739274374
Pt 5.940253364502987 3.7088445667038923 9.616525992514992
