49
Energy = -248.66278363 eV
Pt 11.117217653186586 3.4285876734615064 8.060947358968756
Pt 8.545090080824496 2.8916560490535512 7.666786799578006
Pt 9.334959002937216 3.788783573326227 10.027359637852284
Pt 10.458316165892503 3.390257412322833 5.4102812541819425
Pt 6.7424567640745225 3.7782612218195233 9.426396618734827
Pt 5.9764489382609245 3.082777167668134 6.941274144095533
Pt 12.145180514463139 5.342503502935188 6.6008178833222795
Pt 7.885399044310326 2.6309739685116713 5.176059872737531
Pt 10.541724979049366 6.002934039314195 9.093218218900173
Pt 4.271758952895143 4.095690653165792 8.660200999449607
Pt 9.442993673896286 5.264443069075748 6.9463790424060665
Pt 8.11597861968783 6.1769970837108605 10.204777006870305
Pt 10.117836450319233 4.222425226762565 2.9554278293095786
Pt 5.452742399174928 5.903215134617042 10.45020927246371
Pt 7.132509187176299 5.813358060163645 7.844209283556818
Pt 10.790928275210446 6.2243794073703915 4.552840621345596
Pt 3.5935346213069783 4.013068689837545 6.058202140707075
Pt 2.7697491986938543 5.69029374519484 10.168150261494146
Pt 7.58070425146696 3.6201534197329783 2.6760682635928323
Pt 5.488649243038084 3.4052058575082618 4.338805291692129
Pt 10.921431842648675 7.623520971932699 6.852646595970521
Pt 1.8240942315530244 4.696535005283187 7.833284117780781
Pt 8.113087381458365 5.165499907810151 4.726116956336616
Pt 9.037452690618224 8.188017734581006 8.740041516072568
Pt 1.9286916232907694 7.222213697271012 8.237149564965476
Pt 6.2321047363437305 5.891240630044392 2.8852694196070465
Pt 4.7062183683972885 6.64334544530863 7.950552644600461
Pt 9.662891897469592 9.90562705781121 6.820051836297983
Pt 3.870989991409071 8.103759152588978 9.900519484683759
Pt 7.273473020892463 9.925944207989609 7.835163516383551
Pt 8.129225906672959 7.480951939535798 6.161764972842665
Pt 6.557358723243955 8.255576070193728 9.775357627064833
Pt 8.927325952646395 6.725342480702123 2.8155006106880465
Pt 5.717063773552622 5.782537525545141 5.658618194595766
Pt 5.035827464128305 10.282971036548982 9.018872120815061
Pt 5.626914331399048 8.380582563704612 6.173891469643689
Pt 1.4801998562262089 5.410881820406684 5.2908007113914115
Pt 3.710431569049654 5.307968546835444 3.620638930310713
Pt 3.3476704628735323 7.041616735389858 5.823419889472461
Pt 9.673223151782556 8.702045314969372 4.456103640552112
Pt 3.0922664513012115 9.500190174843423 7.573283510222461
Pt 7.64090107750744 10.364760466217989 5.22371332501674
Pt 7.1128415990578855 8.367643935182125 3.540510178082285
Pt 5.138615330101577 10.897163308144004 6.406244724079668
Pt 4.568363064820324 7.846700348312108 3.4451421778888838
Pt 1.1449380367907636 8.478428216480665 6.105753361033655
Pt 1.9630920366166813 7.529474053182386 3.6434626998703026
Pt 5.425545501721286 10.315049390480757 3.838956538162479
Pt 3.144125903706042 9.708991300296216 4.899301857453579
