40
Energy = -200.12760856 eV
Pt 12.047077959132078 7.159191813801082 5.990987717448495
Pt 10.521145675338932 7.024803855578897 8.133414013291073
Pt 10.533201053602362 5.043037233146498 6.308832047578437
Pt 10.136574722895618 8.97233586366116 6.281951670695846
Pt 9.604127952863594 9.39373179184194 8.871296597839844
Pt 10.044168613666772 7.0899088438886695 4.314329735092292
Pt 8.881375748779577 4.972713725930892 8.469100262042163
Pt 8.856974355912305 3.1187981538374356 6.50371871755098
Pt 8.332051489430961 6.938472479448172 6.5442742854320715
Pt 8.417928431980862 7.230383411385902 9.737944923903168
Pt 8.512182428173729 4.925701639412396 4.541605420727267
Pt 7.044309853755215 3.1163541054156965 8.56999683393781
Pt 8.0156946628527 8.840769102441685 4.6184377498145555
Pt 7.116556374091839 9.662199133159607 9.607380846254596
Pt 7.904279100821847 6.896402497815156 2.8464121515335696
Pt 7.845257780036246 9.947976694512624 7.027317046435064
Pt 6.9380820368930545 1.237030139752878 6.798837010991096
Pt 6.88544910186552 5.118903307270505 10.1840932284207
Pt 6.394921782196501 5.130732597553842 6.945406650422859
Pt 6.618699614735469 3.1973469861446824 5.123384387800688
Pt 4.478419707813872 5.571501299811434 11.217202433111236
Pt 4.714741982703812 2.5888707180763095 7.068108467978188
Pt 5.906716513711461 7.117612570813051 5.405050636980943
Pt 6.325565383387787 7.479568385715849 8.087293733043326
Pt 5.972144989268755 7.600883700334323 10.807223783405227
Pt 5.884844916969263 8.837097343928404 3.160424798483566
Pt 6.074510211566011 5.144318685239514 3.5592577585884757
Pt 5.831896969391014 10.165621105072116 5.4162615627118
Pt 5.516383473234344 6.780957664480808 1.6366895339057823
Pt 5.6030232081994376 11.057694351649555 7.8609039157855
Pt 2.6917582403326885 4.213115882315139 7.240998284847506
Pt 4.649720686884572 4.472192040347519 8.890805354812773
Pt 3.4112921010442214 6.542661946381095 6.315697135494743
Pt 4.529525807040649 9.507406237892479 9.696878679391864
Pt 4.168041004575169 4.176067872073688 5.026913708080482
Pt 3.8624425948858545 6.97089613903133 8.986160206904286
Pt 3.694629876990532 8.644669636590947 4.697197450422138
Pt 3.6211918620569024 6.223878046142315 3.5927808922601514
Pt 4.184552037303622 8.89835216909303 7.184802055703259
Pt 3.506607595239228 8.405079994312281 2.100240652858209
