40
Energy = -198.64293577 eV
Pt 7.104003527153269 2.827360545880232 1.9806165020289994
Pt 2.574160112743799 6.184717700413138 5.678349985871422
Pt 4.112774575053981 4.114946350476643 5.951558280810032
Pt 5.385542010378948 3.2398931778667968 3.858111427317059
Pt 2.567592988207366 7.894899604385528 7.623043278722207
Pt 2.7581119345885776 9.765287397075749 5.860666673749764
Pt 3.9904920460785878 8.20019339110298 3.2146799019153387
Pt 4.732027862762019 3.209587049741785 8.369364557480456
Pt 3.433739884779117 5.508901750097014 8.149534880318098
Pt 6.341852502400809 2.6125358067116253 6.317633207815572
Pt 7.1706357326389245 5.048126762932462 3.267489255209331
Pt 4.463567109619731 5.692593765616456 3.8631225732606342
Pt 4.614366148777172 7.881711423854066 5.714066152987986
Pt 3.68066511603139 10.161147942087036 8.328788677416153
Pt 6.354399075816503 5.13318391027487 6.936084774806767
Pt 4.3340864950210385 7.751094091115996 9.50515556407231
Pt 9.190732404622652 5.078442086504169 4.975727589210951
Pt 7.299028638353584 3.326332552446564 8.77030880764292
Pt 5.590528026939156 5.377913798001678 9.652222440357896
Pt 8.058881528058846 2.7478720425778675 4.373576108658547
Pt 9.023381983010148 3.125000321933195 6.710547868089001
Pt 8.248754727736369 5.411881371806073 10.071050406378236
Pt 5.373421957477513 10.284752742642333 6.2125660414822885
Pt 6.181442477688025 7.212229644538552 2.282578220214388
Pt 6.162545080636338 7.562173078381572 7.779300046458592
Pt 6.9918545675829105 6.893015309255089 5.228145699516287
Pt 8.475525723945612 6.3938279093249495 7.715992345730069
Pt 6.848476264172317 7.616357120773169 10.38497361422826
Pt 6.331640610713596 9.228856166808184 3.9892114745348977
Pt 8.712593924570193 7.177333867123636 3.3593954489376743
Pt 6.258120752783209 9.978296903712767 8.74509356612874
Pt 10.632917681845022 5.241094627224563 7.201558092744189
Pt 9.867306259021552 3.6190942571069833 9.144974411514895
Pt 9.657296893914841 7.4617756143364575 10.75037578841637
Pt 7.844248427396158 9.385609647814968 6.57991713983524
Pt 8.884719113805298 9.613632825108743 4.262996844766552
Pt 9.91733782026017 7.542375484071193 5.808582081478277
Pt 8.62941162281482 8.99909264589371 8.988239136282074
Pt 10.73907402802631 7.593032271607416 8.369545095507236
Pt 1.6669263175843012 8.108010996383959 4.2290399931141796
