47
Energy = -238.37202625 eV
Pt 2.272993847409418 4.984760336993159 3.1733144325254026
Pt 2.4593687189434403 7.441164672521769 4.127287609782722
Pt 2.1830398214111946 5.402054142844804 5.810026944641392
Pt 4.302918042101265 6.539996211874291 2.243076189019181
Pt 2.8638357737163074 9.894912619870144 5.023157278479908
Pt 3.9488963721226034 9.093207580694974 2.7108930501144366
Pt 2.528613674961913 7.867500759031653 6.710869226325987
Pt 4.548639388399427 3.9365166890309604 2.358182029431074
Pt 3.62647290708089 3.230425258631809 4.821632805214166
Pt 3.061660399221711 5.851170933935455 8.31778566874056
Pt 4.569618817724727 5.686197460726438 4.736412328905673
Pt 5.185704129928394 7.913246132316081 5.899779009876095
Pt 3.026293802573875 3.4501008689043497 7.419850540266572
Pt 5.517313524982039 5.667538719110503 7.208480546656113
Pt 5.471519096413779 10.1227448642355 4.592735470268237
Pt 6.363964602584575 8.127728067824808 3.0458030207743896
Pt 4.135416688089044 9.92233251097552 7.366590784232811
Pt 6.790838888260936 5.543133150030423 2.5530588987023415
Pt 2.9860153844027955 8.288960544300561 9.210863147859163
Pt 6.249958323844354 3.452795651986122 4.2684219943523525
Pt 8.004897769351567 9.399133821584826 4.7594519741930785
Pt 5.492831970057949 2.952390634602967 6.775149353138008
Pt 4.964299153886019 4.104391812553241 9.230517297300734
Pt 5.036952094156644 6.7111153443726455 9.984651780732937
Pt 7.099695876381861 6.280890059859069 5.157264254617246
Pt 5.23094147678008 9.45398611550761 9.739798759000138
Pt 8.711030386724124 4.482527626679932 4.022653405522702
Pt 6.568879302809757 7.979463247612692 8.09468721027363
Pt 8.00212149306328 2.860071427882314 6.032975393735748
Pt 8.827512860078574 7.124620623566659 3.401522535147414
Pt 7.275003523619748 2.84228091873343 8.778401336576245
Pt 6.725762949587808 10.374745184290282 6.8416731498237215
Pt 8.022605762683915 5.0239337534256014 7.561470441445853
Pt 7.186960472216256 5.204511496819255 10.184913427535983
Pt 7.672364240815196 10.258403118528367 9.265880930603988
Pt 8.649172954634802 7.356110013036844 6.799562903936229
Pt 7.491959198743412 7.839282937635825 10.455956922469817
Pt 10.573633237730114 3.4043399395750074 5.523226131211016
Pt 9.783496689673049 2.411516412066462 7.879113546861257
Pt 10.530329759346847 5.995515877296787 5.357959966718158
Pt 10.456058221636379 8.542993975147677 5.0486356842999776
Pt 9.46801157896892 3.825693543552252 10.049715921163374
Pt 9.335854294605051 9.847829159012733 7.124996258805003
Pt 9.596785963652902 6.371825899597102 9.657541710820452
Pt 9.853923585475822 8.88500287770098 9.606843652890422
Pt 10.661191612296737 4.879513217392578 7.780691464991325
Pt 11.0391517236833 7.559500318794602 7.621579732434315
