43
Energy = -215.46181428 eV
Pt 6.517979855195346 11.086456605670142 6.304087710857337
Pt 4.209961514779603 10.310468568741848 5.422796429425215
Pt 8.555448376400548 9.369708852808422 8.1386032615767
Pt 5.952270559552652 10.126972234684922 8.686324552781455
Pt 8.697251455511612 9.764260839478286 5.464155173172716
Pt 1.8878298550524284 9.667394893618182 4.556900114406243
Pt 6.29734414706942 9.31728656741147 4.141323668964223
Pt 3.914330848719818 8.346490166123129 3.5595600277804853
Pt 10.685840132562603 8.34929272650096 4.538335362308184
Pt 3.883792397364566 8.881379355817574 7.636214609724395
Pt 8.40103914826499 7.918568958506625 3.417782348989003
Pt 7.325135275314632 8.627423752445042 10.40238712814344
Pt 6.602816142847653 8.486997068901157 6.752277726524067
Pt 2.077091729167249 7.743716336454017 6.21013173753963
Pt 8.529265021511726 6.737502695223604 8.982320755008931
Pt 4.6970553990691135 7.075830627804757 5.7366871727153415
Pt 9.54678205088759 7.405335189911692 6.691747155657384
Pt 6.054562472108956 7.0142465285796005 2.85155709596419
Pt 1.6823688640662935 6.989605457945178 3.689806149787471
Pt 5.004070236262716 7.655389117282681 9.664825121088873
Pt 7.332778950051271 6.379212775457509 5.269878322071997
Pt 3.370648410765676 6.250771334524179 8.032496686092015
Pt 6.772303666234001 6.094266406735039 10.908556747921068
Pt 6.178811039958553 6.277711868542601 7.85409313398007
Pt 9.843496797489284 5.859671408169971 4.500758265806339
Pt 3.7330953116800325 5.702860082509373 2.696349217591711
Pt 5.221178983066645 4.792204773210277 4.627885765784048
Pt 2.6078950941460404 5.30222868502434 5.522844120939263
Pt 9.326092643115782 4.876695667073801 7.361574354835266
Pt 7.876839382741802 4.143002082991656 3.6786335614969223
Pt 5.021322767740139 4.61227591509022 9.451823849604894
Pt 7.730539625398709 4.187056033094193 9.355412215233002
Pt 4.035833893478316 3.7660218858696504 7.121276442941088
Pt 5.995384453027905 4.61304360632146 1.8499778204240445
Pt 6.793192631919562 4.1527808878111925 6.598440412736097
Pt 3.316833810229977 2.9694142628057123 4.626517608374655
Pt 9.780435716673008 3.3906981370274467 5.294484012962809
Pt 8.689598475013506 2.3559763204888005 7.634817028968342
Pt 5.947466641773381 2.394344646807581 8.420891224129376
Pt 7.568734749542524 2.019616739483694 5.2221054111317615
Pt 5.056017889054215 1.5521053687243058 5.915283401252484
Pt 5.687351859670147 2.5268875614759403 3.445418891159771
Pt 7.005925761235571 0.3591719967588595 7.144650730175707
