42
Energy = -208.11783274 eV
Pt 6.577372943219652 9.041511017042094 3.1745113634633153
Pt 8.001237327405752 6.749702388302329 2.424799356775782
Pt 9.080841174071438 8.829578842255435 4.020524848074857
Pt 2.7351755007180674 7.127146190058545 3.241076355801629
Pt 5.247723396700917 6.8724706010759 2.466749183235633
Pt 3.7321547163896907 4.659436877646746 2.6125911193256837
Pt 7.104150832856923 9.36330241802811 5.955385945295577
Pt 4.474906818239937 8.726942662455702 4.755781948280303
Pt 10.15562395397128 6.375263682627444 3.9147329047197665
Pt 9.7970990970669 9.957257587104039 6.374227645687604
Pt 8.757993692051777 4.31436464104771 3.633061630206365
Pt 2.243005303769419 7.474282366846749 5.765449303770233
Pt 11.44021356676349 8.17130727497858 5.318432024089829
Pt 6.84038843489724 6.878497313048538 4.667780862555427
Pt 2.028640503168211 4.885097502142052 4.568533908797196
Pt 8.856132463773049 7.251138773836419 6.186604795428847
Pt 6.262638397609778 4.473579729525209 3.155195231174624
Pt 3.608727508256001 9.166694573896368 7.254733921956938
Pt 4.386261314876913 5.843737567405442 5.03045340174367
Pt 4.531261717150374 3.133647329109819 4.87983000078089
Pt 10.89564722873132 5.615074271928006 6.272507444837947
Pt 5.461645625399911 7.289093470634686 6.91313220825897
Pt 3.614217531726041 5.371836354343452 7.526398554299047
Pt 10.824968368537341 7.731183639031099 7.87924299415786
Pt 6.5617118850584975 4.744035372959004 6.051026856814746
Pt 9.000535876743673 3.827656955430918 6.25600305045786
Pt 7.149073972593111 2.554573798998384 4.7531332897948575
Pt 8.438629878377848 8.899625825779895 8.33934329898204
Pt 5.912624072944827 9.401813862646957 8.445976867196487
Pt 0.989950036191686 5.341143487587408 6.9101892867226
Pt 2.0025520265887917 7.360310928740559 8.358697636176556
Pt 7.444349690211794 6.157444627424936 8.031502042254859
Pt 2.525346927690953 3.1763513224611426 6.542379743709538
Pt 5.031880657264283 3.195429888280127 7.552808673842759
Pt 9.73381862250504 5.034643843917669 8.569691066566323
Pt 4.453069922270753 7.457918729484218 9.443847573211206
Pt 9.607171755441582 7.245751117254458 10.117925419837297
Pt 2.9458490288070993 5.425804946007932 9.990338127676948
Pt 7.462153143770265 3.5150384725435124 8.508941945897616
Pt 6.981707393978634 7.639542733346279 10.150122857147025
Pt 5.5265752177792065 4.936135561733895 9.680153617155709
Pt 7.978560064312516 5.192142038326061 10.610798514934562
