46
Energy = -233.72294202 eV
Pt 10.063261472794213 2.5438469689364425 5.487226329297138
Pt 7.612609880777815 2.266892404613226 4.397932156485091
Pt 9.30859968119408 4.407074455992852 3.7611450638444763
Pt 8.03268080742258 1.4376407512403435 6.805787383012715
Pt 5.554423873618326 2.183588397867047 6.0369986029048555
Pt 10.622347691673266 5.020550536197282 5.974379480914242
Pt 9.187027726054032 3.5708567776413047 7.864069557306814
Pt 7.333920682829505 3.6027819979242794 2.1855757270532763
Pt 7.706652937929089 4.4942141551281 5.8641766843570045
Pt 5.2288722178311 3.441832386650198 3.7247604203088036
Pt 4.11886134273799 2.5086646408355215 8.186527733205633
Pt 9.466499255416883 6.963426667823755 4.305325492622989
Pt 5.361341288616621 4.834114397541175 6.966800403419311
Pt 6.724849496802419 2.955655613561172 8.471407430366886
Pt 10.240516304952058 5.896746090624206 8.531923612125302
Pt 3.3787790747849247 3.6456041888808612 5.594536714937765
Pt 8.464486046184911 6.688160469387749 6.915511358390508
Pt 11.205598857570976 7.537857796792169 6.218115377060848
Pt 5.270449477430566 5.115824755997397 1.6601085269991993
Pt 7.594567394874519 6.191819669873567 2.6667985766539237
Pt 5.938726609571874 5.8675504311250375 4.652284251300169
Pt 7.758664340976803 5.21848854666754 9.472900541921527
Pt 9.830402835255393 8.58799977364569 8.17712342370231
Pt 9.203837391823798 9.233455802448093 5.665442444969313
Pt 7.8693044524426226 8.095434564291669 9.759729936584739
Pt 5.175972777372196 7.519604000556882 2.7151522117165268
Pt 3.409801030281413 5.4704029468197195 3.588428461557539
Pt 5.0010673457179395 4.537613092571772 9.671907600794444
Pt 6.619690590911937 8.079058019136896 5.845254954400667
Pt 6.158574506251204 6.97384718862266 8.13544837594328
Pt 7.559647096960534 8.706516250911545 3.5103597493745484
Pt 2.8418327243441768 4.739186475320998 8.098840335163775
Pt 7.247315402417544 10.874209275645196 5.248544554873812
Pt 5.891253288249069 6.747678474904789 10.806732413778459
Pt 2.0201738576622468 5.920477456984579 5.764045531885396
Pt 7.52349833367483 9.873070967727772 7.770643413190584
Pt 5.158489476948418 9.70519483653783 4.177070570077321
Pt 4.252777613437954 7.147064172167585 6.23644736896862
Pt 3.039579471118923 8.064044190493101 4.142116778967156
Pt 3.701646617487718 6.960470726693729 9.404548684036325
Pt 5.358484367147764 9.159552333931465 9.238694192209296
Pt 5.136311663097886 10.362830608523346 6.8294593470906015
Pt 1.4406683024350877 6.90981147451891 8.136699905019901
Pt 1.2381993717188922 8.472859499720073 6.0393294463348
Pt 2.9318741497797074 10.38199437195873 5.407845807971351
Pt 3.152507191956742 8.996203623164758 7.764569800646213
