49
Energy = -251.18070035 eV
Pt 11.206102573916544 6.766279062758006 7.751546933987246
Pt 10.246163610518602 6.231195607936886 5.354847345257692
Pt 10.591599068069442 8.745944262302107 6.141477522517782
Pt 10.12457986483633 4.3506387229684815 7.4480238740596185
Pt 9.2668745455775 7.98396054560139 3.6063628032194033
Pt 10.010909504593618 3.68860669672008 4.896764934193314
Pt 9.435389636731472 10.48103785025394 4.484532526678102
Pt 9.533163986980913 8.579859882284449 8.670887634859227
Pt 9.418679615494419 6.031787871593727 9.534781854686054
Pt 8.487190515966361 2.448505312435489 6.726388166069176
Pt 8.16163537003175 6.035770607612733 7.265910125090162
Pt 8.723373811517066 5.375045654424976 3.2549406712530633
Pt 8.703821258179921 10.621907496237746 7.0324951140117475
Pt 8.03481452299898 3.6877845333200554 9.029101381875046
Pt 8.040999169934365 8.363281266519282 5.909571459425851
Pt 7.666669253282327 3.0659373002983146 4.091554106695901
Pt 7.628662546648007 9.838937775433184 2.625403362978655
Pt 6.559261867214468 1.1053337089773108 5.484041065262639
Pt 7.6675535267407815 10.267683682422712 9.416063099595572
Pt 7.612769476234997 7.856585741273488 10.47113493671847
Pt 7.332275718045196 5.312846973159658 10.934688304354637
Pt 6.618349426090211 8.032714189292564 8.058383223568487
Pt 5.818221826771866 5.618401488607044 8.331215079899987
Pt 6.878252984067266 10.75318506879695 4.992657401031178
Pt 5.46688111224149 3.6819067716573057 9.959330772710432
Pt 5.496417828789454 8.355536851616066 5.76324278449956
Pt 6.945724070958436 6.2788845281420445 4.8543666203958376
Pt 6.493970276952588 4.148767104655989 6.2731684165199795
Pt 6.135064648536249 2.091593602935358 7.922707832468163
Pt 5.1122639518977735 9.328360135298881 3.359850342464923
Pt 6.01453522961644 4.833870304364567 2.85460577642188
Pt 5.126568328670693 6.659695785598478 10.590907994394613
Pt 6.790257451312959 7.3628592331286615 2.5277785121288012
Pt 5.2861501874982 2.351132649966101 3.4405360317276608
Pt 5.991797711176071 10.796384835084304 7.502254050951918
Pt 3.0536263115574256 7.842492828291293 9.49101696888271
Pt 4.565554314668478 5.90326315784887 6.075673915971013
Pt 4.350286706571008 2.5289690763132557 5.862079389949025
Pt 5.205073898791708 9.299207942256617 9.749856412182595
Pt 4.275876265517279 6.795215767567893 3.3233646026871417
Pt 3.3084586977414223 5.3121821578617565 9.011384569008596
Pt 4.307103791402455 10.874339695198328 5.439628826461107
Pt 3.606183889708531 2.808796869228127 8.318450469784104
Pt 2.3993205119174563 7.066442377748898 7.09271792300764
Pt 2.9992555578125213 8.653652815790709 4.952153494984192
Pt 3.6456045567750643 9.429070488510426 7.541142926380774
Pt 3.6174761490081773 4.2901615652548974 3.956750870867773
Pt 2.542849570112345 4.369059982817506 6.50191743909799
Pt 2.0353304347002896 6.233867306009185 4.661285263138493
