43
Energy = -215.53829859 eV
Pt 9.554656687206847 8.313592666104519 10.019463924796025
Pt 8.876409085774855 6.048292612714102 8.89154325543337
Pt 7.763228659518801 10.180138618704426 9.239560117910234
Pt 8.980666311882239 8.622833708362718 7.525962697510449
Pt 7.03838825540176 7.798503595447581 10.20452664510422
Pt 9.32832117073957 6.415758425969938 6.159555020394604
Pt 10.054213664508797 4.26063260683339 7.452758638093884
Pt 9.284201606215394 4.097064417013404 4.632980354681089
Pt 6.2698404272646515 5.408073808082986 9.608159561134576
Pt 7.839559149824134 3.5838962896689424 8.65014847920312
Pt 11.149006435494751 2.7291346043396696 5.716868452342392
Pt 4.519122100207785 7.26286778216008 10.37353629896437
Pt 5.277551613742181 9.295732772059974 8.816809037662884
Pt 8.73512906030599 2.1506436650518856 6.504434750887521
Pt 6.742955109282598 9.943808990203038 6.7520442924684865
Pt 5.421988177744954 2.9366721832377842 9.552252972587198
Pt 7.07382888768359 4.877602438470206 6.424791391311278
Pt 8.196496334770137 8.510262245024549 5.045228277368283
Pt 1.9468950796583613 6.647999324075051 10.071105750049782
Pt 8.882672175348816 6.448530698618785 3.581526465406486
Pt 6.638103515804084 7.2575363916772275 7.509554741258635
Pt 6.2413877857834335 6.666683062409024 4.730448591288052
Pt 6.135785104354967 2.336702813280875 7.086238204038695
Pt 5.75425143606678 9.32756556650386 4.4193300770323845
Pt 4.692051672106436 5.860315727408046 6.6563048200090185
Pt 3.779768324638763 3.476863237528846 7.498710371570458
Pt 7.5770767884946 4.357845044248008 2.6531920245554024
Pt 4.104060646155714 9.505567273433293 6.4601884903738105
Pt 7.429110548081744 8.474084941590283 2.5405115513671586
Pt 6.912111832355408 2.814136450620352 4.654920892608107
Pt 3.6654478607376615 4.768003002979334 9.785886482929715
Pt 8.200388290267655 6.3997562054902435 1.0582248013476834
Pt 5.0733836515766555 4.40303556579219 3.6550453512710677
Pt 3.2175775855038293 7.869644581251666 8.185744832020983
Pt 3.1119853045553616 9.189192302247411 4.048363370825144
Pt 4.3310330890241815 2.4214775603731673 5.166216758007477
Pt 2.047553648214248 5.536111415807377 7.662427059458798
Pt 2.895122616308809 4.697776757843441 5.238696861318659
Pt 2.4269030679073125 7.293186967569323 5.751247717507207
Pt 4.6902559646360835 8.607884353299044 2.1293507124585274
Pt 5.731010539386629 6.132375579025331 1.8868734580764241
Pt 6.285393471308039 8.086824386081052 0.20020780680298864
Pt 3.682808456758367 6.617027549225824 3.5306407456016626
