42
Energy = -209.8257406 eV
Pt 9.474173157895045 6.91802294321841 4.252495804291456
Pt 8.887997629825367 9.404170865707629 4.505093938904055
Pt 10.901041841510365 6.106768897412647 6.3456875105356385
Pt 9.532668312569662 8.392400294424785 6.9007909781172465
Pt 9.987271362320499 4.373159961687032 4.359982740197918
Pt 8.295877645494771 5.268889489309863 2.450343820436943
Pt 7.461104211961954 7.848339851064691 2.8151812993478096
Pt 6.343696108087112 9.899363348734964 4.0694139448433635
Pt 9.174478264642815 7.789726155891013 9.420494538485164
Pt 9.016035682557726 3.0928652385532103 7.13455172941902
Pt 8.356077210027092 5.405792428401302 6.223263057171532
Pt 7.229266328644548 9.152941965065853 8.325171531885932
Pt 7.173481161636828 7.863055038319456 5.883154193014831
Pt 6.471891960067983 3.3548033885073028 2.5338756359227292
Pt 5.691159173029438 5.901506182085253 1.9721768841608376
Pt 9.7438017730172 5.3502626853746 8.53468323226911
Pt 4.852698360308147 8.40021213012592 2.319284655761174
Pt 7.828333642130248 2.9723875064679777 4.74889256969737
Pt 3.723209578916851 9.5953357859296 4.492792021757706
Pt 5.475170657118783 9.90194498698825 6.553505113233422
Pt 6.601124925345449 5.459307718194856 4.3765940304565785
Pt 6.431891123797806 7.574810914609943 10.400271897037234
Pt 2.888615987347455 9.67118170644965 7.00309851696037
Pt 5.431796880936851 1.9357147993355586 4.529272630342454
Pt 4.9461395675441215 7.35418993600188 4.673010543656292
Pt 8.424069104163163 5.679240023408796 10.803158493955088
Pt 4.6271769401964296 9.011332065808203 8.972496473362089
Pt 4.824756790447476 7.100659161197834 7.1917455499288545
Pt 7.164860373552062 6.427732798470451 8.243780891770454
Pt 4.24845830926772 4.137695698620858 3.6820441275236586
Pt 5.773022179022496 4.804459078994204 6.703741525423054
Pt 3.141214109424046 6.448078692835931 3.130593884082598
Pt 6.394400479075883 2.3693817685681378 7.012878763412776
Pt 7.431082788844209 3.8317113172281587 9.074426750919358
Pt 5.921568892597943 4.942512684400881 10.888587740745091
Pt 2.4272004368151516 7.369668931284619 5.814980648811693
Pt 4.11284394828801 6.331412828114873 9.694960488040364
Pt 2.2328029515359775 7.674360090578268 8.508958621258694
Pt 2.201472976647722 4.877227849808253 5.036074066713543
Pt 3.848804328590669 3.19675542515499 6.26062310564866
Pt 4.693624375876215 3.79599663428138 8.824758047824155
Pt 2.8376689954535768 5.259293819245099 7.567819854179586
