45
Energy = -227.28351977 eV
Pt 7.831585208431727 8.814177930733893 6.656692818038127
Pt 10.469852515986332 9.182751689072942 6.7300589347545445
Pt 10.266809370345278 7.656159074010492 8.904123951307174
Pt 7.935115489962829 6.675635571650303 8.153233945912822
Pt 5.361350142399654 6.598842389477277 8.044863561528745
Pt 7.923728358481512 8.191205680009368 10.254711068127744
Pt 9.175431492631821 5.850543004854795 10.625912399726852
Pt 5.176415261051951 8.197149268028443 10.075746821092022
Pt 9.105060820316746 10.083066134904325 8.734214443866628
Pt 7.274143626831634 10.363398265749867 4.559564929156281
Pt 9.810011521806022 10.462076801959666 4.6657461535319396
Pt 2.9195839344081227 7.588951619309494 8.454586549271466
Pt 7.8996936266793165 4.055356536340872 9.280850257814015
Pt 5.192859853216768 4.073281864857261 9.215726026926298
Pt 3.8522358454869554 5.950566006003977 10.417101675118872
Pt 6.515061970260209 5.941744361686232 10.665883798971807
Pt 5.263289564624133 8.737273921277614 6.577428935279313
Pt 6.575975691005838 2.302517779502141 7.876135923474734
Pt 6.577699393452269 9.986650159603823 8.805317867719967
Pt 2.8595688260309973 4.965982801737485 8.182778642068744
Pt 4.68061958028944 10.233326362264288 4.519896203238682
Pt 2.736600932352402 9.197190080800729 6.294487895989373
Pt 4.026029020882332 10.034151737686532 8.498418020835423
Pt 6.462115740556453 3.7594171787204456 2.8341431307552583
Pt 6.5401361768889705 2.7150034244139793 5.237445527588062
Pt 6.842632957734383 4.931350786296369 6.587134539126394
Pt 6.000981242614895 8.491002473374898 2.992348485791545
Pt 4.227331635664701 3.655529245337407 4.1421913898897635
Pt 8.578411820394944 4.172979922362396 4.276103038779111
Pt 10.209194118596027 5.0075557085632845 8.287334712885395
Pt 8.801287128403594 3.175286371236469 6.852644176110316
Pt 9.082567542226398 6.5882229088072615 5.839385090072617
Pt 6.594001202561195 7.074712137185683 5.0020733385459595
Pt 10.751668662411642 4.466001954265034 5.705738040800387
Pt 7.597879647522217 6.182665071659126 2.747397894250551
Pt 11.479013114639919 6.800918978102939 6.666064504548671
Pt 10.169084763740253 6.171905203484278 3.5551553672754963
Pt 8.724788391576082 8.377631781542323 3.605053257805482
Pt 2.457119651017327 5.579495569696846 3.622523764024322
Pt 4.489605582101028 5.710944064917471 5.7994250956644535
Pt 5.0106792711243235 5.980916856161598 2.8820426083867137
Pt 3.6192568914909846 7.87466487391922 4.156248867404726
Pt 2.067592754111318 6.656263282731819 6.0715709327942875
Pt 2.177879442031952 4.0386971116388715 5.790317469940368
Pt 4.378429689685658 3.137215313284365 6.844557245992632
