46
Energy = -232.45420394 eV
Pt 5.337612168390691 2.514083865898364 9.598470673368086
Pt 4.334711461156773 1.3902058811748634 7.505190744823605
Pt 6.93138814049314 2.2942242798929584 7.440238783539567
Pt 3.0319270840050443 3.515862480234983 8.516798130537163
Pt 7.309870135797706 4.166524047139022 9.308690037451194
Pt 5.4514741291532225 2.032724266647184 5.237299120933767
Pt 4.7517526328715185 5.051325792225236 9.88709952684948
Pt 2.9211180878662137 2.8364922064791402 5.8463566862691145
Pt 9.1301832855911 4.0302702572471505 7.269662451476474
Pt 5.064032137765946 4.224126885752003 7.03827637008113
Pt 6.8554099861384135 6.381850697639233 10.759666515478235
Pt 8.835106714764166 6.2113892328616105 8.930266144885143
Pt 8.069917521405051 2.650844681091138 4.988787091186165
Pt 3.5645613535397733 2.409581656076685 3.3532289593711475
Pt 2.0987447142243383 5.170365955793118 6.581697219325368
Pt 7.232089395977913 4.91875943701162 5.802660889929161
Pt 2.5890968858208447 6.165943483326553 8.911145059965037
Pt 9.864521607934504 4.739701108452745 4.695862644796786
Pt 5.014701082503905 4.882512136070501 4.477593074821155
Pt 4.808705334944451 7.672077970156968 9.555465039102884
Pt 6.081273968647597 2.8719276402912643 2.9222600140906403
Pt 6.386099999088853 6.317539638439313 7.825112314826658
Pt 10.044440889601937 6.519454512965554 6.694358275771514
Pt 9.796192374296982 8.61756110511809 8.317603510112079
Pt 7.800277287543224 4.686075405951373 3.0021481607398792
Pt 0.9575270067631223 7.401298784204074 7.052613177686797
Pt 7.337922666532658 8.487875316026619 9.206217780393327
Pt 2.4484011597092645 4.700053061015309 4.0098943641981935
Pt 4.334551296808265 6.694663085724757 6.244071471063693
Pt 8.203091726353469 7.033646624670985 4.83610074621901
Pt 5.4191440236516435 5.354936731749386 1.9762822324965788
Pt 11.085457003529207 7.235136746214472 4.373407872288501
Pt 3.1338250675287185 8.525283320145611 7.727390153977392
Pt 9.79648742823468 9.05105789242393 5.767514149043266
Pt 5.341222022712072 9.783003134816077 8.008999060147023
Pt 9.649166751158315 6.360757044443766 2.440123800445171
Pt 6.449254984377136 8.274473083963398 6.204397455079252
Pt 7.922973340782569 10.18960954427184 7.2181201433289095
Pt 2.3099404571803044 7.240706421194469 4.73328804368532
Pt 4.594326555518247 7.461709234937787 3.409915051278535
Pt 7.078934714439276 7.301672591422403 2.508385428370636
Pt 3.971188085485237 9.275497602658863 5.256001960571693
Pt 9.100992821109397 8.88948588500636 3.1725365972564106
Pt 8.282191852790481 10.919323144401647 4.655425045076776
Pt 5.859338592775827 11.13996064121072 5.8073709814334435
Pt 6.310147850293066 9.439880758765586 3.840712407518084
