46
Energy = -231.1574608 eV
Pt 7.110219366040379 6.365975049818641 2.4684891456687987
Pt 4.369400971675338 6.801655206973563 2.712118499723487
Pt 7.880304752966128 3.813651692710584 3.0446736899271367
Pt 5.462590636096183 9.324782964331296 2.894551031954133
Pt 5.810946723119905 2.223225113200798 3.8443202611508176
Pt 8.39723376263285 2.008001501521834 4.875353498689726
Pt 5.364796777484482 4.425029926601678 2.470050154823939
Pt 9.589161281910561 6.57071809717857 3.796583288657643
Pt 9.870088565604359 4.1950048509839135 4.962507587515203
Pt 8.155630264172393 8.670155030537128 2.9323318375571787
Pt 5.9200054389384285 7.439773171496436 4.686278883766481
Pt 2.9090513954091133 8.8117774184103 3.512213241680308
Pt 3.53548695398662 2.760772149212831 5.280856522513545
Pt 7.5930817667821024 0.7870478880386902 7.102894759261155
Pt 6.468556509304439 3.057047419618156 6.218163140667571
Pt 7.600397008215607 5.462472821294 5.0060237200640705
Pt 2.819667827885008 6.5921984521685335 4.953796967350266
Pt 7.055299424991382 10.020623249796714 4.879995381196705
Pt 5.188546938584003 0.7883307919046053 5.994730254908677
Pt 9.451351899395586 2.7607494549181553 7.216858615343043
Pt 4.967788761627462 4.957837921814799 5.020366296787787
Pt 9.352475476052192 8.71926479379554 5.2890281938448185
Pt 10.228282759412531 6.371030982451501 6.454143024361643
Pt 4.432108061192262 10.190473467872247 5.154850962981152
Pt 7.506561379638693 7.421451212768736 6.710140287493358
Pt 4.447054693765701 2.6662835458161958 7.77115357883516
Pt 10.350239341595755 4.797071733015908 8.574719700220212
Pt 3.031547738296946 4.762123273178706 6.946814204468436
Pt 2.0300870889481253 9.119479628597572 5.9915970687913065
Pt 4.2787007388672595 7.919891184926925 6.673772923025456
Pt 6.927815488305039 2.5927842299692876 8.856932758031082
Pt 10.074673657188432 8.697185192663913 7.800154290526606
Pt 7.749602377771778 4.734345344065053 10.103912019840807
Pt 8.601322338454626 10.702258274518092 6.888843475586145
Pt 3.484580789317229 10.87728601818061 7.4895323862411045
Pt 5.5387835405173504 5.834955784661125 7.4898529896427295
Pt 7.922303429521515 4.838299703993254 7.497048457248204
Pt 6.045694966909234 10.833895018151335 7.188087319245732
Pt 8.83757348545131 6.888149205277902 9.15366699136043
Pt 1.5594801595493613 6.790173964876963 7.309690058421308
Pt 5.138792140857997 4.433958303143642 9.62454782286893
Pt 7.491255198657116 9.098465406092034 8.703353702723199
Pt 2.2610353115558914 8.883114385304518 8.65075320042949
Pt 3.566439487705444 6.5851578682546545 9.106448937618044
Pt 4.901445620374446 9.094610340332503 8.90673331140979
Pt 6.215566085264666 6.985204560085278 9.783003690688465
