44
Energy = -222.21322921 eV
Pt 6.555421506150062 5.018933712626394 12.494182043553394
Pt 5.7647702325801236 6.90428700641169 10.838281970553606
Pt 8.31591771195666 6.6274475512204205 11.400282591692372
Pt 5.295219960056035 8.800325120842977 9.08826850330234
Pt 4.883750563220174 4.443102418285862 10.599166464636092
Pt 7.203740354730982 9.043629577986415 10.889826896643942
Pt 7.615593946911391 4.169635822721499 10.258084128013245
Pt 3.9716804747757384 6.47735871237059 9.012001844950495
Pt 3.407225466896765 8.41282052179398 7.3019988908435876
Pt 9.54205225018872 8.353536969112218 9.947285262776381
Pt 6.660293923915704 6.142140744950789 8.349407973287352
Pt 3.2113140042914385 3.9854981152258357 8.673217041055361
Pt 5.987047666250952 9.107138865466688 6.509903696285746
Pt 2.3227297430146336 5.864247613778633 7.084665098833967
Pt 5.817525662719988 3.5602773403826125 8.282024285241139
Pt 7.608376076839466 10.166967017317834 8.630618416323605
Pt 9.277113705030976 5.820848219585569 9.054720740570582
Pt 1.9776418561608666 7.699857757670816 5.2252353445239095
Pt 3.7945986956892956 9.55505286719523 4.960252156158951
Pt 5.158028414414772 6.668554615185404 6.232018905881907
Pt 11.595339839711576 9.641364441012833 9.119398704452937
Pt 7.77006901735296 11.096999682711434 6.098286530161218
Pt 9.88053906461715 10.789729698012493 7.580993711903482
Pt 12.007732702496886 9.37464484778169 6.528130326655673
Pt 8.177691559139486 7.991343077859662 7.336243074311739
Pt 4.236537620474122 4.131158591874582 6.262666060049049
Pt 7.628414211559167 5.879735808800294 5.97328857557155
Pt 5.664628068374186 11.2419968641942 4.541016691662442
Pt 2.655894084805999 5.207531907011803 4.505763543134512
Pt 7.335185117152361 9.239316034401911 4.201096812837666
Pt 8.412114637403791 3.61413881418879 7.839867732861118
Pt 10.889153324224674 7.428659150511567 7.843910368121152
Pt 4.131158945857651 7.177524397270442 3.796791094182004
Pt 6.559822706361406 6.9435625001376895 2.9156013565960883
Pt 10.126298773813621 5.248335876671252 6.636669821988961
Pt 6.6808364536265 3.4177368683129807 5.784299274881233
Pt 9.588477450106653 9.286046249899105 5.47937786928864
Pt 5.287294262518811 4.785078690231378 3.9310823880367054
Pt 8.914404158241776 7.207212018754245 4.003326341859495
Pt 5.210044460743559 9.25608224233351 2.7067864088577127
Pt 7.875097507203337 4.73268311176683 3.5947503546343853
Pt 11.269830618283114 7.262621711230864 5.195248611343024
Pt 9.239897154221653 3.14998187970949 5.283121816009541
Pt 10.512395723070608 5.071455467013071 4.02197764323193
