42
Energy = -210.66829708 eV
Pt 6.152707517476058 4.08288121393262 2.5826962147708437
Pt 3.8351802648800475 5.18636359989885 3.070563753432914
Pt 3.194871746828716 10.337489501599594 3.2402215128807983
Pt 1.7218938310723007 6.309453409340617 3.956410512544273
Pt 8.258402468714612 5.590672171129193 3.205984106577775
Pt 3.499201942051321 7.801860852614904 2.4569269582567723
Pt 6.009619922343587 6.748994593776359 2.5995873586150324
Pt 7.814856397236802 8.061755902959485 4.098821742969785
Pt 10.15642142220743 4.12601741543015 4.2999855335734445
Pt 7.627398429040653 3.313910662569297 4.670161399349101
Pt 5.061609148793686 3.6625930217423015 4.952240916035214
Pt 4.360173568117987 10.454912641254497 5.6123693513748725
Pt 2.4945863734232483 4.074180932903652 5.1712256759906605
Pt 9.86691484823399 6.640731895277076 5.0291315410654756
Pt 2.750217720696941 8.471552556166746 4.995166763161175
Pt 5.492199003308476 9.163082966148194 3.4975144490030377
Pt 2.731218847455512 6.3393652395151 6.497674029516568
Pt 4.808066531269647 6.739557106484084 4.958702134594176
Pt 7.10332167862264 5.668785033104146 5.631826616461362
Pt 7.043335700295081 10.28548798894641 5.346523786978764
Pt 11.53888106198577 5.101212210432556 6.317374328820927
Pt 3.8501709388275867 8.506636659591948 7.415355813655564
Pt 9.168111513440198 3.898067134828547 6.767495886290008
Pt 6.588673572863884 3.398171816094013 7.194797597316635
Pt 8.655298330673485 6.546036411508203 7.667882177477276
Pt 9.132860050550182 8.913225747360128 6.245611669235968
Pt 6.464934811482122 8.035405578193757 6.575964730958301
Pt 3.6686748247917733 6.280977096273666 8.895149607400109
Pt 5.833335445123834 10.293854002657147 7.768686896606889
Pt 11.112724445259074 7.554484729967148 7.332678377895815
Pt 6.141219792330696 6.040856324212241 8.108490507639665
Pt 3.984527321703805 4.0559263938744925 7.327244211858745
Pt 8.177813720067725 4.123039824161874 9.167795752512236
Pt 5.455206273535 8.297949807057787 9.539688233302796
Pt 10.657321519498591 5.104196473796841 8.731677283400007
Pt 10.010399100950098 7.628763279201434 9.688959258606946
Pt 7.9194149482009015 8.995287266610129 8.739958659194258
Pt 5.42226028701984 4.025017594795403 9.527359297625265
Pt 5.079294595278002 6.184054178864126 11.07463013604579
Pt 9.54851518386078 5.382672068797061 11.052578258943997
Pt 7.563562906833786 7.019362848182039 10.496471230463174
Pt 7.09324288617065 4.603794741261398 11.539056620114067
