44
Energy = -220.14346189 eV
Pt 1.0865281007729224 6.305656397601325 7.391052037262495
Pt 0.9805185763093653 6.225562421915395 4.779727273019766
Pt 3.077855230671272 5.108154728582965 8.656655103371756
Pt 2.8964599830300344 7.832255876317359 8.600337790487115
Pt 2.7449834164858062 4.658059120665578 6.069209732120287
Pt 3.7136281223233194 6.584636427958021 10.757501055445877
Pt 2.563164050979884 7.942368096273891 5.954990081166707
Pt 2.6586414505577247 4.857035056908191 3.3627191752468404
Pt 2.598103285085012 7.666682687181684 3.2062817523033145
Pt 4.933945989613317 3.767481988433297 7.329944041229058
Pt 4.778649761085571 6.477366563246936 7.098846001141677
Pt 4.56213389665315 9.23484781316061 7.141382501411
Pt 4.645437815536154 3.47877775615349 4.709678494205152
Pt 5.506521032875983 4.999408938713336 9.655437931607896
Pt 5.3823072146812665 8.230658073329927 9.434352733534878
Pt 4.377207868188112 9.140590641223602 4.4295163659897785
Pt 4.561607868157148 6.306089590792904 4.423449850807732
Pt 6.940057191462494 2.6700122370779633 5.917222525485263
Pt 4.5593609659976035 3.724903132308864 2.0302889931150556
Pt 6.178549297610792 6.810817704634502 11.570308152503834
Pt 4.344293508566082 6.401225545947642 1.721304878604381
Pt 6.823759703340532 5.23060409261523 5.572867671463648
Pt 7.849718134744142 8.41661087407489 10.368849607929652
Pt 6.294796308603132 10.48403524685254 5.619134439751571
Pt 6.558655865940359 2.5255317463891207 3.1983625715953057
Pt 6.265725144210214 7.838734085438215 2.8043337754924966
Pt 9.52476016284511 5.54720353304003 5.824734342111439
Pt 7.469313511267063 3.9328757741927003 8.2389653565512
Pt 8.07220256441242 5.71654001855177 10.132076026232218
Pt 7.2662098434143925 9.386156766905883 7.9270150563876305
Pt 9.419254928636747 3.048171870058014 6.682073458383751
Pt 8.031942914371923 9.314835764118463 4.039085040578845
Pt 7.303790652336408 6.690136981950081 7.843514985311894
Pt 6.516059338401913 7.7908437385601434 5.585519516708307
Pt 6.608260341955771 5.191141641629733 2.6768887159956414
Pt 8.843350765981944 10.665635271502959 6.190656051855812
Pt 9.57765650018405 7.744354766631796 8.599604911624589
Pt 11.852487897608247 4.210809368105531 6.8972926762589015
Pt 8.598994749155333 3.921428882243414 3.904936763231486
Pt 9.913683440369521 5.028241112907956 8.484334585831725
Pt 10.989782922379018 3.50327354506767 4.591742870958258
Pt 9.423715835932486 8.136232424691375 5.958199424535653
Pt 8.48965930066672 6.687334262311502 3.7199996752281486
Pt 11.453087468294186 6.7934795654604425 7.12461595926696
