44
Energy = -222.69294727 eV
Pt 9.01719736419837 4.155153867164069 5.385924688098394
Pt 6.647367857467293 8.455043804665014 3.8159931005538184
Pt 2.342732952726337 7.471827778190607 5.405928383742049
Pt 8.779731223945824 11.330796505057874 6.748731735027393
Pt 9.021696899993444 6.9695728896331435 9.677466744926377
Pt 4.550051379568606 4.065758200652636 5.464568842311463
Pt 2.385061992455299 4.967737141937981 6.824527741222662
Pt 4.487471422319624 11.223875452800495 6.81519334135845
Pt 6.769979118418655 3.675090704550886 4.0990515015589315
Pt 6.625406643360554 10.596743590864543 5.405763499794796
Pt 4.501048815469043 9.116745975927225 8.430817392000815
Pt 8.872775511251808 4.556887417959097 2.763855432834997
Pt 6.84145916998276 5.969954602522405 10.770711026007666
Pt 6.712705900326488 8.26050562004195 6.741903447216946
Pt 4.604043755991914 4.035132823189569 8.093812258885357
Pt 4.463152563804005 6.9114117970062585 3.8155402086630157
Pt 2.368088204802944 9.592179271713258 6.846759088263916
Pt 6.759904717804696 8.389742512087844 9.674569217518258
Pt 11.180582293474782 5.1881434057931655 6.655814871820862
Pt 8.864355309064347 9.267134713302832 5.089299110721743
Pt 11.12707293579634 7.663713843508624 8.093207981016203
Pt 6.791548322477553 6.000292258362786 8.058922117852257
Pt 4.492674933359344 6.678262767440752 6.800099263077009
Pt 9.005391835657969 6.791407422287288 6.708015473579634
Pt 6.6757780820608135 10.565831254232927 8.135081081930586
Pt 6.823496486945367 3.4447659496677288 6.737079509158665
Pt 4.440521928018081 9.159584773879814 5.153923258671307
Pt 2.372493783500635 7.446119313622835 8.258843234160823
Pt 9.034023331749268 4.507305905625095 10.633056147073132
Pt 8.937668922688987 9.239115429191173 8.362779337098733
Pt 6.742444507831579 6.025235044835963 5.423607891651513
Pt 9.067703754530374 4.151983580148681 8.013023819082738
Pt 10.978706721165503 9.809280519228663 6.696193436151551
Pt 6.686266413351556 6.03714741546982 2.7278648208160394
Pt 8.900186940778603 7.0178871288714255 3.748120131122515
Pt 4.57269164727599 6.8456134290175825 9.75180383943937
Pt 4.57873692202416 4.441006031892042 2.8377334474257507
Pt 2.4385164572741833 5.186545732316351 4.260479915422801
Pt 11.02777969219647 5.408907667137237 4.105615208092507
Pt 11.054511127941412 7.697424927065053 5.245441675248366
Pt 6.871446789318736 3.640940829759631 9.381608896183614
Pt 11.13953198505313 5.368225492008822 9.221566294818976
Pt 2.520383381503541 5.145409684329417 9.389454576809198
Pt 4.721488642550224 4.392399568821239 10.716796141814822
