42
Energy = -210.07982399 eV
Pt 8.653994279907774 6.112561235206692 3.833643473389136
Pt 9.45135697986056 8.235729285592734 5.085092299215147
Pt 9.814371332193808 5.872458351867106 6.186195905545432
Pt 8.762174166250393 3.7001107341804835 4.99938136711396
Pt 10.005642751744737 3.4549356981650976 7.252555549226925
Pt 8.068041585639293 8.552773155820546 2.877596219018002
Pt 7.529503059987229 3.9063539781080996 2.787457764149461
Pt 9.838509796077505 8.046873601667809 7.76163759433729
Pt 10.580652673381763 5.740580483709441 8.719631965199824
Pt 6.9067346844207025 6.208561679416108 1.785308606506064
Pt 6.151219780659745 6.575914016868295 4.604611330344821
Pt 8.340245248437812 4.490705581683863 8.89332304723886
Pt 9.32991905060891 10.346391442822817 6.775312936612992
Pt 7.348928782814256 9.97873371573399 5.09388875344597
Pt 6.245232806958877 8.580407226230607 0.9810457190844766
Pt 7.562041675021834 2.282683007897335 6.991178251378215
Pt 10.056042206095109 7.766388535481403 10.280995538141855
Pt 7.387389032721775 7.615395141631136 6.632748678631139
Pt 6.059796858428962 3.082288536105594 4.984361873080759
Pt 7.009452584186136 5.035792061490291 6.546993885430367
Pt 5.102071897930507 4.6789598366645375 3.008371622284139
Pt 7.769634293804947 6.959207820611346 9.467447843281246
Pt 5.5492240229447045 8.964152103819256 3.5025517969675235
Pt 4.338555490324186 7.112677948586221 1.941175225578351
Pt 8.888666965301566 9.417053901329991 11.707008826736773
Pt 2.664216767400207 5.458748018480823 3.02202816425523
Pt 3.524900845721429 3.2757368872333825 4.5081913556734685
Pt 6.011802981566091 3.3454750084176146 8.728056788907715
Pt 6.931969004633485 9.991719720661075 7.733677583126462
Pt 5.551464680057691 6.560251182039543 8.062527421979986
Pt 6.57911887502367 4.933958100212025 10.742988549796316
Pt 3.632161979977186 7.475419625796387 4.534717463560051
Pt 5.016408916308594 9.044391148036786 6.071959875312467
Pt 6.9372949774700565 9.278693530651529 10.219400704184102
Pt 4.3774814203742345 4.132476268268653 6.890102262461028
Pt 2.448940192862334 5.385679277845797 5.591109606116122
Pt 4.735751098329871 9.036134787608017 8.747872727984117
Pt 3.1939065573617276 7.469952233483056 7.104197413647475
Pt 4.202004137288441 4.985881784214797 9.698216519627637
Pt 5.293532390822847 7.282325304736881 10.726709815212137
Pt 2.1835477185840446 5.259373429484624 8.107208434269102
Pt 2.863266261953823 7.263265423577691 9.708690053387672
