46
Energy = -231.37959423 eV
Pt 8.632488278254707 5.247266143916163 2.5682201469036134
Pt 6.735317436070491 3.8952973988614104 3.7314147018691037
Pt 9.184447539793194 4.060775495216075 4.900453498698179
Pt 7.177640654346698 2.407680101523645 5.848489367303995
Pt 10.150202077323701 6.468728337290594 4.2672099105161685
Pt 8.385746086367881 7.862559038467869 2.866201325497373
Pt 4.222587790826715 4.686273278506354 3.23173617020768
Pt 4.687447614313426 3.030681550319274 5.241118403488627
Pt 7.8889582049701525 2.5365226720088745 8.367798088493863
Pt 3.8874271632606217 7.156853262067214 2.178549179073992
Pt 9.702940128742066 4.302412816900917 7.59226653081304
Pt 6.249300758048696 6.242225786021476 2.5252448033119177
Pt 2.308730942909706 4.175308027540289 5.002275518069575
Pt 5.340464996297008 1.8621591497784018 7.615179959370941
Pt 11.122383664762514 6.420808372684451 6.63124427941841
Pt 5.202536250831987 5.774957771533647 5.43151382098351
Pt 9.732493350267832 9.121807197902802 4.89138315733656
Pt 5.974872832832461 8.881089989757934 2.0809080122191177
Pt 7.390452983663332 4.882535094786793 6.503562220580793
Pt 8.486499241740072 7.172759501944853 6.0831137887177835
Pt 2.888479551870097 6.738862921807043 4.609552499404453
Pt 5.808076904482384 3.2297263742002973 9.958180875853815
Pt 2.8270165293310576 3.0520974798564073 7.268721928220994
Pt 5.2004324869957665 4.506714047166517 7.812525828271126
Pt 9.633528906207202 6.655988662701594 8.734810379577088
Pt 6.417173091525188 7.94236009321446 4.802802742637956
Pt 7.504315125147044 10.13480768060857 3.8219723044640594
Pt 4.183478694066304 8.979036813201876 4.055291505970043
Pt 3.4848865702504663 2.023623446836359 9.521473278588093
Pt 7.737773452058623 4.969167970903611 9.439253898233375
Pt 3.7763313617317884 8.286039089068852 6.584575252157821
Pt 10.429192392246446 8.930135436479764 7.440830962872743
Pt 6.188155956747681 6.934021908714555 7.604150020374946
Pt 2.7431002445478443 5.779684197913713 7.055926937156593
Pt 3.2209902604347014 4.675333896903812 9.505446397205807
Pt 5.624912917767245 10.174951071791723 5.954212036844045
Pt 5.47742728693093 5.8326005852240685 10.468625584802613
Pt 8.276995084312427 10.88084239661812 6.151963662302652
Pt 7.7991548904615895 8.970585832116829 7.853305869000499
Pt 9.665628325303354 8.917785670174725 10.067927734601083
Pt 7.404176715105465 7.507528894104063 10.079678391381401
Pt 3.8560510516887097 7.18191764143101 8.96991731232444
Pt 9.27435974845217 11.106365616312424 8.574322794024193
Pt 5.2240399020460915 9.364115680562396 8.559086338406855
Pt 6.5897325140558 11.618453982423961 8.011048464010818
Pt 7.243765559447668 10.163260038001264 10.170693798359835
