40
Energy = -199.15041668 eV
Pt 10.152077757219592 4.833310511853801 3.437769936192345
Pt 10.787761116612177 3.453934267071693 5.551244754254414
Pt 7.6286021872595455 5.221399622030219 2.8859783086034807
Pt 7.131680374947907 7.701558129479665 2.104613503650687
Pt 9.32154526007272 7.336243622067112 3.657746337280975
Pt 10.207612999784747 6.029719994506459 5.814219681037522
Pt 8.193717775183284 3.7474596351236036 5.072081797250599
Pt 5.802647430308137 3.8203527189163045 4.098562843680782
Pt 10.763821757133977 4.547414768427681 7.961361255769541
Pt 5.2923120783078605 6.338181450404109 3.5108388607016914
Pt 7.452459823237997 9.04407502657833 4.350882998371777
Pt 9.01317512855171 2.663680430786879 7.322016099494751
Pt 7.490124630978694 6.364076515254938 5.3039616604936635
Pt 6.452736705592102 3.215226273069027 7.086711006023027
Pt 9.429923465233093 8.520044185640359 6.0890769611949205
Pt 4.320354172189743 2.6000694879953254 5.840837307549
Pt 3.6734234181213363 5.010359013275998 5.062216073479176
Pt 5.045634210882164 8.931985716642522 3.170574081225575
Pt 10.02472160790804 6.985143492354235 8.265724483265167
Pt 8.267729579338994 4.77525922931146 8.560737434888761
Pt 5.5286091761589615 5.690379550544167 6.79310007575767
Pt 2.166710922914086 3.779961374326663 6.914066593444956
Pt 5.5115870898938555 10.76070009053994 5.050117994468087
Pt 1.7930917160765905 6.275972161062885 6.4508528789778605
Pt 7.365205996442754 7.361807139820614 7.742264451528153
Pt 9.04926725863922 9.408088316904394 8.530780757440718
Pt 5.340881106679451 8.153737342967553 5.987769170557814
Pt 3.2168357654382853 7.619786979465802 4.561369652118529
Pt 4.199487832623379 2.869334741762572 8.473221105256789
Pt 7.2451001014701895 10.015753294340595 6.816029703624896
Pt 5.859074641887412 4.589060724155669 9.509989251084349
Pt 7.529654049535588 6.312076728916692 10.478814013332826
Pt 3.5248268840060284 10.246794603444297 6.4971187949739315
Pt 9.525015826660024 7.966690661475624 10.685297792107612
Pt 3.318785850054084 7.939453234004135 7.824900742432491
Pt 5.229259343481177 7.153890278809218 9.397859291417092
Pt 7.0808703243391 8.925572169720382 10.094431392051932
Pt 1.4419913259056731 8.788686125141878 6.115436179625778
Pt 5.1933466885670665 9.67895598436132 8.508628257594628
Pt 3.4948935393275495 5.392913462050114 8.477139652024324
