49
Energy = -247.62612894 eV
Pt 8.413219301777284 1.9446843162468348 10.238221481694051
Pt 8.613173441615762 2.3662059797228996 7.636517311513895
Pt 9.452605094754853 4.215781078887482 9.562773268215668
Pt 10.035690929958397 4.425366383861915 6.88107926820841
Pt 6.340636843951813 2.422735215972367 6.283674644477713
Pt 10.42399954884912 6.4396907892635875 8.768471046256256
Pt 6.1525847985076 1.9744951963384632 8.814678269219039
Pt 10.07454146135429 5.010775497361722 4.355096436594538
Pt 10.8035458773451 6.953558770392667 6.218258089729025
Pt 7.6390359603363525 4.720484074855383 5.52996402610855
Pt 6.769034486888233 3.957572940360363 10.65312944873125
Pt 10.943528662568005 7.487388087612551 3.6766801855526374
Pt 7.2313533078393135 4.527452788153517 8.129706039791744
Pt 9.38547822305719 9.55816138442637 3.960461531592319
Pt 7.973880562538781 6.386210212445562 10.261544714841682
Pt 6.462141439244447 2.923507966079686 3.7538911211091217
Pt 4.137605042992895 3.1699596742300598 5.006698386002607
Pt 8.937350746622144 8.573865235576417 9.1071609290633
Pt 8.29614680207389 6.795430998903618 7.200236016067846
Pt 7.743151191646491 4.932200629398003 2.787362908265999
Pt 4.502962682193912 3.941942042056913 9.108035655064423
Pt 8.367000571481467 7.144447610823707 4.566553004743221
Pt 10.060245258757444 5.65155312017892 1.844401975552731
Pt 9.326565915207167 9.200664504742933 6.571082354043724
Pt 5.263672806938667 6.029607072701603 10.685332654914792
Pt 8.576648187459606 7.752614164193185 2.078028780493001
Pt 5.138374936976504 4.9810662279154965 6.584262138833882
Pt 4.842495890813833 4.7761308226664125 2.92136960136202
Pt 5.870617116811203 6.836494870593544 8.301658039778783
Pt 2.709143731694225 4.273672596443904 7.161495333980364
Pt 7.646054699438039 10.880021485254394 5.374848843702966
Pt 5.792923448663232 6.542366300277427 4.517206730485927
Pt 6.499873260335605 8.6304039519781 10.080575244452785
Pt 6.444393288470396 8.420103432045721 6.212141162662958
Pt 7.16274654566764 10.18025949174515 7.990335560966238
Pt 3.1257501329785184 6.16488623350526 9.029507904381687
Pt 6.1095057595394175 7.032750181497373 1.960580933363866
Pt 2.8997522195875636 5.471820376417948 4.735729486016373
Pt 3.9058410423639005 8.234739204056515 10.578695913502836
Pt 6.791510634231851 9.238544788176716 3.4266212442125528
Pt 4.01018606301695 7.416217622326645 6.4927778847907645
Pt 4.569071196577839 9.588895688568948 8.46620168391956
Pt 3.6198013653307877 7.084526829711993 2.7084007351037513
Pt 1.598909368435101 6.6679552888194875 6.864768456447168
Pt 4.337929910661369 9.131745548643108 4.226632421279059
Pt 5.177274667835394 10.75663989472928 6.161441728008724
Pt 2.0940592326446503 8.587791709845824 8.644941857408394
Pt 1.9531856579334275 7.9582937971654815 4.535879699953052
Pt 2.8029269398160785 9.68472868013228 6.38406941110685
