48
Energy = -243.20811684 eV
Pt 10.214852693067652 4.440688347984754 2.7666764434286852
Pt 11.644915507691351 5.613524422072248 4.661659124292857
Pt 10.303309066894421 7.178014079352972 2.87876606679292
Pt 10.541672047532492 7.815645217370569 5.569415522529017
Pt 10.118795546302952 3.4585889477806453 5.3713481434823835
Pt 7.919420351125817 4.663168939819368 1.4630769892657178
Pt 9.81759778180444 3.2563693734148202 7.980485274927088
Pt 10.441586683889032 5.635801635306847 7.057337591194934
Pt 7.904125215931359 3.3514004627278258 3.7779496787832767
Pt 8.90650722128542 5.766687994581618 4.5535443368536725
Pt 9.420679807762397 10.002388840820263 6.31276413323219
Pt 9.445346904370048 7.932441310219268 8.1174339111511
Pt 8.646874760213453 9.098430295992296 3.783916370938018
Pt 7.690240180281295 7.038800641527401 2.396033044399292
Pt 8.97789929072988 5.501588946263539 9.238942594750956
Pt 7.810982375556007 2.606229013204663 6.315203538545038
Pt 5.510508509042219 3.06493860011844 5.0391546047688065
Pt 7.349458720453301 3.362513452900444 8.86796354645973
Pt 5.638051346057739 4.018024905005534 2.609011211815425
Pt 7.6895330429678985 5.203355433782054 6.848679022992115
Pt 7.797555677850951 7.728827586478506 5.818934155407464
Pt 7.587978197850567 9.955845910228192 8.207542865814698
Pt 6.9418213811760685 10.281853924833989 5.577397102364045
Pt 6.297999297874282 5.730535380715181 4.595092463812057
Pt 5.422187567832348 2.1948697845362077 7.4340536702797415
Pt 6.011715794266334 8.720869755362106 3.5071979519822203
Pt 5.007070614555873 6.559538804296546 2.3835371086683104
Pt 6.630525088543066 5.346197523829518 10.458380892384952
Pt 7.9618394898954845 7.647365769219019 10.365127051237
Pt 6.630542562271179 7.503107663108774 8.152156030350032
Pt 4.990572997260644 10.227312882839204 7.377007181072847
Pt 3.7502274119249264 5.126293315939897 4.231178339724558
Pt 5.606328885868801 9.963990051765734 9.885853498169494
Pt 5.181055613113543 5.460393849868212 7.374470077776782
Pt 4.397318626469292 10.279984702668626 4.818305160927804
Pt 3.415249932948739 3.788101960657787 6.555344523771925
Pt 5.15593460489821 7.742477190582311 5.9818575751651695
Pt 3.3971160977941675 7.817791021161127 4.106313232300524
Pt 4.012894875587377 5.364211492309729 11.196435089629663
Pt 4.785252472087333 3.792272912729615 9.330271583304365
Pt 5.301206888042928 7.581377636692408 10.697784281976496
Pt 2.9877496244195263 9.816859573428376 9.133688103056645
Pt 2.6396324586171556 9.10142258433122 6.342761161468718
Pt 4.017379568200349 7.635441623815769 8.326637369083121
Pt 2.526370056155191 6.302834618159856 6.236354616282848
Pt 2.682218396985131 5.284697202862061 8.724434706438085
Pt 2.65225500533297 7.474446981020997 10.530937972894689
Pt 1.3835984958910648 7.726432172985625 8.205539820724574
