43
Energy = -215.55684149 eV
Pt 1.7232250768999793 4.312432391486412 3.868008101444651
Pt 2.6183032945464353 6.505491873063182 7.724879617632892
Pt 4.100866989243828 3.1006253634296383 4.22247785832855
Pt 2.711487611442927 4.2938230292375605 6.324882799808921
Pt 2.8215257934292923 8.905408322586757 8.952752220192123
Pt 3.2680004646293153 3.7526557275762102 1.7956755732679135
Pt 1.9252315368180892 6.630007119652949 5.151831828144126
Pt 4.4395947073779 6.935303500468962 9.495124808168617
Pt 5.019864856888433 2.8144792309958957 6.638104447886916
Pt 4.543680373225699 5.552870576791743 4.891905305296001
Pt 2.576679607063555 8.83467591398154 6.39385167594415
Pt 4.085653089201409 4.507321551684438 8.560088692891448
Pt 6.716634161804026 3.4292953010232003 4.588288424648615
Pt 5.332443350771204 9.412102831347616 8.551867816934166
Pt 6.556520544235592 7.90222232740851 10.656821676504121
Pt 5.695346356392005 4.481542334338666 2.3693908129277497
Pt 3.2441701662803575 6.189751037800603 2.7376723668488623
Pt 6.005465980800954 2.7667693716458857 9.1385587731305
Pt 5.1535234914065 7.583096147228191 6.463518476325202
Pt 4.822734653038188 10.119006516223935 5.947728951005974
Pt 6.092878577009116 5.228129336845884 6.971400022596742
Pt 6.4363368120096185 5.328111562283386 9.79326066929879
Pt 3.860947513118155 8.294988491347365 4.177636269453119
Pt 5.677115138346604 7.104778415483447 2.5598472439270945
Pt 7.206563030489639 7.311362515686301 8.076220916541148
Pt 7.676612860935083 3.104116787152432 7.0616658904688325
Pt 8.351118433333907 3.6786925017366316 9.644395432003382
Pt 7.900058005682823 9.703278986116311 9.2367296421723
Pt 7.039373141051786 6.441315076856538 4.79369761880049
Pt 7.3135708217932605 9.80964899806557 6.65142564561817
Pt 9.83532173072149 4.534939433305876 7.7074744842471175
Pt 9.068230491200035 7.454862043603304 9.854782817286207
Pt 6.5668702425448 9.088238521738823 4.218508078800218
Pt 8.200288593178367 5.01209131685361 2.8959044431175136
Pt 9.055662035312505 6.666713726756902 6.395306102356661
Pt 8.229913253246508 7.672383429294947 2.7242884559232423
Pt 9.120446748347423 4.324176136080561 5.2448854058929655
Pt 10.336952698562973 5.2760802796630015 10.160266076032224
Pt 9.734658342004515 9.044256142269024 7.522258501078476
Pt 11.115643888329432 6.780450578278138 8.131169660493065
Pt 10.261333932361913 6.46713091101739 4.005854951398716
Pt 9.11983699213713 8.833362162532495 4.948366880583824
Pt 11.514935198740332 7.97124250884727 5.855051048512933
