41
Energy = -205.75372928 eV
Pt 7.220350268889414 5.021731384838351 10.997974658913751
Pt 6.686522972731072 9.348496617231373 10.11806637607178
Pt 7.695909634743663 11.602485106191134 9.280257746940517
Pt 8.317002757443904 7.257359116894368 9.965235768225988
Pt 5.7170071579157185 7.012386661614315 10.498797070656945
Pt 8.910960912572259 9.365382776329833 8.542836392749708
Pt 9.962871381815813 7.136186114177768 7.795072759818799
Pt 8.84422599786912 4.876329952749508 9.000166683299856
Pt 10.468586136790673 4.599644072541627 7.021671284779553
Pt 6.308085746816054 3.74204962769071 8.933679783570696
Pt 5.341699536241557 10.828525600660743 8.37561666049171
Pt 5.545457769087825 6.075961382604487 8.109427756830858
Pt 4.050351382879334 8.663721062611268 9.36427776268299
Pt 3.3563595310057908 6.111941938096151 9.916112524611375
Pt 8.845059974435836 8.798711046593874 5.87151232259042
Pt 6.452976203890481 8.513534155161524 7.521852220673472
Pt 7.504253251932866 10.90543075234289 6.777375447999395
Pt 9.79272986924737 6.386014211047661 5.190495839566529
Pt 7.750989443825056 6.187309341948428 6.831841374800722
Pt 8.029260953073917 3.3825033094544086 6.946041906623802
Pt 9.584670797960245 3.707564129776696 4.82211415469572
Pt 5.781460309681724 4.913251932744683 5.782688181435993
Pt 8.195110366137868 7.722889661731395 3.5685626969791735
Pt 5.561948887718835 2.528864497083591 6.7604574484598965
Pt 7.172726619020719 2.3165926291947794 4.68243514548028
Pt 8.956132744546359 5.379884008798363 2.8451741613080275
Pt 3.4877331782106173 4.2884697219511585 8.083717125788919
Pt 6.78326627958361 9.847729500751823 4.530716802320354
Pt 6.137503496699682 7.40770855442553 5.140544247564655
Pt 3.0305206149045203 2.5549274633678554 6.233641580310525
Pt 3.116495713843997 6.918624600081263 7.423591946456649
Pt 8.79214042749528 2.728852922773694 2.623176324950458
Pt 6.720192332883542 6.477061582122942 1.7698348282327847
Pt 4.5795003642064085 3.123837309673806 4.1498463345633905
Pt 3.9733450320221397 9.350022257753457 6.814314446260649
Pt 6.675230931594474 4.188305368056249 3.0280084683278274
Pt 3.182212978653824 5.081255284861033 5.459046923260365
Pt 5.2544110042750365 8.338484625479675 2.831813233813751
Pt 4.638704929012425 5.729501636407335 3.2649134601918153
Pt 3.537356662136269 7.591693125888474 4.921457215690207
Pt 4.191343430999176 10.141442941089633 4.358300916803853
