41
Energy = -205.65164763 eV
Pt 9.061603855748299 2.7012415016901006 7.062798273920114
Pt 10.51047872611474 4.989938741730609 6.831158744506481
Pt 7.6707559614235326 2.843468401068099 4.856057583627786
Pt 7.605758119322857 3.968885824586719 8.91989963957388
Pt 10.03751078375758 3.7093379437255285 4.621839157220591
Pt 9.005829603038515 6.2833334395144265 8.617887232093514
Pt 6.241684612927084 2.71821360178116 7.02322083186794
Pt 10.637836864615423 8.166793813249361 9.474426720516796
Pt 8.932975507963599 2.739469864992139 2.468928469808393
Pt 7.897374375116096 5.04963312850869 6.568794556815377
Pt 10.633899972885057 7.597539105893979 6.901583765824676
Pt 5.129697681731358 2.411985149151864 4.609415706463666
Pt 4.995615412333509 4.3794989548303995 8.812867714189792
Pt 9.780590638220438 6.408680375819985 4.731127014193624
Pt 6.570638532561968 6.228957554095843 9.731262836556983
Pt 8.790132857392774 5.310422128415873 2.5763538921992044
Pt 6.569955142200774 3.822122719445323 2.811398892988234
Pt 8.196846611297687 8.287714583996143 10.278280704131463
Pt 5.288041602766928 5.647210629876245 6.510444166442623
Pt 3.7339027422606788 3.510517716889043 6.509599508894845
Pt 8.675163249992382 7.879258937756276 2.8119971093292584
Pt 3.9249441390289097 6.6695882596391725 9.906863005218149
Pt 6.458057485927424 6.4851549591069775 3.109169985733828
Pt 7.086591790720088 7.228958442313816 5.659049285501801
Pt 5.734459647802794 8.338501496816457 11.02791259503511
Pt 2.557203749805731 5.085238433068276 8.259859221946298
Pt 8.798709020594563 9.142054850542593 7.820316941764667
Pt 4.613939053335559 4.925778762850574 4.070048000261157
Pt 8.980138517048525 8.943042506016386 5.2161503330053725
Pt 4.072118356145928 9.28663257758499 9.34896684699552
Pt 5.824059680907917 7.901442439751922 7.7882261239721435
Pt 6.708595709985048 10.07269600626989 9.08702892979496
Pt 2.7733422187127093 7.577553442428131 7.752017919285269
Pt 4.2645583614325435 7.523325827609917 4.110579607148395
Pt 6.520922896095815 9.072875145861243 3.9839220873658903
Pt 2.73953205416583 5.856976717000318 5.688281655395284
Pt 6.993462921745739 10.349215768194268 6.381833298990457
Pt 2.5162512747100014 10.13845845573951 7.410426563696026
Pt 4.85839127954135 11.241749314061218 7.7054335088866095
Pt 4.629348806074697 9.413186345056157 5.838523408479847
Pt 2.1910965378585874 8.44725418507813 5.396153900052982
