45
Energy = -227.2316771 eV
Pt 6.316545652320225 3.534529578658171 3.0879379535178297
Pt 9.312710674333989 2.6183818333420383 6.412790978249355
Pt 5.025171298056274 1.3146643126254418 3.9061958732058435
Pt 4.934309928572508 1.9506717198022212 6.588442031289436
Pt 8.874191069557718 3.5684505530866715 3.882256796468991
Pt 10.613616615622753 4.68002825002406 5.680770346215729
Pt 7.042676809289185 3.225626448928476 7.583507099998399
Pt 10.72607364148168 6.956881888153121 7.270564328039255
Pt 4.859262279399192 5.7248478307098205 2.6338812026032743
Pt 12.207055415435736 6.565899821607259 5.112631327058131
Pt 5.549152812026359 4.263554723535553 5.551288649930048
Pt 8.003141510749757 5.385503108113966 5.463766427328056
Pt 1.9610650567358368 4.023292758143527 5.714726220868383
Pt 9.058046106066191 4.905593398622186 7.861623627888744
Pt 6.661971848611217 5.598629894384343 8.76768597945803
Pt 4.674451693799432 3.895311480402729 8.44232752199365
Pt 2.548387312218913 2.4710924457939623 7.709556814831677
Pt 3.660847199601066 8.068168889051638 3.026071768963243
Pt 8.801627386957888 7.2998213740376245 8.952040260421029
Pt 4.115224898613165 6.003401375303285 6.892119349004822
Pt 7.181855987336614 1.9117118745992538 5.149901265677426
Pt 2.7229138443391263 1.6229154097103102 5.17895807644916
Pt 7.528614112705959 9.524753825030748 9.320785276300406
Pt 10.209867524116968 5.920154659621115 3.3565856600461164
Pt 7.2270204674866 7.404367017524348 6.7879476849353635
Pt 5.585952993417378 6.79163719833161 4.946308225877234
Pt 9.949553393279828 7.885653363124195 5.038857171613256
Pt 3.7204220300009996 3.608738426750251 3.718440067745371
Pt 3.5165343400620372 8.965922578395114 9.851632220510474
Pt 2.513269647226905 5.888885784095839 3.980376450179388
Pt 4.049879821653223 6.178805773566726 9.763451773005864
Pt 5.554266585442018 7.949351007041359 8.65361416016966
Pt 9.153991054514846 9.30071692567638 7.119564276234094
Pt 8.83671674658254 8.104632087123504 2.683094144257863
Pt 2.1604272681343755 4.960497729600681 8.351658374624376
Pt 7.612643303200547 5.76126019186127 2.8151842811602807
Pt 5.286459564212411 10.851698442567084 9.236292237996894
Pt 2.2587731665849615 7.5877131664602935 8.070952906362704
Pt 1.0070817483490897 6.3027911140029005 6.205692452370552
Pt 6.2640714730853935 8.154332038684338 2.7727522594977807
Pt 2.897573720192239 8.016351215958558 5.563043460303998
Pt 7.714722325528732 9.1541460478016 4.841708354278984
Pt 5.00366084740119 9.431304313942688 4.8800108332805125
Pt 6.53000037412677 10.080722848281514 6.941112838133618
Pt 3.926527438864961 9.689652393706218 7.291329895971013
