42
Energy = -211.48973377 eV
Pt 7.092029800956758 2.331838834248432 8.20901776013985
Pt 9.448349890189299 3.312351317337498 8.086454706066487
Pt 11.727442723053354 4.478866246280485 8.022335455356352
Pt 5.033650022684925 3.8750658616851554 8.979742913931956
Pt 2.9987836832920034 3.351876400863502 7.356734791681239
Pt 7.910074671786251 3.148696878032008 5.717403413465635
Pt 7.473213381639452 4.555387303593281 9.578765054963203
Pt 10.375394313415361 4.49437740872341 5.719108437430393
Pt 9.924188608466661 5.583637570010672 9.570353304640458
Pt 5.421576682972439 6.384064444207877 9.769546333254512
Pt 5.385119935234432 3.0593275017342103 6.411779710026321
Pt 8.718453561450003 4.7148975844597905 3.704588209629799
Pt 6.018387076735357 4.178255905670559 4.169633422503709
Pt 3.319896124378915 5.794838365909188 8.255815945919036
Pt 6.822022702326803 5.36014259002469 1.9482547010054556
Pt 5.623302338140889 5.755140876711373 6.908484514216262
Pt 10.532093349863397 6.734688911879741 7.25732339991409
Pt 7.935221603309435 6.843260288292821 10.760890341538603
Pt 1.3468937480235754 5.145066997346787 6.429899017296766
Pt 8.229513923624003 5.42815784290711 6.927357759312331
Pt 7.309001627434991 7.433543149826514 8.234387884637613
Pt 3.6308399699034153 4.798883476623155 5.230040710372158
Pt 9.668680129395153 8.268033291100673 9.1676325762681
Pt 8.308434438385339 9.471475083786235 11.047860482645582
Pt 4.331365283329467 5.663336531939397 2.8615670162633533
Pt 7.16248402659064 6.525026971092776 4.859687053947745
Pt 9.8500927756394 7.034350419441661 4.744927324680563
Pt 4.052938170333079 8.281797284897044 8.389940652536218
Pt 2.326740474601259 7.516288234343536 6.522714740308131
Pt 6.028036339603021 9.009581478774171 9.911408495061726
Pt 5.931965951403182 8.291272567874158 6.277436721955409
Pt 8.721083816318014 7.105466753848837 2.3663871362452307
Pt 3.9411182830190694 7.612669740866118 4.517776769050586
Pt 9.075500569817718 8.804978645363972 6.591514607188502
Pt 7.9533717161444155 10.29896917981833 8.5483527127563
Pt 6.029688833244009 7.707773392005319 2.8463392211558345
Pt 8.056183247824029 9.000402794857658 4.1179572074854045
Pt 5.333219777435795 10.606593556357334 7.968654022156369
Pt 3.496642657526665 9.743653875972099 6.103287962503661
Pt 5.464734725652941 9.900931200786356 4.125944656059628
Pt 7.197152641022093 10.564031218132929 6.065013037820546
Pt 4.900570738968947 11.907765229135935 5.769406867953507
