46
Energy = -230.42000799 eV
Pt 7.998896137905722 6.643917380938635 8.052417817811959
Pt 10.325947429042 8.001853001560853 8.398357583187893
Pt 11.040200987227966 3.9796586779484278 6.160708784258472
Pt 8.889024531561116 3.0686325061875643 7.467695010121134
Pt 10.32787088203133 5.29364109164042 8.398271571355286
Pt 8.798834490890467 5.3463791039653215 5.830955668647175
Pt 11.263162063924353 6.647941594375312 6.161771565107678
Pt 8.90176130897398 3.1124737398802345 4.6347402806547855
Pt 10.335573931857292 5.337603400292406 3.816711394496546
Pt 11.049334543202166 9.315613938185157 6.160414570264551
Pt 8.892561569699629 10.227297140079045 7.463103790407656
Pt 8.803518944470985 7.940324571104336 5.836602241069787
Pt 10.337325304400965 7.957512799820718 3.8179362628102096
Pt 6.649459170162324 10.897969684904833 5.805226933819777
Pt 6.645584425815347 8.912908577904753 3.7804011495857752
Pt 5.250610755013607 6.643979236527273 3.0256067837031977
Pt 4.38406020866723 3.11960279134953 4.635631588094831
Pt 6.645648867993393 6.645631728248878 5.244303841303821
Pt 6.645708524976778 4.378352964515364 3.7805006816361373
Pt 8.040686023934432 6.647261251036089 3.0256364519103647
Pt 6.641813682812103 2.3933483228129218 5.8052757428062165
Pt 8.907197331684015 10.17164248140834 4.635683268197971
Pt 6.645810861164724 2.3734684836793067 8.635235054065934
Pt 4.487733810685589 5.350953240977723 5.8365917136412495
Pt 6.643688586232615 4.5914940482748525 7.077900485938661
Pt 4.398652903898889 3.0639443045232184 7.463171740172891
Pt 2.953988701247913 5.333782238962492 3.8178912819796875
Pt 2.965291927569345 5.28937217337899 8.398396821784537
Pt 2.2418579185006995 3.9756150649107744 6.160339921226696
Pt 2.955708491506465 7.953638044309865 3.816709480418587
Pt 6.645579004150521 6.645621200820503 10.513894111544376
Pt 4.402236836945563 10.222677845218518 7.467668213030664
Pt 5.2585360265134655 8.853152633498716 9.665658382849596
Pt 9.329872263080185 6.6484764962311065 10.48370431149594
Pt 8.031297182379996 8.857382743334155 9.661324492335167
Pt 3.9614149454782237 6.642870222655086 10.483645932120181
Pt 8.032770322823747 4.438111780037931 9.665662211005516
Pt 5.29241691070442 6.6473077940013825 8.05243791562965
Pt 4.389534512934842 10.178751435059771 4.634678073123428
Pt 4.492418264265959 7.944898708116727 5.830996821321782
Pt 5.259894322283815 4.433918037682761 9.661345547191917
Pt 2.2510517679284643 9.311515773927503 6.160703999063495
Pt 2.028098347543591 6.643302721343479 6.161767736951761
Pt 2.9634392954617796 7.9976175796626805 8.398299325484814
Pt 6.645415096901226 10.917824641025765 8.635242710377609
Pt 6.647612020871026 8.699858412844884 7.077882302198608
