43
Energy = -215.36771653 eV
Pt 8.653267857124069 9.364399697587423 4.602879145110956
Pt 6.108771181157755 9.844620635548862 4.800898220137425
Pt 7.705100760554217 9.9048049806288 6.8849387327622535
Pt 7.6411577145697684 10.76090679927319 9.254156500821644
Pt 7.073917510305297 7.876970570926798 3.2324884419629694
Pt 9.853392932433302 7.81688287954851 6.342327787647037
Pt 4.013190849293032 10.981335163960615 3.980625456279306
Pt 9.474626189612733 6.991561515144437 3.8002582384676367
Pt 9.204218452938342 8.683162317263259 8.755747247397647
Pt 8.371044098683354 9.224364897028803 11.233511520384111
Pt 3.3401891508030523 8.734764753944999 5.007592096186798
Pt 4.6642072239553585 8.787755129932364 2.7338624313913544
Pt 8.19867488483416 6.016789758674012 1.7182145426937088
Pt 5.18877132741568 8.964541265537584 7.218292723488639
Pt 5.268623518074263 6.896009647713649 5.420387656666256
Pt 9.43651981557349 6.076402565830405 8.267644287868881
Pt 9.899494604270492 5.222826183296051 5.817466540816997
Pt 6.438548948887723 8.456569865340231 9.521163940255637
Pt 5.492376952995668 6.580229953508598 1.6908364533644908
Pt 8.396498526538227 6.74540708606429 10.574100862601258
Pt 7.264859144077518 7.194729319515076 7.189022310324472
Pt 7.515052398275081 5.699495553455723 5.034642788165239
Pt 6.104806351970817 5.806888562288734 9.666284303465785
Pt 4.131875505456088 7.378453410456843 9.031051329780858
Pt 6.402995574491181 4.361798377173805 0.6651025154684679
Pt 2.4774977978820703 8.611075418474472 7.419932238610213
Pt 9.454501612619136 3.4449682865795714 7.673812991080874
Pt 5.9424680888946275 4.971860075739624 7.049455716909077
Pt 3.616498150807164 6.3461628577864895 3.535283949288376
Pt 8.630660498430068 3.0254569991289695 5.136235870026411
Pt 8.299593008876412 4.313444141027008 9.94642506077084
Pt 7.520269108281991 3.9376208900017606 2.9935122125003097
Pt 2.678542395429034 6.361643642550629 5.995053551645911
Pt 4.812874261395875 4.169108463355809 2.743619444125276
Pt 3.89689949704592 4.727946522511823 8.782803834307241
Pt 1.8250291171959439 6.269278820575478 8.438257418743945
Pt 8.20752409870946 1.8154124598284545 9.378357312190623
Pt 3.458996955599392 4.114902230143158 4.934776235344048
Pt 5.960452859789778 3.276125961312769 4.954786188294289
Pt 7.060769150426613 2.4801084309071526 7.159245612845726
Pt 4.407404729043728 2.735190307529903 7.072107755035675
Pt 2.017624330991606 3.9392028849657876 7.0864567099147315
Pt 5.885850505441149 3.142788911969706 9.374156096216021
