47
Energy = -236.41896075 eV
Pt 9.130556650510245 3.574383188821027 4.482327885934655
Pt 8.29208746726353 7.01069381234213 2.9960730096800874
Pt 6.859609991206908 4.555933997971174 3.477354789524867
Pt 6.862668474943881 4.667892576158673 7.059000413495347
Pt 4.696656370913519 5.6419084434057805 5.967350554785335
Pt 5.430114580259701 7.013268048541187 2.995883523590902
Pt 3.197983468660896 5.843353495005661 3.927979544565669
Pt 6.860574970923412 2.649732331504659 5.51406520303166
Pt 4.59050106827666 3.5741926017149224 4.483167358450711
Pt 2.35317554645183 6.865361408621198 6.413301506970723
Pt 2.7456280276857683 9.43382655042287 6.7116736307205365
Pt 3.485944646661732 8.45512256121733 4.279088628133727
Pt 3.2022167384262836 5.183650410946924 8.464582665362725
Pt 4.635025383266577 3.0802287747031833 7.2443407316393325
Pt 4.185379253807064 6.234941999452885 10.71697888889307
Pt 2.4861974864467613 4.204062227536465 6.073905244653219
Pt 5.126478088347228 8.222701104033842 6.1769207777916195
Pt 6.861861891585954 6.56909807388126 5.057915688947269
Pt 6.862583997410826 9.09958586701899 4.0058464631112525
Pt 4.627436503286848 10.258027877846205 8.374327835889801
Pt 6.860929222582578 11.668867151989327 4.539474141514524
Pt 4.7292435358645495 10.672032043954747 5.531363247853158
Pt 3.257307342513778 7.887962658194879 8.815038089922401
Pt 8.595158012781095 8.223449607333155 6.174810844982667
Pt 6.862358539123736 8.792968918132342 7.924797958643314
Pt 9.096142001717311 10.2578029821079 8.375750178655789
Pt 8.994573131390121 10.673229126627946 5.529416136666366
Pt 6.861936281504853 10.80305029011364 9.77989510597053
Pt 5.462259808492991 8.564527654952037 10.331711161052947
Pt 6.863085962648061 11.31464148067627 7.1675458922165936
Pt 5.512187139325008 6.597539746001793 8.2867328939679
Pt 8.213197947516129 6.599163265595754 8.285412295798647
Pt 6.860395064433567 6.263040666181396 10.762180442967209
Pt 10.237831786891974 8.456267868377545 4.277565083765099
Pt 9.025039277200152 5.643935238481132 5.965570245754751
Pt 8.232524673017748 4.189596865086208 9.616071363127734
Pt 10.46799132456426 7.88838179227366 8.817227610483052
Pt 9.535577092099178 6.234413647682349 10.717432690945795
Pt 10.975307628013846 9.43202672751036 6.711524029360029
Pt 10.525749956804873 5.844930725912184 3.9262672280604245
Pt 8.261412203717033 8.56352442548523 10.33245104860986
Pt 10.519799140794762 5.1846827297735425 8.465738683503647
Pt 11.36927541305457 6.864314125188779 6.413987185298575
Pt 9.086383214501017 3.07968519714845 7.244910635867531
Pt 11.234783034363845 4.203294393703386 6.074136735877711
Pt 5.488324719244263 4.190111973337781 9.615318287766305
Pt 6.86087709283052 2.2509245433207385 8.377917675444827
