45
Energy = -228.32948058 eV
Pt 8.999837143217162 4.229490885239232 5.178208549422709
Pt 6.6335840540358495 8.468659677056754 3.8427155730034075
Pt 2.2813080569065374 7.518913979753236 5.327872427658328
Pt 8.817664350807698 11.413780689537917 6.574950628323869
Pt 9.062808915179463 7.08677426458739 9.509922557885556
Pt 4.523932377837931 4.101250324648308 5.287412745490494
Pt 2.4067011732974057 5.06447706930941 6.734001235415575
Pt 4.454232110523618 11.316844457675455 6.717174860835899
Pt 6.7438302886334744 3.7195543137709137 3.8969267104420444
Pt 6.613923035688607 10.70433887252375 5.290712623785086
Pt 4.46538344201527 9.256643678837444 8.339979038633793
Pt 8.85909635782103 4.626726192205564 2.5758764008628288
Pt 6.851336694091929 6.140956528721282 10.660355686365753
Pt 6.695864704780912 8.334518494198935 6.623180925737348
Pt 4.592683614470336 4.071917241439981 7.913585865285933
Pt 4.410296926247197 6.977254071734377 3.7532622750089026
Pt 2.357637807955737 9.659082489437706 6.771288667206262
Pt 6.766900912907294 8.401346327525394 9.390880320920314
Pt 11.137873007092171 5.2830399288762155 6.510866370747417
Pt 8.892488027648358 9.332530788817694 4.944449001669931
Pt 11.137229261746672 7.698777538761033 7.921316865464664
Pt 6.780209695438376 5.972925190837479 7.975872715668006
Pt 4.495113926058945 6.753565666290775 6.690272139032874
Pt 8.9715992480967 6.8778810397927845 6.5763938646115765
Pt 6.685146833332225 10.67804044980023 7.9971233595802875
Pt 6.811303471192284 3.551772649206817 6.562375727391689
Pt 4.400102244307532 9.21817557045901 5.101961154205375
Pt 2.3823041165639123 7.477537857634289 8.15409437376679
Pt 9.044733781997417 4.556276435996238 10.478129495830164
Pt 8.971247338008878 9.357370800476964 8.19118098587518
Pt 6.7216804959886405 6.0369217691376535 5.334375281934626
Pt 9.063207366786779 4.194825566087556 7.804965629753522
Pt 10.993835494763736 9.871535438173675 6.53253299357587
Pt 6.659519445913321 6.119233929898327 2.6445883267119497
Pt 8.92044068847253 7.0761888164800135 3.6140590176381107
Pt 4.5370301285208825 6.985268523593231 9.66076682617441
Pt 4.526643939230794 4.541989352159406 2.6917363639747593
Pt 2.401801181096083 5.225628984943837 4.1516200830842545
Pt 11.021120314375317 5.4324154241911184 3.935286640238726
Pt 11.084345794555901 7.733768392294199 5.094033795215361
Pt 6.880563029054456 3.5097946519624896 9.17816918745037
Pt 11.080795333455272 5.391309645000179 9.113891483040215
Pt 2.5981505529665334 5.171629623761684 9.332756410296277
Pt 4.743033468100774 4.436705253166554 10.581622940416763
Pt 6.944499975567348 3.773795356588677 11.791165194867679
