47
Energy = -235.62918759 eV
Pt 5.7792552056900535 1.4505805748353677 6.408437995260316
Pt 7.009730545288348 3.027691210548981 4.5808285313454435
Pt 8.178455309475158 2.496304948926295 7.063606522240507
Pt 6.181520542687326 2.4483566618187917 8.934608862759296
Pt 3.8782214251934404 3.1335569148415097 10.188694100620522
Pt 8.42099855713676 4.855179188516228 3.341428328499555
Pt 9.632012990957518 3.0840092327206974 4.909500205790667
Pt 5.74175399332766 4.982116764861684 3.2361943651044154
Pt 4.425428684989955 3.3614139913079453 5.004589492445056
Pt 3.8343414687401323 2.8057589041576994 7.587355499473889
Pt 6.190999385665482 4.224318244285611 6.818036771748585
Pt 9.944026406795167 7.055271706951484 2.6616910331138546
Pt 7.303031198539899 7.057426420333086 2.5256162299778304
Pt 10.777666213227976 5.4414492154089755 4.636280263439543
Pt 11.415861971078444 6.689340822081149 6.922632488255368
Pt 6.233027388068354 6.260537175396399 5.377959991249061
Pt 9.711028297406564 4.6517007717921 6.954050134063718
Pt 7.921434032843469 4.453094142352122 8.884430285246347
Pt 2.1225004311306512 4.150500399109852 6.088273236100228
Pt 3.2927886387812766 5.679758300643565 4.198825641978776
Pt 3.4708664619709215 5.626185826277211 10.999210394071017
Pt 6.216683367645429 4.290959228606001 10.97452982362175
Pt 8.672497629846783 6.918954871523709 5.146490548694562
Pt 2.418476042665251 4.897588698208785 8.693600773823054
Pt 4.77520081634721 7.538127280575059 3.1788673553440683
Pt 10.75050517066786 8.338795051339913 4.911665460865322
Pt 4.022428542075305 5.888461693766018 6.681032231721506
Pt 6.729740705877069 8.70885062519671 4.876841273928713
Pt 7.559050777720371 7.809984241628852 7.263791979979489
Pt 10.191129641124165 8.876801420161668 7.546091581259988
Pt 2.492125941584293 7.567000485464403 7.871377266100369
Pt 5.635886669644511 6.7925089752509145 11.885305816172934
Pt 4.947310444802653 8.390282130325858 7.019529773315466
Pt 7.079010299924538 6.865359164282478 9.70470337193944
Pt 9.429256838967508 6.596418662179008 8.632806774958949
Pt 6.33129521060014 9.489266106285319 2.2062576152068525
Pt 3.0705856979082586 8.195438706672611 5.218992679797549
Pt 5.069025051026407 5.254763968262413 8.915407930391106
Pt 8.8451027107201 9.38652698707752 3.2539003430775844
Pt 8.462796269508734 10.647116748417448 8.27399635055421
Pt 6.2857346387412925 10.80577017916723 6.737206372685385
Pt 4.445256596797138 7.72627408899988 9.690678444027553
Pt 8.842120889343349 10.19478677388096 5.756994953974335
Pt 6.3397909480619905 9.396380713712 9.047738682573863
Pt 4.67198873220385 10.102864541756107 4.142395509494142
Pt 3.6620768548496394 10.596162659339205 6.420880164052705
Pt 7.0790381274536545 11.27906834585424 4.115730314756516
