55
Energy = -282.73407206 eV
Pt 6.490015734370245 6.530981795509776 8.84971816099413
Pt 7.92100622477647 6.54500605324164 6.509033426776245
Pt 3.86957076556845 4.387017047417223 10.405807183752732
Pt 2.4016596470042875 4.416372378322341 8.116081199835643
Pt 6.475828622301895 8.749867629481187 7.259767997170105
Pt 9.157258711705893 4.4060721932767155 10.359687925601229
Pt 4.9444180030213 8.7632126083151 9.639711745105659
Pt 9.533121263739032 4.277526720494135 5.623867656157788
Pt 5.092530475739405 6.548371697192515 11.147802043052868
Pt 7.839228418207362 4.380888575693068 8.098435912926583
Pt 9.439364756098938 8.843453318596243 7.389432626794303
Pt 7.929617540868003 6.559585047132173 11.121813248810938
Pt 3.8299368939776643 2.2185902652178537 7.425813617821842
Pt 10.639476350632822 6.591600066084515 6.5042224018035775
Pt 6.434975475997654 8.848592774641785 2.2453043035526448
Pt 9.164440549218845 2.2433660945149625 7.3810245760132265
Pt 3.435652188162158 6.424183884092299 4.113160409739678
Pt 7.855063351973725 6.587310487611155 1.9144514876150183
Pt 5.1506045207647615 4.367988238146542 8.122695357851013
Pt 4.820904371546599 4.308159490491302 3.46220313650156
Pt 5.02580177489605 6.574887188606348 1.9432040307122802
Pt 3.4192979058176145 6.668800368862034 9.01799409252212
Pt 6.461058534033519 6.554226157593239 4.192141500481675
Pt 3.7773878959937206 8.726474477091129 2.7129089702018665
Pt 6.499098439124473 1.7756876290930599 7.383457249142811
Pt 10.555920257333812 8.72642005921528 4.952265722482818
Pt 6.4441589821792435 4.451080563953076 1.3479788149602645
Pt 9.561942422638749 6.689972920162208 8.959441229601504
Pt 5.115785298469135 8.71312219530329 4.9614747081959605
Pt 9.10125475772854 8.747466730479095 2.6616271199716195
Pt 8.036349671011207 8.77440126362169 9.613039483846512
Pt 2.354185400762384 8.692797189610669 5.0233285219623935
Pt 7.811494712525158 10.892634922183381 8.029832348283122
Pt 10.593748748489311 4.44939441199413 8.045597098936
Pt 8.099867343252797 4.322405151047144 3.431956692866503
Pt 5.135145588374024 10.879804987077385 8.04945608031198
Pt 5.0294114520840525 6.532401349871985 6.534364947052082
Pt 6.462832607090067 2.282174069066266 2.933062450552816
Pt 6.455144867848972 11.282465357148356 5.739704398220443
Pt 3.5109281966201307 8.818865324924571 7.439423280756715
Pt 7.799831602601538 8.725272327520731 4.936682498077702
Pt 3.806165477751514 10.866508533859013 5.719751717906444
Pt 6.475523784822336 4.3405859351006635 5.822515784482987
Pt 9.483044965712528 6.448163235165456 4.055878358459276
Pt 9.10527141557749 10.8897340700992 5.680224258098673
Pt 7.9013324596054115 2.196652750127145 5.116934326337211
Pt 7.821854555031151 2.1931548529563334 9.69729068228187
Pt 5.134736017077972 10.912626053148383 3.414678220970467
Pt 3.41788177548326 4.249556727553577 5.675085814437841
Pt 5.203290365586244 2.1805905277062836 9.721689375435842
Pt 7.746590545817014 10.923804314835982 3.3935208814989664
Pt 2.3116462614861573 6.557409158950059 6.5779022343160465
Pt 6.517128748208265 4.2757405450221455 10.819204577946646
Pt 6.507168805375799 8.669929494770953 11.730084380277878
Pt 5.0579589516806776 2.1815572445722093 5.141178184300162
