51
Energy = -261.46454628 eV
Pt 2.6096867591870776 4.175975213732656 3.1903419090710337
Pt 1.9265040348018834 5.123878581789429 5.791176480896045
Pt 2.1872909492934456 2.5529964466797423 5.418470308476113
Pt 4.375661677460973 5.723238228153069 1.9542672693261416
Pt 4.340171967678459 3.1500584865623416 1.400160658131417
Pt 1.7939150499475696 7.742627560185456 6.141366986856529
Pt 4.545571792965911 1.7443431117371806 6.410834183789455
Pt 2.744168025029274 6.83481340375726 3.7993240956831644
Pt 4.177555251538588 1.9385647851965389 3.793073597016272
Pt 3.0681915974358644 3.59184911007863 7.714334808841259
Pt 2.9569569726673826 6.257359653415925 8.007719582133218
Pt 4.379356716739783 4.316062204031234 5.013582167934928
Pt 6.654051193854915 6.933406348996226 1.1351006236598746
Pt 3.5308307790606976 9.202549269493058 4.678526065533467
Pt 6.703081533379753 4.383878871416967 1.6134678416106036
Pt 4.619774794149482 4.73413540580495 9.488881991766547
Pt 8.445963828585912 0.6501312515033449 3.174140415148269
Pt 3.1449457249088253 8.842158336836388 8.307557680617396
Pt 6.4445729557199165 0.8936608664389604 4.872987372404231
Pt 6.372608368407798 1.9046358561689465 2.3338212385372143
Pt 1.9985401044119133 10.326978093769124 6.5179420803607595
Pt 4.978508313765882 2.16400190542784 8.975874887442124
Pt 7.746035008315481 5.657297323061489 5.986644946597131
Pt 5.873481941781406 10.249750469921757 4.031245229272305
Pt 5.380030063224269 9.029955982019148 6.843958364802309
Pt 10.435849028328217 5.950414415517823 7.024464852705598
Pt 9.10975838178308 8.135221762775958 7.524217036208033
Pt 8.59070159492587 5.861691018463022 8.892834363458897
Pt 9.3959898792325 7.303874152434254 4.939677800758061
Pt 9.852064302990344 4.625195646600608 4.782665526079897
Pt 7.609974669189307 10.213262949741738 8.034166800490024
Pt 7.2082379900814395 3.6476226023709954 9.28795381054876
Pt 7.649223838812199 9.233556388669207 5.610323203105156
Pt 9.09392257860019 3.683566733938972 7.361655979579201
Pt 6.720376788746801 5.871894909343542 10.697957422116207
Pt 7.349337231173554 8.199948615211177 9.615034997617856
Pt 6.229538318279507 6.742148975329036 7.732829067787142
Pt 7.558322609532043 8.219535102573799 3.2603093162337133
Pt 4.498652230006693 11.268509334181337 5.999582235005303
Pt 8.622458270615281 5.838146595643881 2.729580017332971
Pt 4.687838232046834 7.327906781874949 9.763170397450622
Pt 8.907368752200519 2.0864532116444114 5.350329603340002
Pt 5.346570359095961 9.926928696467483 9.39198441917535
Pt 7.098978739517838 1.8361691066512005 7.317396625500971
Pt 8.797962237139002 3.2296010064050438 2.838653936333028
Pt 3.5441676786117156 11.48214108753654 8.390877654407424
Pt 5.8562924426630865 4.240476443942065 7.113258973204889
Pt 6.802167032854133 3.530992679178172 4.659734790513556
Pt 4.910084275620011 8.129256101139923 2.776074930322091
Pt 4.464063838916188 6.7603107854590645 5.81159644885007
Pt 6.141126536157799 6.009351372161593 3.9773522473997787
