5
Energy = -17.43681719 eV
Pt 8.332583092740432 6.974386929716961 6.754245784812187
Pt 6.3796817157618 5.641440344299052 6.245237345264622
Pt 5.934242908051336 3.440093619829198 5.674995818680942
Pt 6.901726313598557 8.898670353704842 7.175646426431259
Pt 4.94686511428409 7.5405078968861545 6.644973769247073
