52
Energy = -266.09466866 eV
Pt 1.3840754264307364 6.23481495498754 7.023630893013357
Pt 6.278479125769251 4.3939372187939005 5.242473005893949
Pt 1.2784573284680496 6.942735751274794 1.6966438951985074
Pt 5.608021624115652 8.48601909400952 2.0393438290488786
Pt 2.7918782186017936 5.1935667998440485 5.059340920546599
Pt 2.62487120020743 2.136551850082551 2.7489510380851097
Pt 4.508202850336234 0.5385454743378708 3.9664204919529644
Pt 6.357774238481043 6.868334362357013 8.10351100921055
Pt 8.569975814453361 6.605164257097142 4.084986549244688
Pt 3.622772446714796 5.626053145989515 2.680277971106639
Pt 8.706295620350083 3.9245102110999692 4.36107993945881
Pt 7.616316001979038 2.394018626483792 2.399341065488313
Pt 3.574464611660724 7.034701022965965 8.1346337802119
Pt 8.323626454071967 7.526355101625922 1.5933611884486392
Pt 6.846572025331358 1.580589122295334 4.699777857248806
Pt 6.356893266507169 6.388030711506232 0.4555269949441559
Pt 2.110665528265555 5.422581128485243 10.567098693208587
Pt 3.0941294707287623 8.214143677534723 3.0971024157860465
Pt 5.119523291844281 9.128604972189619 4.543596416280644
Pt 2.8911038315691346 1.9981848120647898 8.010089035391053
Pt 10.389236444603153 5.2090118567773995 5.583289871619335
Pt 3.808302359479365 7.21753919303866 0.6113784076176444
Pt 2.650976214085987 4.555787407950409 8.869493223159953
Pt 4.8805893480844915 0.4349537833745343 9.017729178162844
Pt 4.437615890124073 4.728440944093396 7.068463091736166
Pt 8.163913104374526 2.833120169227992 6.754211468311657
Pt 7.1397725176222275 1.8487804155847014 9.097193229675545
Pt 6.085321090857774 6.192958738014172 3.241465381815647
Pt 4.020148788118625 2.927439990347732 4.806551905637731
Pt 1.0137116939693316 6.967037124657961 4.313155402097539
Pt 6.911457494688347 0.23923875076048398 6.960552134011117
Pt 7.643690389383609 9.049339830013835 3.607126916628381
Pt 4.930460173018554 6.702501434632474 5.489146698892788
Pt 8.200860296136714 4.9140024058296 1.9485494724366985
Pt 2.091246228606827 1.3968429693469688 5.529827475667454
Pt 5.056109465053721 1.5213006264835907 1.5583600769152066
Pt 4.682502986378921 5.168330333556096 9.902285628994086
Pt 3.5582732019389414 3.4726033268348977 0.6469392922906265
Pt 5.02092579875719 9.0045316562765 7.1856980394655805
Pt 7.239172768718524 8.007719258428075 5.970764282598263
Pt 2.816624491816675 8.264269976289945 5.809513454176823
Pt 4.915957326016522 5.571672284582916 9.902285628994086
Pt 1.1159425445283235 3.521226642845988 6.920008546837016
Pt 4.734360845284673 2.9774614049558425 9.659815687456387
Pt 1.4050404088424233 4.342117205728573 1.9594644788040954
Pt 4.210571022060459 0.12081526437568287 6.48930036834388
Pt 5.413151129415871 3.7595381607724003 2.749426299340148
Pt 5.443302921004994 2.3786943499599724 6.980953202692464
Pt 8.19551569944023 5.552525693180187 6.513085002386399
Pt 6.375204662061723 3.6762451035354275 0.38182157657396093
Pt 6.829036175518008 4.3715321124621065 8.522032854476626
Pt 0.9068805407579075 3.484012734164499 4.293836082576335
