53
Energy = -272.90829498 eV
Pt 4.6422350204726595 5.962403170864563 0.6068831520825999
Pt 6.477467707859444 4.134035979755546 1.0414658167709874
Pt 8.264340614686656 2.4930317619072513 2.256651246551352
Pt 3.751442167871395 3.7050037331209853 1.5559303658925732
Pt 6.9788547537878785 6.816804487718863 1.4091103753596126
Pt 2.3468459368382923 8.55717847058752 1.8271651619715363
Pt 5.688755325078839 1.9039956234924018 2.473315774312959
Pt 8.787225030736957 5.057961392866568 2.409332029323904
Pt 2.3827945974420897 6.024237266315955 2.023848478621331
Pt 4.9118502078901525 8.480164231834522 1.4411126242330634
Pt 3.112953016130949 1.6139308834150663 2.951754503456418
Pt 9.053471506655306 7.668767093330171 2.8513895996811596
Pt 4.749164203520059 6.448515514922606 3.2315150603042095
Pt 6.480633443074226 4.199027576215316 3.566907603112735
Pt 1.5486525828364708 3.790360276625189 3.3619064640883916
Pt 6.75714798123364 8.938882861831063 3.28084615958193
Pt 9.78531438685558 6.10311387524483 4.837402926557346
Pt 9.506269079138871 3.3604690772065275 4.455968087953816
Pt 3.9914246637545943 4.081205106382924 4.1331963682777095
Pt 7.116618383423532 6.549859559445311 4.417287218441405
Pt 7.449267218360433 1.517024876824252 4.551398436045518
Pt 1.547881126880827 8.672654091545471 4.285892402894925
Pt 0.5569254201128098 6.147393439530083 4.033328126367441
Pt 4.162568692383906 9.261400880606498 3.8446317267012495
Pt 2.870459019711674 6.605027147547089 4.979891390653471
Pt 5.909192805137217 9.425986898511677 5.788217299962577
Pt 5.184661728011049 6.98379196510368 6.05417977156941
Pt 4.791883518560391 0.8383259318710881 4.819590463327869
Pt 3.2463966073138404 9.043145895841462 6.3478029991693905
Pt 2.3948963261767444 2.1546929291919477 5.389091352473587
Pt 0.9882274155723405 4.425057510772265 6.0108521451306745
Pt 0.9905932289595397 7.193623745889814 6.562159199485077
Pt 7.640933982926423 4.475942102355677 5.840720857985849
Pt 7.556934441720531 8.810374535458383 7.750085763873528
Pt 5.472748336485802 3.027542582224696 6.091428533662295
Pt 3.555482084962193 4.7466767419242 6.65281444583875
Pt 5.037680211071464 8.441357873017939 8.25099176867027
Pt 10.157833874564643 4.415381230718697 6.847578039592059
Pt 8.918718893257042 6.6730951534599265 7.354080640897075
Pt 8.535278114222978 2.3131175223510487 6.977488015007747
Pt 6.512075754095754 0.6095749373858149 6.812485413931692
Pt 8.50546951089524 8.517174170138686 5.346178715023383
Pt 4.0527513659652366 1.3871975803007266 7.485941314082957
Pt 5.946120766368452 5.095090579725035 7.635492602755841
Pt 2.52771968235646 7.8833871704342755 8.59807193346085
Pt 1.8562179827559189 2.7955692249337405 7.862225569763586
Pt 1.8999174634188316 5.3945736261070465 8.484607380943991
Pt 8.288671386165198 4.413201889463732 8.757143433991581
Pt 6.964435302269578 6.802634866978273 9.296252375203634
Pt 6.379958031872782 2.420598502001614 8.693015729186296
Pt 4.286091894854721 6.196952624488389 9.573124991562059
Pt 3.9434164651115866 3.539317860669589 9.172080004784334
Pt 6.141063400923591 4.490098632277589 10.324100802158641
