5
Energy = -17.65761071 eV
Pt 6.135477529154414 6.451839386428282 8.18053955829657
Pt 6.297045243194982 5.492290783346234 5.651658603601792
Pt 4.472657718239316 4.918837789248148 7.2083175755083
Pt 6.811352288458855 7.914797487880668 6.265964266243561
Pt 7.867071085826575 6.815301598614875 4.284810619764515
