54
Energy = -276.42186951 eV
Pt 12.155712349754856 7.676771379199887 3.645560679718703
Pt 11.318379145166514 7.7432024341395485 6.058455964250367
Pt 12.825683306018544 5.649833290286705 6.578397603152864
Pt 9.826479231874924 8.477685397321562 3.1458398747720464
Pt 10.962769592743333 6.388993920402541 8.33006294759322
Pt 10.06838220561529 8.886226637118861 8.051387689382292
Pt 9.53234511037284 9.444008060330477 5.506697696191269
Pt 11.08923140829946 5.54178778352248 4.556188797294749
Pt 8.977102591856456 7.110257922670142 9.761416178768213
Pt 10.760792964834815 4.073357995110631 6.845824005924989
Pt 7.747954674119499 10.140616549179347 3.80529988342093
Pt 9.001210610707647 6.201853562400524 6.537723630487256
Pt 8.289685339048425 10.838769688135033 7.282929496348463
Pt 9.151541229395022 4.514774938305416 8.980970792807158
Pt 7.652411131506522 9.290615154467774 9.200104606077684
Pt 6.094056950380044 10.43714573413457 5.898021812275998
Pt 6.8232163375782395 6.291636628223699 4.952838128859037
Pt 6.999810187109966 7.904818104289291 11.3090933486422
Pt 8.86357468401881 6.073892789045004 3.267058019813231
Pt 7.396447257263881 7.973249523212901 2.329131470400892
Pt 6.0495786532479645 7.008155472617498 8.356848961025833
Pt 6.8296085722654905 4.80812060629388 7.1370609475637865
Pt 6.015847772863799 11.245041849831425 8.519442843382285
Pt 7.453740024444798 8.248969540637393 6.546014987527252
Pt 9.106042291699568 3.9514756439463867 4.773389721279137
Pt 7.101890819078211 5.450582886492894 10.395116529158738
Pt 8.533929497952297 2.7437947121478548 7.122947982956023
Pt 5.093729583294834 9.087169291020546 9.89213671256611
Pt 7.524066832529804 1.99146168940465 4.750276895421533
Pt 6.895815584494815 4.231491757690307 3.2671622638036912
Pt 4.047211558862249 9.823458216577682 7.620160221916039
Pt 6.864916877531835 3.1569256012190188 9.17981973737651
Pt 5.406782349147693 6.374177478965254 2.5588686724506857
Pt 4.244794549839605 5.1836908815206275 7.290591052427315
Pt 4.69103027361876 7.478634170921388 6.116829177412841
Pt 5.463076593139552 8.853636966686203 3.7840092036512045
Pt 3.620766097350459 10.114689298921006 5.0490042678515366
Pt 4.3431684444515595 5.059318544183313 4.718145470321062
Pt 5.909837929922458 2.2617294255023763 6.81022395247988
Pt 4.7165622026612555 6.646906488914542 10.784375374775943
Pt 3.2102535920295634 7.621216485171948 8.770291523656434
Pt 4.979467752341978 4.023913725130314 10.95457601535339
Pt 5.079060272205898 2.4494195196899935 4.337375166387415
Pt 4.334952939780098 4.002217881493262 2.343251731884806
Pt 4.229872578994692 2.9649565242446476 8.702392834324767
Pt 3.263841473751017 7.33287405161229 3.8533518145939696
Pt 1.4367428945360186 9.171470864900002 4.022708036447957
Pt 2.154905330234785 8.433021046048848 6.511612089789371
Pt 2.940766218652411 5.109694537034463 9.606862211741017
Pt 1.7133755084388669 5.887866390029574 7.418082819264442
Pt 3.296609547354611 2.5340166313995747 6.359881524031519
Pt 2.593989443335466 2.503184163342253 3.7126853077063524
Pt 1.903241812118913 4.424114143541694 5.212211791936784
Pt 0.9536003566234292 6.745943756471198 4.973339644264982
