55
Energy = -282.63673464 eV
Pt 5.957139036207836 10.815938195784495 9.915111519470642
Pt 7.596709490389517 11.215529006544394 7.877743304719154
Pt 8.303527366910902 9.681005222867345 9.959222120059406
Pt 8.537335609161248 7.434889641413811 11.437766229431997
Pt 6.024491097646436 8.385346815444416 10.993348435461481
Pt 9.938784957332063 9.926379982181505 7.837154481332548
Pt 10.195569546920067 7.815842364434904 9.440903457379305
Pt 3.9413439558374517 9.244278083523168 9.513375221555725
Pt 4.844493479325706 10.918101583954034 7.553379794205603
Pt 6.461915462908526 11.076519886461138 5.22879570755971
Pt 6.571124019848037 9.108101513544494 6.841804990743
Pt 9.037976880337236 11.139533949396863 5.662234252954103
Pt 6.538932188137076 5.7585555141282 10.98372349815289
Pt 11.828294290346303 8.112989980608997 7.442548800540703
Pt 7.242576297431428 7.6109612021153366 8.827938261177051
Pt 2.9201916293254837 9.109647202901318 6.986633728184789
Pt 2.0473909269294395 7.5210393240899425 8.852624455457756
Pt 8.843830958823183 5.504463354233094 9.643452843568285
Pt 4.129667941024144 6.613656696327866 10.28983215939123
Pt 10.504936117764611 9.011125379119905 5.2475698266193245
Pt 8.799574206743348 7.789469660779962 6.801790226875052
Pt 3.9115264411847455 10.616453908726037 5.130103149666945
Pt 10.436171102403557 5.800291298298098 7.578757072342243
Pt 8.127635647805802 9.275321152863926 4.051386180541904
Pt 4.786115228977676 7.251863228123885 7.862417760795309
Pt 5.416284093729492 7.335594073661791 5.330034266558093
Pt 5.499821792595344 9.212674002479005 3.5127227687227016
Pt 3.094110458595996 8.239458503893282 4.455936815904392
Pt 4.972188734210674 4.0736737522085775 9.768731616490774
Pt 2.8723553190111257 5.04942011767503 8.483896722479905
Pt 2.1666952047483337 6.55913505999802 6.380174130915568
Pt 6.590838128825205 5.247384888513311 8.006986295881461
Pt 7.622544028961648 5.900897254019088 5.61652730608595
Pt 4.409876124101839 5.101559136375129 6.3183480059655635
Pt 11.54572547797374 6.599576464764842 5.315577481627199
Pt 9.386717265786984 6.989242045005834 3.854840255017887
Pt 9.851102281098475 4.543979227994969 5.2634962281799815
Pt 3.9443402091340083 2.8270618396722003 7.5007076607858565
Pt 8.8550311058531 3.724975808341595 7.709476318707999
Pt 6.5189146872667925 2.4792351991780412 8.455613922324348
Pt 2.2643571268725977 5.886692162322471 3.8671200065976765
Pt 7.1093465026990135 7.320228205410164 2.62385137970669
Pt 4.44140045745857 6.867098801796347 2.578096793074641
Pt 5.665279501633871 5.029235285598649 4.033722554019418
Pt 2.7465608432304975 3.5842258021878948 5.087469177436288
Pt 6.536534939602398 3.5296194523449658 5.93284264209291
Pt 8.270385297740637 4.783218124502719 3.0620235140173047
Pt 8.299701288446661 1.370982455082863 6.806638488207354
Pt 5.684519145762814 1.0638947891074786 6.3855670679180685
Pt 8.427054429602526 2.5336572275674043 4.471501445738096
Pt 6.149951681800655 5.159094588765678 1.386774017481308
Pt 3.7733662933292518 4.114417134636519 2.603934185841576
Pt 4.663217646851957 2.1654358859499108 4.280695732437492
Pt 6.494478265427583 2.8379845451835153 2.5041093803681265
Pt 6.71375078764889 0.6467470176165747 3.9566693409498597
