53
Energy = -270.06397528 eV
Pt 5.158658191194845 4.506284757986377 1.3015229012570868
Pt 7.582398742545567 3.594087114565293 1.998708059460579
Pt 5.334422836654291 2.499032797875346 3.075959417462976
Pt 4.179261697411356 6.714246051115796 2.5561507830795853
Pt 3.2878651873638165 4.17576659545792 3.1652626016933465
Pt 7.583010481426922 1.0920138703645086 3.0799502332816737
Pt 7.030676609127844 6.2096316291276805 2.1277478578384184
Pt 9.786071561035827 2.5937510205849192 3.142951347571421
Pt 6.088217526290629 8.450014467981676 3.1770632713984575
Pt 9.215745741297399 5.201153828069956 3.494652621173909
Pt 3.5448089196561443 8.69843659912328 4.212441856884808
Pt 5.178812585836952 10.812799822481646 3.940953287207
Pt 8.58605669684098 7.697668181148021 3.7700312845589465
Pt 5.632042458405676 5.13980474975979 4.100268860176788
Pt 2.6285963016274856 6.30305914448328 4.7428788504927635
Pt 6.1610539866919725 1.3981366566493318 5.366468579437295
Pt 7.495996374685936 3.500908337110808 4.675865567628874
Pt 3.7546341756186163 2.4254441317351483 5.2394620329936545
Pt 7.7562226385041955 10.185149347994678 4.164375844818384
Pt 1.6729219007231664 3.917131693363922 5.263012784325797
Pt 5.260009085444899 7.273380484357244 5.595620884465903
Pt 8.945970721051506 1.3578119669047988 5.349902712159765
Pt 7.602880489520743 6.110822212852651 5.596306042803621
Pt 10.184210562979032 3.80516871563583 5.516580167193407
Pt 10.104833344102595 6.431474716670368 5.91919093679889
Pt 5.205665413118772 12.686715554093363 5.711769721240322
Pt 3.795991150153782 10.480640815136153 6.174739852910338
Pt 4.333481503716607 4.782171051290313 6.29162693450392
Pt 8.784345615168814 8.836449377403554 6.178484064607553
Pt 6.305606624860857 9.557433213256827 6.270453944223628
Pt 6.9808559944324795 11.746531943833425 7.3727482209315
Pt 2.6031056631101905 8.179373380474003 6.673723199944168
Pt 7.500740887211528 3.8680053914849712 7.1940395887805515
Pt 5.1710339152149905 2.605103185766316 7.5043113871503655
Pt 4.397413694686209 12.088172679160508 8.182938611828918
Pt 8.436405802630857 9.886482916463956 8.548406766221056
Pt 6.181621875244178 6.030453490837144 7.773763437193719
Pt 1.8543563489127572 5.67298464083137 7.21781969909818
Pt 9.071625923505799 7.298980763515872 8.274264948369064
Pt 4.928064048072931 8.247997524824026 8.006250657841658
Pt 10.13431936377486 2.1231386758342228 7.576088391646831
Pt 9.79467709504385 4.7978643015022335 7.9869616255642715
Pt 7.562805890096109 1.3024928715199038 7.6433696579884325
Pt 3.0621654578907065 9.894857060572493 8.73567046013113
Pt 5.9789136609215765 10.409038260917233 9.370988741159783
Pt 3.586264016272667 4.502876180436596 8.814568287739537
Pt 7.02338254694769 8.016259421498013 9.764442268855992
Pt 7.799836431912903 5.489545990772618 9.778953220446757
Pt 2.804386331790956 7.13239619146733 9.181798869868157
Pt 5.8630222194938515 3.6013697610646287 9.817652045274091
Pt 8.443689928501989 2.9617739336128355 9.502946887872582
Pt 5.147124511266589 6.102069829814378 10.221136339777475
Pt 4.505301455110978 8.617224884320965 10.668335567771706
