50
Energy = -255.54058063 eV
Pt 8.965833979151874 4.677489947793642 4.479080487124633
Pt 6.4425889484919265 3.4979950802187325 4.753716153785247
Pt 8.0478981711111 3.5228063155750062 6.859801772497705
Pt 4.293243807109151 2.6747074901682604 3.51232409246747
Pt 10.592603829140481 4.028828853902386 6.441675813347641
Pt 8.01277875916815 5.7194237481118755 2.36520788474602
Pt 5.448367929386713 3.4151421027722315 7.2442124474590255
Pt 5.919822880496089 4.322598218918531 2.3374958818049256
Pt 10.851846538546946 6.523768085605167 5.488456286496551
Pt 7.054470920445797 3.569505344768228 9.294264259500041
Pt 10.308897367076735 6.649337428334999 2.9787097890535352
Pt 3.3858654900766525 3.5552444872362274 5.701826242633558
Pt 8.12355208067867 8.28172953417532 2.71132440080968
Pt 9.704582147455179 3.902112277597017 8.898141454403842
Pt 8.513355761378701 6.139380444080849 6.776018250514139
Pt 6.484741062523651 6.1193578938283615 5.077388817714172
Pt 2.77415936616099 4.228222943641344 8.07036678294187
Pt 4.080566997327627 5.381886209540276 3.8864665143814996
Pt 2.829316776094398 6.103650879185821 6.0745493079536335
Pt 10.88703585028844 6.124230932487439 8.041108636928646
Pt 4.601600297964838 4.8035024572474505 9.75809563002844
Pt 5.191404949284863 6.021466036186419 7.298875681120073
Pt 8.01862590017724 8.282741524281182 5.282505255805723
Pt 8.684589923852208 4.162789537643504 11.295900819271369
Pt 5.725052769267781 7.049207173494816 2.657128272384187
Pt 3.8472350029215527 7.915051512728349 4.396432699850517
Pt 10.772171405383903 5.620052021926959 10.637771210756682
Pt 7.165845307079757 6.147859580438674 8.943187218799546
Pt 10.352264736304004 8.921772492201594 4.497053061745328
Pt 6.137560630015997 4.110020986600261 11.744705648443077
Pt 10.69795388470468 8.604111425152345 7.172041578776238
Pt 2.9718913538967144 6.761916415689103 8.719904063944503
Pt 7.886341604339369 8.46868403488093 7.860899769804134
Pt 2.99269415959245 8.645952541062075 6.803410450571828
Pt 5.89913355581387 9.48225561697846 3.613856155690935
Pt 5.6451283121712414 8.390836922881325 6.318351061542051
Pt 5.889435982056501 6.645253092261964 11.15393960401712
Pt 8.305170798567923 10.637271705436367 3.864196668660894
Pt 5.359507553141541 8.136832154550044 9.078479981320717
Pt 10.161506752103714 8.012366960578616 9.714026859043111
Pt 8.465752902398302 6.696314865373711 11.201599967156465
Pt 9.075615572152776 10.63753540561885 6.369292608321233
Pt 3.9553888125900145 10.502987553513625 5.131775396228138
Pt 9.761138771737668 10.425769525146817 8.902811823333781
Pt 3.0819174052675837 9.306856303506112 9.377130221086704
Pt 6.474351095279196 11.004928133710914 5.759563663757135
Pt 7.7933965766757884 9.123650875962525 10.410164339048286
Pt 4.697752165082672 10.648585183304863 7.662096022806479
Pt 7.292146851725733 11.015868482936106 8.319107340837775
Pt 5.463199077036709 10.467444031461461 10.150864419980737
