5
Energy = -17.78459724 eV
Pt 5.803121488505485 7.906054188403923 8.544709819836886
Pt 7.846465394098787 6.852828015677205 7.586925945449945
Pt 5.631320159199425 6.974562048111842 6.246517978701602
Pt 7.266109660724008 4.973181913269258 6.036154948952276
Pt 5.952983297472222 5.793373834537822 4.085691307059465
