53
Energy = -270.05671667 eV
Pt 8.091078648472397 4.350855130950212 1.685323723544536
Pt 6.90152834290284 8.851425051006796 1.7625055458771557
Pt 8.62139970024237 6.931617648067935 2.444540368618491
Pt 6.275828729695592 6.26728357090687 1.2658120866431049
Pt 5.672421095970255 3.997727217469782 2.5790614217234875
Pt 4.824753475360878 7.713377067020651 2.931709924471732
Pt 9.395625734268044 4.955102880533785 3.9120234297132352
Pt 7.779396088840124 2.8717733175937017 3.834839613190098
Pt 10.399384443107857 7.269516577226918 4.488943935763503
Pt 6.64118338670574 6.099301703407156 3.934217451706759
Pt 8.611003037354546 9.147528203042869 3.813516248797344
Pt 5.90773569490323 9.91039182659122 3.954131746406949
Pt 3.3598728726107723 3.742979096436443 3.7579781574465105
Pt 3.112563713527954 6.363519389615548 4.30777652718969
Pt 7.587570246187002 2.247094057530713 6.431377385797761
Pt 4.983021155443597 5.100983582456479 5.602980390969485
Pt 9.891784516221731 2.794832949796067 5.4041752991067185
Pt 10.291008157110195 5.13662773787463 6.341697165011616
Pt 3.7623582918616 8.793258935726687 5.152669214709276
Pt 11.52777417031692 7.356276301570449 6.8438771682291994
Pt 5.449859118489742 2.5172864243143285 4.866180195579949
Pt 7.706567600992197 10.737356083145352 5.756044933703922
Pt 7.630065752475455 4.952825536563388 6.0612753466689115
Pt 6.961257572237671 8.067296550246656 5.542274378256195
Pt 9.66000013460267 9.052457861196483 6.223560730187438
Pt 4.974347914307669 10.981035923210696 6.163475282487854
Pt 5.280715457490151 2.3014146511990017 7.49127194227379
Pt 8.697961904679877 4.011962423762958 8.32892324556913
Pt 3.1329474219535776 2.00190976297911 5.846446197328137
Pt 12.346087178421827 7.531661793302019 9.28467487173753
Pt 2.4672022213781117 4.523856280947701 6.191885407654625
Pt 5.879165688603314 4.770153925094887 7.986376635143336
Pt 9.853659261817674 8.102501943552435 8.777903565602665
Pt 6.305671786451734 9.444747310327296 7.832642586977522
Pt 7.60251584676842 6.954904846641791 7.817168284527781
Pt 10.737615522693693 5.584027282736758 8.887968296640011
Pt 3.4974650937842626 9.384610365728408 7.784397421434115
Pt 2.443102757934294 7.134689916797674 6.760504137812467
Pt 8.717209353218069 10.408965665754005 8.272259789049526
Pt 4.601328433113201 11.514011307010296 8.823135588671468
Pt 6.727397755973376 4.093705597180628 10.29538941018223
Pt 5.060353783564728 7.2009886323723435 7.081610729427229
Pt 6.8612370720752205 12.276835847384596 7.710787461605056
Pt 7.677330213968006 8.575403899838607 10.115772687711637
Pt 4.914647507404675 2.2331029475311857 9.991028780438127
Pt 2.8393164806225433 2.9180373615093025 8.313868856185541
Pt 1.914191547992273 5.33324874722779 8.625597440266327
Pt 6.884604519217139 11.10982659356488 10.131763528917118
Pt 8.449147932673323 6.023843859738757 10.135131563448914
Pt 5.043309261956022 9.148725699954815 10.128016113275347
Pt 4.135942441507037 4.740890220615372 9.929226957332755
Pt 5.876467599431602 6.659287062482299 10.491992777529644
Pt 3.504837754008714 7.214223828147356 9.343025899663433
