52
Energy = -264.73019754 eV
Pt 4.8943724442492105 11.657127445869266 5.274735365855628
Pt 4.089549417199514 9.363422790503153 4.157687256939303
Pt 6.683966787849367 9.94853390904503 4.184372412566171
Pt 5.763146991647408 7.902860706481978 2.5645847631096514
Pt 1.8273588157097205 8.323023678529836 5.19311088688379
Pt 0.6685169055856095 9.571204705228052 7.161345173261087
Pt 2.9511246033776835 10.484331036175318 6.427410160441846
Pt 4.585345116615795 10.395354901601923 8.613440439906558
Pt 3.3251993860927933 7.028565826751919 3.4853528447812905
Pt 7.063742220173437 11.060908465865625 6.634836342753868
Pt 8.411664996183978 8.191882922926657 3.3695451347646177
Pt 5.3494033356358965 9.0688568185625 6.522939470277914
Pt 1.0265071368490315 6.8799416161157385 7.436183040361101
Pt 7.572841308982819 5.834132140595936 2.5670296620357194
Pt 6.179646136644141 7.094908113952344 4.967565850425025
Pt 3.595421102503419 7.192486412637247 6.851935406528196
Pt 9.033313695640276 9.786553795167388 5.436369841171511
Pt 1.8128636960013855 5.635321517712338 5.250734711324524
Pt 5.143691216869689 5.257638227048872 2.7516883829790544
Pt 7.050708785758091 9.46181647489327 8.75896775351194
Pt 2.6033219877283256 8.70785635835721 8.693916553354466
Pt 5.012144118852497 7.839299497039366 9.459911342975142
Pt 2.6572327857155438 4.371337071525421 3.1243190451939555
Pt 7.896954637591428 7.898448359823376 6.7699554023754756
Pt 4.470121362510989 5.150084201678785 5.392300989048883
Pt 10.575944358536116 7.658387483932748 4.913958459480446
Pt 8.483399544239305 5.908019255828559 5.212403405931184
Pt 2.7951791417149763 3.187502228735665 5.642860602885832
Pt 6.009191210397384 6.211854318140533 7.509926574811622
Pt 3.009994668923014 6.065448574134305 9.144015036415984
Pt 10.196350434533521 6.121442944511728 2.882686210480813
Pt 4.778519887418131 2.929847037072975 3.7994173059044942
Pt 9.481209782149879 8.410273179521612 8.68780084371132
Pt 6.790701525968416 4.131035210620461 6.042646134322654
Pt 3.9894102423145985 4.007592440066931 7.8761816471724915
Pt 8.952185665075357 3.845916733065882 3.559353271512764
Pt 7.545449042969495 7.103034754192628 9.927381339683029
Pt 11.125755343353331 9.214783596627358 6.893842735853668
Pt 11.21890448337041 6.616007856207169 7.294947016339196
Pt 5.419836203839886 5.166522973038694 9.827677854767703
Pt 8.421630672231473 5.232398811559655 7.7697943382356875
Pt 5.080537468000443 2.081500350641813 6.39699778010273
Pt 10.820978074922667 4.866942877191665 5.294655967422568
Pt 7.125513832219105 2.13655448755804 4.430021402161305
Pt 10.03578141011793 6.088872669398 9.648238886563181
Pt 6.312075681682538 2.939847312533819 8.63878288730807
Pt 9.200381888896432 2.8375742650685756 6.034315889326194
Pt 7.8817343374356765 4.429224443122834 10.208538936640755
Pt 10.816711553077164 4.0936505617795085 7.777313456571857
Pt 7.44419406340558 1.176079975927852 7.000641239130336
Pt 8.924546342567858 2.345587199773414 8.726639996485995
Pt 10.446612860430076 3.6470011765940527 10.350700152756122
