55
Energy = -284.95690115 eV
Pt 3.645304352454852 3.432916870779317 1.7320842456760739
Pt 7.752184836117225 2.2207295609296422 5.06371549792487
Pt 5.1905955225474525 1.8516340843530028 5.736420890022245
Pt 4.940181924414804 5.732354728511245 3.668261124438446
Pt 3.345976958503756 7.846203036272587 3.118527526826033
Pt 5.575092459433263 7.479567127260685 1.5612826911734226
Pt 3.5608968445568063 5.997696468695167 1.0715050539362914
Pt 1.6352096230073265 6.185402699955497 7.709908394620487
Pt 6.671333391323228 5.121969019536366 7.597135538497209
Pt 6.9858655102319664 7.296306537358151 4.40904996540615
Pt 8.579682365365256 6.287685796137895 6.186190202344471
Pt 7.032293029209161 2.358511003314655 7.6493841817916115
Pt 2.373163911800653 5.202658734066832 3.285035604407812
Pt 3.6083542786736467 3.369779101861818 10.53727408928272
Pt 2.046418697734246 3.671632707805569 8.388658683877601
Pt 10.865510327739127 6.543161244864562 5.0485567980533474
Pt 8.579169424040545 9.85738366320165 6.880771096098189
Pt 10.26148619887808 5.410950536058184 2.749176754517889
Pt 4.221288271191883 7.052324491952979 5.756476946151044
Pt 1.866802135058697 8.739651989202203 7.154164360811713
Pt 3.1902911147841815 2.7249322235391755 4.120413694925123
Pt 6.61066607648155 10.302709372402319 8.56500461005738
Pt 5.924746543785555 4.719679680759676 1.4609543788425865
Pt 10.485709314179541 5.003775882744496 7.331248108304808
Pt 9.634181043092028 7.927529483658333 3.1983395014652585
Pt 10.522629186509457 9.21869718601703 5.307411155827528
Pt 5.555246854061471 9.408631841630177 3.5010954704863053
Pt 6.420656629262333 7.695760939433084 6.998389067042278
Pt 4.247032009522814 5.966401410203215 8.038127136938128
Pt 9.812462251750247 6.308157272741498 9.533481203607797
Pt 9.566740405252284 2.5454435712407486 6.958448235359799
Pt 1.8875267692904927 4.385274856652074 5.774259498359901
Pt 4.6653743037189015 5.829305334320817 10.561740479570357
Pt 3.022267830262468 7.806784955090213 9.452478858581236
Pt 4.565553934154456 4.445297672805482 5.970362199011917
Pt 8.144148119181066 3.8606058183583745 2.7146511828497455
Pt 1.7346194865339344 6.960606935539524 5.159615298679365
Pt 7.941666631006841 6.378001746839412 1.9347903271435012
Pt 10.292919731167212 7.758766483084053 7.440281836230041
Pt 2.6029945386085536 1.95616169417867 6.511833225329484
Pt 8.665604469586901 3.968759081409148 9.005738054113198
Pt 4.4872529707276865 2.686303135062652 8.161352797674503
Pt 6.164581811474091 3.5772881825666563 9.905024935410239
Pt 8.073735835155363 9.734832010429862 4.328924260147952
Pt 6.044382358118255 10.135473414813662 6.008316068445349
Pt 3.5902298072239844 9.466192729762088 5.241191576633599
Pt 7.2568502897957865 5.999927197988567 10.057225102104788
Pt 4.186189664675206 9.576995877960071 7.871773019093693
Pt 7.636549424701834 9.015463854376238 1.8283325184485606
Pt 5.652207244578346 8.102920868379176 9.657242913164083
Pt 5.792343414754747 2.7932359394131603 3.34342736940004
Pt 9.904863561189027 3.968591440604024 4.851137467245334
Pt 7.070347130394533 4.669372169857393 4.908770030749932
Pt 8.209984360109866 8.297298009231083 9.056419887011906
Pt 2.030155617690914 5.475823119853486 10.268139680949075
