51
Energy = -262.19506434 eV
Pt 2.6880885423620096 6.764129929722381 1.177246043099247
Pt 6.987100234299684 5.272092648454717 1.2590450968882456
Pt 6.089589860826165 2.782581276559446 1.4559602215581855
Pt 3.400653342126965 8.571679555000848 2.859247232095399
Pt 8.884785326358715 5.8026965950905645 3.162447068561705
Pt 8.643760634847688 3.3731317915767036 2.0861528040548336
Pt 5.248037780770895 7.29468902551163 1.3084595185846346
Pt 7.599617238971154 1.4803530164547878 3.6791145834710215
Pt 1.7589226083118312 4.507046400683033 2.066257266432669
Pt 7.860171837182539 7.776803517644626 1.7153870853013222
Pt 3.9704196051554637 4.304979491553576 3.3474106584420107
Pt 4.379273196074027 4.762412477119671 0.8528305641358218
Pt 5.306934750715156 0.5898478611248714 2.6834294198820676
Pt 4.293588655269828 10.342850561862363 4.5283817121453
Pt 6.276305981085098 6.334383623683166 3.673656877515859
Pt 6.445655469986144 3.770951824368636 3.832894600052779
Pt 2.498278358624765 8.555850469086012 5.5258958555562385
Pt 1.137045519597895 2.205410919099477 3.082276037289021
Pt 8.417345149905724 8.136943004900486 4.368465897281426
Pt 3.848167447924692 6.609742419321857 4.5190996511171155
Pt 0.5315564416768176 4.460857528260956 4.4536408790967235
Pt 3.4910851225748307 2.3234936051200323 1.7788943114683022
Pt 1.4572417339924835 6.8050154201332065 3.565481963509301
Pt 5.660205689289477 0.5425341801979425 5.273510256086148
Pt 6.087049850250675 9.02699791969858 3.1381675988215676
Pt 9.10537891262133 3.558409944105153 4.67597648196799
Pt 5.19880323706189 3.070169489493416 6.032742903282045
Pt 1.2262501760091602 1.830302118065542 5.686527123483501
Pt 7.7033966206695 1.9640608580540697 6.311995880096714
Pt 3.2665237301836525 1.130112789395534 4.177782336303908
Pt 6.711566618545393 9.859350198372002 5.54111375564081
Pt 5.856915084611199 7.3898542328975765 6.007751249461349
Pt 9.31470892954438 6.091132506999978 5.796340211165951
Pt 2.778357693235458 3.8554772871699887 5.560087111376872
Pt 0.26200255457283833 4.047292161103607 7.036202651901651
Pt 3.5141696323068334 0.9656973969196024 6.817593212749642
Pt 4.514869730595938 9.42765027625649 6.989861484287262
Pt 4.358197773360646 5.458696596507186 6.794445478694794
Pt 1.3014591013891281 6.329261735677305 6.236963886139223
Pt 7.0124049150105705 5.026070186401374 6.023789251526053
Pt 9.211082728505124 3.9227247553407096 7.322034893285968
Pt 8.13459723136026 8.162773518018112 7.0306078330212625
Pt 5.891323586486217 0.8977529113827761 7.916735993926024
Pt 1.736258074130297 2.272856067528572 8.24896779739889
Pt 5.832464368757614 7.839403210641962 8.609469064195439
Pt 7.64270112644218 5.903963069259101 8.389308896889064
Pt 2.4192114180501045 4.829503500976534 8.433111090173178
Pt 4.267669975821767 2.8817673355172495 8.627424356058865
Pt 3.109808319706773 7.3880445737429055 7.941296398813447
Pt 5.0892972598940105 5.350254502690879 9.209391752903668
Pt 6.821348953504971 3.391591845809349 8.430773833365645
