52
Energy = -263.57530617 eV
Pt 9.238102307347518 9.125897624768285 4.024738279991084
Pt 7.374693971173256 10.89991398392834 4.665506178386485
Pt 7.889319045131841 10.206131820333072 2.0619526832748925
Pt 10.129768653981518 6.4846932968241875 3.7909945906908806
Pt 7.556900372069899 7.88266534829373 6.6628557024730455
Pt 6.313229479605712 10.36368437372763 7.032984028068217
Pt 8.225982791464663 7.648531894523975 2.019132254407325
Pt 9.01236634113155 10.007479174066159 6.592716993260803
Pt 5.546147213775783 11.19556911706975 2.7968517076651014
Pt 4.686834902497667 11.394279486534902 5.274580581117348
Pt 9.834373444007875 7.716506035789146 8.106103801816838
Pt 5.07413239276172 7.200757507168789 6.625278923866774
Pt 3.58387804213573 7.212499434848135 2.395205878941329
Pt 3.8183827931481513 9.382217930767709 3.8925744084573477
Pt 5.015750579982962 8.815086595307527 8.824382714944198
Pt 8.867232812990071 4.049325006509813 4.530156945529882
Pt 6.011232320784781 6.083962699039528 1.6873389839956094
Pt 8.466785769315608 5.106062113831538 2.129727766113894
Pt 8.066495219747518 5.495949752927783 7.395245595414352
Pt 3.660352065146029 9.319914839837615 6.595637542252582
Pt 2.67812381866281 5.469579842606961 4.476354505953967
Pt 3.0841264999974114 3.5775002544972967 9.417790966416423
Pt 5.721116122680748 8.734457115075942 1.9102221126748364
Pt 4.338938407922752 7.035517153340916 10.755581584700598
Pt 5.118099869884164 4.449287695292405 10.97094268447617
Pt 4.015861420911101 4.467822300928279 2.380445302510343
Pt 6.451790832137585 8.737347620198808 11.054431701112906
Pt 2.4530140047485873 6.179804515664958 9.262439114774303
Pt 7.8002021464144855 9.31712957314756 8.887569889990143
Pt 2.5431922872240675 3.994782287098064 6.673632114506041
Pt 6.240393701934574 8.587765268836892 4.457188771271419
Pt 6.46685982669634 6.391874357137337 12.188567609498051
Pt 4.330127354245089 3.2439683794071428 4.732353292827591
Pt 6.3592004952752985 6.437458755026921 9.155452336946333
Pt 5.081625354328203 6.306705795624495 4.2052943048226386
Pt 2.4883957110595776 6.833241150913402 6.699679597866407
Pt 4.418799565555589 5.17192769499768 8.007310794391818
Pt 6.064681510290865 4.767690380984302 6.001495496478909
Pt 8.563529211599619 7.242095362237735 10.399597962856697
Pt 4.688650520884638 2.3824462871528964 7.16616642927914
Pt 7.68017375920407 6.410212264452338 4.4582613715061346
Pt 6.596045154743318 3.808259780227043 8.687853794803639
Pt 6.9127204417212935 2.4043513381684973 5.47717911362267
Pt 10.805553742015764 8.106554663082203 5.734338159867865
Pt 6.482500594945631 3.8223721453760966 3.273561835170929
Pt 7.882417198088752 4.687715380868898 10.893969585202882
Pt 9.884109821597699 5.2379372714466825 9.185408706445198
Pt 5.1345580860128885 2.009850706751742 9.80020957518567
Pt 9.147168524878806 3.17951783057857 6.974026165183802
Pt 10.398767880720468 5.552678503799702 6.336255585259606
Pt 7.144725758324217 1.4269296648944794 7.922777767650644
Pt 8.83873038211401 2.7195342253954946 9.553154827840247
