51
Energy = -261.52182137 eV
Pt 3.0900785656867944 10.71234524750582 4.977392931305984
Pt 2.9557434972787173 8.494012437531609 8.994040316654583
Pt 5.920929126981848 2.7902867313739255 9.37771187296388
Pt 4.4272094909184165 2.621926840037393 5.1600660322070135
Pt 5.325805843473993 10.471384677934488 6.364267760126557
Pt 9.389632925948431 8.400596706613598 6.487160627874235
Pt 10.73950073994299 6.432248519032148 7.787929465092948
Pt 4.831824185250811 5.36885132125352 5.208002698474363
Pt 9.162101188535607 8.10164098423095 3.838267114937064
Pt 7.931670180316803 6.207116657011615 6.697404271985703
Pt 7.45543788259467 6.774993278664585 11.030287377593476
Pt 5.6668363056052655 7.96823231410129 2.369058428348897
Pt 3.601404225921968 4.1754943938125955 8.804280318375941
Pt 8.090497723873463 7.524019292904166 1.4246050536254211
Pt 9.703404973945585 4.1370528913683495 7.162506440155171
Pt 6.635893866171909 1.639256189121861 4.260402487621058
Pt 10.169540477900123 6.061923111357173 5.241651936585401
Pt 6.120127636543448 7.313613330696811 8.10701545188616
Pt 4.988172030560426 7.888090697222437 5.865736163213353
Pt 3.5030703102756195 8.358005600231625 3.771858306149643
Pt 6.496311240200547 5.474371471476465 1.8701085288377086
Pt 2.636764077998962 3.8812527649516753 3.679989861068767
Pt 8.410582199428216 2.3694141406613554 8.625803713544602
Pt 7.1798057927911385 4.1902037326493655 5.100383930038664
Pt 5.045280470345895 7.8748573832140245 10.495411898743992
Pt 8.803020558139494 1.8353099652101714 6.169067219790024
Pt 9.144817367925056 1.2912243639476446 3.6434152434994496
Pt 6.324842060267577 2.0345849681208397 6.894004317513479
Pt 6.882902585348396 6.837468284609853 4.427194912736745
Pt 7.746587522233598 3.310411468187759 2.548712674111666
Pt 3.0597266254715323 6.24592471254967 10.215619552608354
Pt 3.0112583033563425 10.695465580976723 7.629723963292624
Pt 4.017508626061033 5.9541732897423545 2.771326536375855
Pt 7.513941983781746 9.696604623765673 5.155988296333587
Pt 7.393166104950121 9.6162727420438 7.720988799469496
Pt 9.008363598676313 5.612547568648595 2.9172461416503097
Pt 5.3326616148794885 10.34097076612732 3.7117079496767524
Pt 2.432065498078102 6.291849546260472 7.664202716959376
Pt 5.875415838396076 4.769998210585838 7.4909041428391046
Pt 9.747557913347354 3.667566693761639 4.453034087516679
Pt 5.14468574083812 10.108602099523198 8.996178639626324
Pt 5.127843858112922 3.4443792314037265 2.804209144712932
Pt 2.3387823160935226 6.25043659853647 4.988820641822078
Pt 5.55066643894213 5.258884618300587 10.211378707228054
Pt 2.542297391500539 3.9970331715273524 6.364946743001797
Pt 2.477892799704739 8.487625668895816 6.318577476167482
Pt 7.243055018743925 9.276846113558067 10.308859730931236
Pt 8.868003311849613 7.623694164176524 9.01503345863057
Pt 7.564682364638135 9.834120067954085 2.5417282781776716
Pt 3.8690257156347876 1.9756631363985264 7.630814874416689
Pt 8.084549612731882 4.894097358422018 9.287918491695335
