50
Energy = -255.3215804 eV
Pt 7.083639717696936 5.3589767503156995 0.9891243106515419
Pt 7.102642036068323 3.399964139254977 2.895011649865895
Pt 8.492610300892283 5.643050763298992 3.141455396652788
Pt 8.594772192155805 3.83950218775657 5.104426162924564
Pt 10.109072042797612 6.0258660150538885 5.091834414137467
Pt 9.255173143842946 8.16802617642773 3.551168053581476
Pt 5.070203899448223 3.742412459029128 0.978909590817935
Pt 11.301854041641299 8.354456005915557 5.202145107189852
Pt 11.792263242549074 6.498944580931188 7.0655021827043445
Pt 7.0040522028798 7.740237540897059 2.1937801143562616
Pt 10.062377707024194 4.466838653472331 7.261977959741541
Pt 6.161263220182531 2.6137905811659325 5.32211393512403
Pt 4.428162716122835 3.1460267081938893 3.43757917498853
Pt 7.906694165826012 2.929585621892543 7.5404905990263975
Pt 5.750581929070301 5.270655961370137 4.1405522330478055
Pt 4.798603628945008 6.280852109785787 1.9568345461846441
Pt 7.27574300425673 7.208013550277214 5.148423889016041
Pt 7.043973892532838 9.634324562070818 4.02563561543503
Pt 6.678245703706978 5.013293018662946 6.683470104700753
Pt 9.076515353606856 9.684846478362182 5.704931092968052
Pt 10.449372962818696 8.60348238591791 7.707253890376522
Pt 2.7791902937394424 4.564177094208854 2.1032082927880977
Pt 8.555025512052678 6.681246312008272 7.395651037022672
Pt 10.422224324330418 6.442499259057267 9.304849565958907
Pt 4.778589091154701 8.302797287746552 3.5658760080980643
Pt 4.737076635399187 10.519641187818433 4.940069817806938
Pt 3.023570116157592 6.283454623516469 4.038282635080686
Pt 6.636819384259961 8.427275069401487 7.4029756133861015
Pt 8.685763589132076 4.506377267107589 9.55146159907417
Pt 6.79801907670378 10.825078395116275 6.502229533367837
Pt 3.7557126656990247 4.020023322113428 5.754720997802374
Pt 8.856478368721119 10.614211970570075 8.13890241954454
Pt 3.095122227922309 8.52443243206812 5.574315126082816
Pt 5.188610380272309 3.0593622941616694 7.771779651854887
Pt 8.777089158003887 8.617896105269699 9.772698369405907
Pt 4.87887340403975 6.790422672951037 6.207838222289129
Pt 2.6708096019817886 3.958475967561398 8.074683841474307
Pt 6.529625936993765 10.052738934436007 9.35184559566476
Pt 2.390725673561049 6.193697307104964 6.677012510125397
Pt 4.4488474288942905 9.931701420820994 7.514621915964235
Pt 5.721096808576217 6.389205040779849 8.66818361615273
Pt 8.832950454614458 6.542714570564829 11.32042172453848
Pt 6.706600695997139 2.8399115759273714 9.901786469292407
Pt 2.239679801179998 8.531354963188452 8.063716424294489
Pt 6.529630845389997 7.884068320942395 10.939706389629386
Pt 4.457345189097195 4.3379801011329375 9.967296889312985
Pt 2.9489363385105696 6.3189472595585405 9.241426153968716
Pt 4.314032854956468 8.544616070985871 9.741015062307008
Pt 6.622629301675715 5.263914825767588 10.96155712725532
Pt 4.297608509156009 6.525132870299584 11.52574813920399
