55
Energy = -279.78989528 eV
Pt 2.5405405713548213 5.329979896502267 8.615674795819785
Pt 5.2449688380715775 4.8811102561168775 7.92542934685842
Pt 9.538328283380334 3.128188747576106 5.133368281123
Pt 7.2113317630056635 4.066113852013492 6.100197322927727
Pt 3.2284800606845643 3.253542389838025 6.927088213051582
Pt 11.310280479326972 5.075368565695855 4.912239508754891
Pt 9.680321907068898 4.636571352010549 10.020597305806067
Pt 10.49617872628402 4.018671906251822 7.407765604735656
Pt 9.170954724640218 5.979962058282986 5.9681261246764175
Pt 3.1079201039228583 6.074376281849449 3.4356490078803974
Pt 10.945805311746524 8.080794757077083 6.3164002981603
Pt 7.859635474889993 8.206901846272652 4.984390900224155
Pt 8.13440310299501 7.428597177491263 2.2127175198774522
Pt 6.290488441743312 9.255243506253006 3.0721278996783217
Pt 3.8243232581229343 8.508213457935495 3.0009982924123833
Pt 2.436484172570241 8.141389574578838 5.132083805083638
Pt 6.995239879046627 10.931631089065224 5.12720763539487
Pt 8.003876346970129 5.442459452127886 8.371842376398297
Pt 2.814312063826131 3.56616582974788 4.321993502659535
Pt 6.521700043820342 3.7248767435522083 9.951845354089572
Pt 9.377672535200459 4.931105897205906 3.1167936707751958
Pt 4.521169887517325 5.616188991745958 10.514458608954389
Pt 7.493449575537402 9.203715432004502 10.227459040414296
Pt 4.349116508447358 10.140567616480118 4.8842096137776
Pt 9.368439853694744 10.174963400362058 6.211294455192998
Pt 7.432904704010412 10.830044214510423 8.039196536038883
Pt 4.729096438036735 5.128543634911826 5.268407963110045
Pt 7.323417132380587 2.9983105948832973 3.5376642576431045
Pt 5.275691079290532 8.100975803038233 11.232952705394313
Pt 7.497117731573128 1.5376248025510928 5.837731298311982
Pt 10.269140551973814 7.40713151706511 3.879298816968909
Pt 5.444603894471623 6.757904066355321 2.1089326962457555
Pt 5.038214838238303 9.960268649658204 9.266730151319273
Pt 9.715150813344302 9.858386759545356 8.932799634526875
Pt 1.5024517616518969 7.532362260326004 7.55887856156022
Pt 6.9976772940462375 5.806931192021986 4.005885028734292
Pt 6.044445035058793 7.390328774612575 8.863811923907129
Pt 10.792917406610295 6.4237631604645875 8.289619336007144
Pt 4.057201283213182 7.122223189451136 6.937389272024256
Pt 1.9901787408327536 5.517445944526087 5.9103026418865365
Pt 3.9083975528499026 3.2179924639327453 9.500698552333565
Pt 5.092519245387255 2.393343560657156 5.0424394020457
Pt 4.93276027045331 4.102332097929486 2.7748599681355746
Pt 6.573846884226602 6.588750446555016 6.413786603496453
Pt 3.267198132766824 7.855224645211919 9.513824610341839
Pt 5.073077488202308 11.489623161921786 7.052153200141501
Pt 5.661710618386241 2.1879872543535326 7.721245398529829
Pt 8.936276007655307 9.815974933268759 3.444590735333664
Pt 8.460695784174133 8.027668159658262 7.6813669793024815
Pt 8.312573539181335 2.726011384916725 8.20523329653212
Pt 3.1209535501020302 9.650005412325854 7.332016632887534
Pt 9.42785016369567 7.407542247489496 10.220935875602892
Pt 5.913096958376704 9.053424002699174 6.695645852912584
Pt 7.205818034441849 6.138954449426832 10.938330892895811
Pt 7.230698771844596 4.869324758039811 1.5944163114477568
