50
Energy = -254.05538908 eV
Pt 1.5475690365500665 5.09711544251608 5.568115592886862
Pt 2.639793135517448 7.537444288580955 5.293666983095046
Pt 4.7335966983570135 7.84227078197966 3.6484637669191122
Pt 3.8616624055471345 9.835152112481596 5.212484845928654
Pt 0.9035464701368818 4.089835150142119 7.894860292409259
Pt 2.796622262078837 3.0073673788851347 4.499637843231685
Pt 5.300818356001128 12.06800989922583 5.106084141872664
Pt 3.6503110427319765 5.43486608981649 3.9661815876028177
Pt 3.9685629888300555 4.867105391290888 6.634508050806108
Pt 5.090360561138787 10.757401075610467 7.419808750807171
Pt 6.216648995460796 10.12619560462926 3.6539502218415296
Pt 2.881285147481163 2.5556848986255356 7.094132267895843
Pt 2.189317310248997 6.432151735999816 7.806175282601745
Pt 5.0566700942200935 3.2913239617921475 3.089490533476025
Pt 3.745224800488497 8.526783067887497 7.557627088298369
Pt 7.123884060681586 8.04810493468585 2.417829195907924
Pt 5.401234613879119 6.968966198022977 6.1855050467595225
Pt 6.645431638246778 9.180962658202525 6.023754675233156
Pt 5.994668871251462 5.691105827312824 2.697812302889993
Pt 3.175741177043366 4.29602686052159 9.225561845049628
Pt 6.615686019660408 12.905550996231288 7.244617825563455
Pt 8.862082714174804 9.416070436063842 4.153572885458949
Pt 5.1368195132867704 2.4482812105467984 5.6858163974750875
Pt 7.938131979404385 11.393005022277361 5.5997728055905265
Pt 6.411827682772339 4.821888322390813 5.213557770874285
Pt 9.58651840357103 7.251586476316178 2.7184567368903596
Pt 7.408528592171154 2.692434316636367 4.1753727097185545
Pt 4.439854864426745 6.675325343118928 9.25184577172275
Pt 7.707199578899752 7.063186211093842 4.8343224628561
Pt 7.637641014833707 10.784500034866793 8.39342401809822
Pt 10.394995190785185 7.540533806051965 5.283715579654711
Pt 8.47877121704609 4.9756029435834765 3.26679410820543
Pt 5.257354014943167 2.7431135611716444 8.337476275375305
Pt 9.370534196904723 9.433270161496583 6.799370842171413
Pt 5.913332780639825 8.842913706526403 9.060307486695216
Pt 5.391597614103901 4.508878830315888 10.537899863725885
Pt 6.380330603669926 5.191266839144888 7.892867753515356
Pt 7.898237903112147 7.230851530449062 7.411912609185021
Pt 7.565162065756459 2.82587039764552 6.871625771260898
Pt 11.021652966780556 5.341863398332583 3.8829757818061412
Pt 9.534098750172708 3.708738186115168 5.351891511571415
Pt 6.859056411861152 6.780502669571721 10.36215297246146
Pt 7.5623322744301165 3.4128632410215616 9.399238257615565
Pt 8.585411289969384 8.638571812965733 9.495499018421441
Pt 10.483154201928565 7.390171961430324 7.97888783702012
Pt 9.259372217352697 5.965157821904773 9.82926962933518
Pt 11.322053983794783 5.353959880365898 6.426626714639529
Pt 9.594539090551107 4.039094125969233 7.957042726979006
Pt 7.8274546298226415 4.686786396809952 11.608405600740758
Pt 11.635668226331823 5.286636660424572 8.981979618908149
