51
Energy = -259.39475239 eV
Pt 8.539164251554308 6.705123740016393 10.632886903136438
Pt 6.022059624125811 2.286249620677561 10.413065923714445
Pt 7.240853360606706 4.541135116925701 10.43425666254789
Pt 4.47030843439076 4.57874730150604 10.201479433388048
Pt 7.517578977988078 8.892203677754617 9.742904286600057
Pt 3.902392278020163 2.253628780441731 8.740808830276245
Pt 9.26738700604755 4.962078135814113 8.60316868551199
Pt 5.846620140012379 6.8852424629537 10.385339882404995
Pt 7.796173333960716 2.7844566930534804 8.425546185139897
Pt 9.493603566902141 7.629182018551598 8.40261201077597
Pt 6.645678664936083 11.117201385795507 8.768227788115805
Pt 3.436413601013378 6.911555804957471 9.34529507519023
Pt 4.845247249655022 9.19188750125197 9.389744352541648
Pt 5.5883909570132655 4.050975174047044 7.934034472353127
Pt 5.97114925801143 0.8686451520130734 8.155309456178292
Pt 2.9311340042170326 4.531042825610956 7.959394211026394
Pt 7.049646833647327 6.1830678723673005 8.015654314073426
Pt 10.278685527052575 6.063697058272507 6.344632584717373
Pt 6.278718601303492 8.55386207221516 7.24911226878152
Pt 8.868532242848273 3.789770450454312 6.2327738141088265
Pt 4.947661805728043 0.31176016078589036 5.903727039041304
Pt 4.580282534535364 6.528382929384034 7.073290439751716
Pt 8.662268868347455 10.043233389509137 7.508519946108995
Pt 6.6759282158177875 2.2360617713038367 5.977459977591906
Pt 3.0483933240009966 8.882237607856236 7.482023202264449
Pt 3.892193368102933 2.6155073872964705 6.022243077391748
Pt 9.812159957319574 4.901300851787066 3.999747041129285
Pt 10.577691867678062 8.759740434641204 6.327128685293324
Pt 8.003983173553083 7.247373033989918 5.815516561646603
Pt 4.320211088544599 11.165279712065889 7.615002030356609
Pt 1.9346231707998067 6.653818271796255 6.8295762806564735
Pt 2.1980835969042083 4.427732879323176 5.450052389735527
Pt 5.582820431899164 7.6304975322076185 4.869590091348168
Pt 6.50889031869357 10.897708969415142 6.091593355283382
Pt 7.486902074176663 6.032541564107967 3.5425191454368976
Pt 6.200480072344451 4.982195375322826 5.554558476095539
Pt 1.9092353994351443 8.668070488896964 5.111125062001589
Pt 7.613721174749962 3.316543679219531 3.9050871081589653
Pt 8.553220305665196 9.694004330331696 4.809414098450889
Pt 9.835862427076085 6.524373079847695 1.7759694127302623
Pt 10.183368245256792 7.592215188341153 4.091084314572429
Pt 3.0648985283197434 6.537200336171011 4.2348537354834255
Pt 4.112299938305464 10.051989432917683 5.291681988671868
Pt 5.02165649963188 6.517038307217036 2.4418436131299774
Pt 3.795419618244012 8.771049671521832 3.04182791509079
Pt 8.048593125093198 8.358763053959299 2.5271566655827082
Pt 4.307587886493059 4.23319505818223 3.900343662789112
Pt 6.224029870962872 9.819012403219727 3.636200936050715
Pt 7.211522329362183 6.386225793848206 0.9123582013256523
Pt 6.000633592803737 4.128683712754594 1.962402857395555
Pt 8.625997499503871 4.176899455903658 1.6648580621898674
