50
Energy = -255.74579621 eV
Pt 8.008687127269354 2.9145528188517806 7.916096317647492
Pt 6.001266128244029 1.9106016563294483 6.652519651790265
Pt 7.537481187096384 4.3541288859744816 10.040437272983986
Pt 8.070341264771837 2.949924874625803 5.263151496804128
Pt 3.87794218908587 3.431639054773666 6.3924659027613
Pt 5.3363012662844005 3.3104067874353236 8.868707872541115
Pt 9.73752809626012 5.858496576614853 10.967236320724874
Pt 10.012583809572124 3.8535693738078765 9.275136795571937
Pt 5.570505847845292 3.052869754983998 4.320447436107399
Pt 9.983415091737005 4.2728757686245045 6.636205434347572
Pt 5.17036150113624 5.403685379771643 10.43477992217991
Pt 7.161798658106678 5.962235326925629 12.083609925580335
Pt 6.191760762090104 4.729287189449264 6.909642168003004
Pt 9.517565435556502 4.828772925696824 4.079826589988042
Pt 7.721777038287038 3.374946752057011 2.6707573291401614
Pt 5.510121625852567 4.640414326323662 2.199567186603362
Pt 3.3826222723362664 4.494105715825154 3.9771134055279753
Pt 4.034877690561628 6.23116239732671 6.5371914016002135
Pt 1.7917748374999583 5.033632645915581 6.069059089287675
Pt 6.960777916824493 5.486806560984054 4.570958883148832
Pt 8.013395767712975 6.816546679109844 9.289346290452647
Pt 3.246722144735535 4.945578477207715 8.687795140399084
Pt 10.525341236627828 6.265564129830963 8.310690701247516
Pt 8.563591969091704 8.160777588567287 11.77101192770038
Pt 10.55596710786061 8.297445187354846 10.051879051318142
Pt 1.6687042915562829 6.983080836656544 7.984284617917548
Pt 8.290269540548865 6.261154955312586 6.667833801262477
Pt 10.04943634815405 8.740908644589787 7.506248554785883
Pt 10.584687708366575 6.820913983952779 5.643127128345795
Pt 4.756696485407214 6.706993100086523 4.1741522127554225
Pt 6.126569338006274 7.9730543929833715 10.700129397523307
Pt 9.949852982039223 7.288086464799491 3.1406271752857258
Pt 7.848509698788498 6.017575531770088 2.1908288795386097
Pt 3.2194900127053545 5.858068820034332 1.7512546492158854
Pt 3.9508240570862467 7.5393129690192495 9.353638945630927
Pt 6.057314696133938 7.240407958591004 7.696901665822927
Pt 8.215672919574489 9.38792065359467 9.361716579523668
Pt 1.971942711089433 7.568077186340987 5.410686708003055
Pt 6.7386831757233745 7.993632511288977 5.308153228484505
Pt 5.638415851719906 9.593505889986165 8.617673448572338
Pt 9.303261635749402 9.03275318747747 5.002618559029082
Pt 2.948641357416255 8.090877429935196 3.031382457368358
Pt 7.608565597635193 8.537048996676043 2.876506338489487
Pt 3.4191473209451515 8.916751773037252 7.205668471342188
Pt 7.747392416360419 10.064699395193244 6.920446508853824
Pt 5.495259820099543 7.326722351527316 1.7382117080931356
Pt 2.9602604605378207 9.951497640123009 4.830846465358102
Pt 5.301685265326778 10.227455177431635 6.011010646640817
Pt 5.220922871186597 9.466292592698212 3.4334073789414172
Pt 7.36196416154967 10.75185941867977 4.38568965591425
