55
Energy = -277.81128912 eV
Pt 10.142400109090904 10.142400109090904 10.142400109090904
Pt 12.05636857467433 12.05636857467433 10.142400109090904
Pt 10.142400109090904 12.05636857467433 12.05636857467433
Pt 12.05636857467433 10.142400109090904 12.05636857467433
Pt 10.142400109090904 12.05636857467433 8.228429643507397
Pt 12.05636857467433 10.142400109090904 8.228429643507397
Pt 10.142400109090904 8.228429643507397 12.05636857467433
Pt 12.05636857467433 8.228429643507397 10.142400109090904
Pt 10.142400109090904 8.228429643507397 8.228429643507397
Pt 8.228429643507397 10.142400109090904 12.05636857467433
Pt 8.228429643507397 12.05636857467433 10.142400109090904
Pt 8.228429643507397 10.142400109090904 8.228429643507397
Pt 8.228429643507397 8.228429643507397 10.142400109090904
Pt 14.20234098308665 10.142400109090904 10.142400109090904
Pt 10.142400109090904 14.20234098308665 10.142400109090904
Pt 10.142400109090904 10.142400109090904 14.20234098308665
Pt 10.142400109090904 10.142400109090904 6.082461235095093
Pt 10.142400109090904 6.082461235095093 10.142400109090904
Pt 6.082461235095093 10.142400109090904 10.142400109090904
Pt 14.040692458176084 12.039370459219363 12.039370459219363
Pt 14.040692458176084 12.039370459219363 8.245429758962437
Pt 14.040692458176084 8.245429758962437 12.039370459219363
Pt 14.040692458176084 8.245429758962437 8.245429758962437
Pt 12.039370459219363 14.040692458176084 12.039370459219363
Pt 12.039370459219363 14.040692458176084 8.245429758962437
Pt 12.039370459219363 12.039370459219363 14.040692458176084
Pt 12.039370459219363 12.039370459219363 6.24410776000587
Pt 12.039370459219363 8.245429758962437 14.040692458176084
Pt 12.039370459219363 6.2441077600058685 12.039370459219363
Pt 12.039370459219363 6.24410776000587 8.245429758962437
Pt 12.039370459219363 8.245429758962437 6.2441077600058685
Pt 8.245429758962437 14.040692458176084 12.039370459219363
Pt 8.245429758962437 14.040692458176084 8.245429758962437
Pt 8.245429758962437 12.039370459219363 14.040692458176084
Pt 6.24410776000587 12.039370459219363 12.039370459219363
Pt 6.2441077600058685 12.039370459219363 8.245429758962437
Pt 8.245429758962437 12.039370459219363 6.2441077600058685
Pt 8.245429758962437 8.245429758962437 14.040692458176084
Pt 6.24410776000587 8.245429758962437 12.039370459219363
Pt 8.245429758962437 6.2441077600058685 12.039370459219363
Pt 6.2441077600058685 8.245429758962437 8.245429758962437
Pt 8.245429758962437 6.2441077600058685 8.245429758962437
Pt 8.245429758962437 8.245429758962437 6.2441077600058685
Pt 13.908284676206648 13.908284676206648 10.142400109090904
Pt 13.908284676206648 10.142400109090904 13.908284676206648
Pt 13.908284676206648 10.142400109090904 6.376515541975012
Pt 13.908284676206648 6.376515541975012 10.142400109090904
Pt 10.142400109090904 13.908284676206648 13.908284676206648
Pt 10.142400109090904 13.908284676206648 6.376515541975012
Pt 10.142400109090904 6.376515541975012 13.908284676206648
Pt 10.142400109090904 6.376515541975012 6.376515541975012
Pt 6.376515541975012 13.908284676206648 10.142400109090904
Pt 6.376515541975012 10.142400109090904 13.908284676206648
Pt 6.376515541975012 10.142400109090904 6.376515541975012
Pt 6.376515541975012 6.376515541975012 10.142400109090904
