53
Energy = -271.31906729 eV
Pt 8.171111533666018 9.38444296938761 10.52318138141107
Pt 4.332062801555914 5.749619006319668 11.201092221245903
Pt 3.7944327105917397 8.016620149776822 9.997622409694639
Pt 10.060092702412657 7.801162538975119 9.603568540725426
Pt 5.656903287414907 9.965745119861387 9.840625299198484
Pt 8.656038104104208 7.050712490698276 11.679427640020958
Pt 6.154469190233676 7.715096741285571 11.127811862131589
Pt 3.36943027983013 10.195487487993173 8.545362716249292
Pt 7.715746396020005 11.526215469502818 9.09361435144387
Pt 10.121725343422291 10.273378571905397 8.44175281708908
Pt 6.90373896272618 5.122946548631043 10.885626510157913
Pt 9.29681368570393 5.185514795081313 9.882364281901816
Pt 2.6788167709562196 5.552744047937803 9.076574444782393
Pt 2.6146772825237132 7.857040450895316 7.622895609476947
Pt 11.260044892381417 8.092724574092792 7.295004246663511
Pt 5.061527218254195 3.67661415790938 9.667455433037585
Pt 5.699623394228597 11.052723179492942 7.3698864811370735
Pt 11.572718592131924 5.8347051807608015 8.718476256463623
Pt 7.984155398617915 9.156398337545983 7.68643157969576
Pt 9.164154076255963 6.205279319348557 7.098128898853225
Pt 5.097531660528247 6.018161291199112 8.516226741613085
Pt 5.54836217117928 8.379097787955114 7.553122844973333
Pt 8.200364278343656 11.36741072859531 6.461711266240538
Pt 7.452998465452693 6.925270774626882 8.872309811107346
Pt 3.843503585223121 9.752316177084554 6.008878867867567
Pt 10.641857877886558 10.161469662915078 5.841259728829918
Pt 7.619205818641331 3.4782273143108107 8.795363524784479
Pt 10.022758402908485 3.8486147973967393 7.652495657328413
Pt 8.67850509075283 10.500704309635251 4.027159368901473
Pt 5.709095665916953 4.346738128080802 6.707975014142524
Pt 8.951044686295718 8.1951946001283 5.546237800622452
Pt 11.556682845404364 5.693126002941292 6.098793243350624
Pt 5.73290986223743 1.9645969440043745 7.695096799387833
Pt 10.949485560795342 9.192322605559315 3.458668698548123
Pt 4.501231756957141 6.4703241893685295 5.872106162486699
Pt 6.179268896052292 10.543959032914007 4.770317845664629
Pt 6.454680901500624 7.956955365531682 5.0655452295468875
Pt 2.358293576113706 7.774297105907198 4.969850664313966
Pt 4.43269497907082 8.834231698955504 3.6082429674811696
Pt 8.020830825916821 2.8303274483028202 6.2775086587846305
Pt 7.458090577933807 5.518061649015729 5.2922018993622535
Pt 3.3993853808207817 3.380169737297039 7.540099783422898
Pt 10.465331090255985 6.676732174259967 3.961002391703534
Pt 2.1583530646720486 5.494959413391748 6.494166218746446
Pt 9.829110411577632 4.222938158224734 4.85014847269138
Pt 5.725873705225168 2.3719109991012584 4.944187276782719
Pt 8.53397471037697 8.15757483954072 2.848048056680166
Pt 6.212904737358976 7.075881006638782 2.6372336210712595
Pt 3.8423967349205412 6.1992971223326885 3.409192502334347
Pt 3.6448516399922717 3.989054803238947 4.885508722462801
Pt 5.881810995860715 4.5218133213615435 3.3571530310122633
Pt 7.943060936647337 2.931689449501773 3.6161128992516978
Pt 8.367018669656051 5.494166801950802 2.8014063624052263
