55
Energy = -279.66452183 eV
Pt 10.68178959052999 7.453070898881705 5.32323607610569
Pt 7.362359908342051 10.415254911822194 4.037087576599634
Pt 9.400631034947518 5.62817377876467 3.8373806324874855
Pt 4.62868378519819 9.73076412426945 4.556453779842184
Pt 3.105589166867598 7.995374492850877 5.96753746693101
Pt 7.002136067003238 12.955907733582913 7.704898473322966
Pt 6.22272735412312 4.112207611116273 10.495248451598627
Pt 8.757789653630777 8.179810623479677 3.575922736370711
Pt 10.950883364131156 4.787857826848682 5.729675027682351
Pt 7.5666265612552195 6.279584338886248 2.070053330558218
Pt 4.453658435596855 9.927295171604873 7.232409240926642
Pt 2.5486310363299087 5.647251155965275 4.7870581406577655
Pt 9.05321308466888 11.154196952191482 8.038661021406822
Pt 3.2464718226583438 5.18424557862804 2.2886162521523428
Pt 5.032127960769621 6.785737921465605 1.117365514894951
Pt 7.145167282131294 10.050969810232406 6.749222276735037
Pt 10.106908812827086 3.1237731978387395 8.275261793669152
Pt 12.504815177350778 4.0828037774386035 7.703003414954491
Pt 8.603689492645016 7.81659372614963 6.831340271832172
Pt 8.719805677823711 3.224599523537041 6.01576065538285
Pt 11.754639942190162 6.702416775034415 7.715030636717298
Pt 8.154910977265539 9.023939564246637 9.619740143527693
Pt 2.0477335238892405 5.973157502920163 7.348051648655153
Pt 11.379615251312263 4.919011110792684 9.86960253864066
Pt 6.178337295072237 8.596647316239801 2.6130258490804725
Pt 4.629721191804095 6.343598658892457 10.96251882788202
Pt 3.5452584156883535 7.87480638733024 8.674145838086714
Pt 5.673367757971759 11.870683255119365 5.688040452891775
Pt 6.897497626578989 5.349363412083568 8.212294018675776
Pt 4.9767831495966295 6.138452973790635 6.267272614880792
Pt 8.432378782026142 12.26632717463082 5.596364689908253
Pt 4.343678098676967 5.301137612074889 8.620604155693945
Pt 2.128243908430277 5.910739729277489 10.049094534029692
Pt 3.663448487897099 7.613274252948733 3.334668361125842
Pt 5.578092103720304 8.723493053042024 10.361984147489443
Pt 9.675468895915696 9.900199353939724 5.497696331741302
Pt 7.244300113658538 6.682444815481446 10.661299733387532
Pt 4.833617334873355 2.747684381782814 8.470270406482982
Pt 7.4878414181684345 2.8120215800354638 8.400003595527314
Pt 4.574784699643707 3.6370784306114663 4.009160852299462
Pt 5.672107263926134 5.981490466659192 3.78778113567954
Pt 5.726652876865831 4.264475893133615 1.6643046964780683
Pt 6.067655557642696 2.9829532696487226 6.0998660962342495
Pt 6.494611267578111 8.016970812787669 5.255114353032985
Pt 10.43139483879627 8.949037673014015 8.215054898889077
Pt 2.1646148187612706 3.5785816622153352 8.612584456818915
Pt 9.77368686086309 6.98473836533474 9.853269158770145
Pt 3.6512137304694874 3.7750481497894692 10.80530058464346
Pt 7.5968731082687455 5.610834270500269 5.681287200764505
Pt 3.5411436799553506 3.79363718681118 6.3668993356807535
Pt 8.768812198737125 4.51696471876986 10.248202119888456
Pt 7.330474330576269 3.7644877780462154 3.781008205334499
Pt 9.416231764624705 5.556759332589285 7.669895557568469
Pt 6.175031929083616 7.826547455366345 7.974198175336147
Pt 6.278913560447554 10.85836449931126 9.061014543852734
