54
Energy = -275.90068566 eV
Pt 11.788278559564436 6.825860660094789 7.366292384767583
Pt 10.238658580330881 8.956527152171006 7.3139961934638995
Pt 9.13874766367433 10.767271252296606 8.67119720626866
Pt 11.403391416061009 8.120314615151056 5.091991867937597
Pt 10.007868364366432 6.942700451308009 9.293762043357722
Pt 8.237015103679697 6.610833121021251 11.174778226043964
Pt 8.13882849815571 8.906138053933462 9.995164052650114
Pt 10.61489420783548 5.6566726007684425 5.202289951743363
Pt 10.324495524070919 4.675596925652783 7.718265413450852
Pt 9.304559119883985 9.553156426001102 4.890857996930465
Pt 8.765439690200003 6.688546455433737 6.929459727675498
Pt 8.202376561223126 4.863700388866561 9.326806817832576
Pt 7.368949041292391 9.021612883320758 6.711710452773509
Pt 7.024903563986606 11.466522409276726 7.530799217124465
Pt 6.045513777774625 8.037699990849976 11.263643921924183
Pt 9.73024181748139 3.2458909108336407 5.5046729550900615
Pt 7.28405523353851 11.039845152527837 4.904095882345373
Pt 9.44144571166633 7.2605793021236265 3.4591333846292187
Pt 6.711079770483665 7.1866724078223845 8.51762858976614
Pt 8.455241443401498 2.8563406227820516 7.767426069489033
Pt 5.710584332512519 9.77885885681753 9.333108634475606
Pt 5.74522475869751 5.497678362482793 10.445288353283846
Pt 8.674747114361065 4.7451838804291775 3.5775829175340554
Pt 7.326152749204625 4.676106964781745 6.09221334851681
Pt 7.3208067298235795 9.030930797280568 3.1679131389369726
Pt 8.623840841991134 0.8576218988742081 5.9537615086667355
Pt 5.132435318810482 12.155505856925844 5.785215178585977
Pt 7.586049325895843 2.4002818606049168 4.131467612302258
Pt 4.509901512658754 11.82385225966575 8.314721063715242
Pt 7.1431548365004 7.081140692350058 4.88414449194551
Pt 3.7086852993204067 10.036347127342571 6.546297578817793
Pt 3.0484896097919205 9.803558487000684 9.10310150916691
Pt 4.102909405916628 7.523022807731774 9.6628830815516
Pt 5.472925692510239 2.721886440580454 5.590870171314795
Pt 5.052290875716691 7.617547217209122 6.473368121926305
Pt 6.493429224917063 1.1823823139723344 7.2843929320492204
Pt 7.269730014072908 6.536026898250545 2.197436105977514
Pt 5.266101748038073 5.210518625411266 7.550359361038376
Pt 4.9827173218691385 9.965893573864255 4.28705795890513
Pt 6.214695704267732 3.2171960523584673 9.097224069419152
Pt 5.232556610755918 5.273545281324554 4.656228747640519
Pt 2.8601491865674067 5.533489098688512 8.606654692674338
Pt 3.803932888105598 3.60157774150365 9.941598881093746
Pt 2.578231932391051 7.827902682921052 7.42952436046992
Pt 4.315392105970856 1.3820378720341566 8.551463756108241
Pt 6.283253471874791 4.0453002539160305 2.6445043308365483
Pt 3.162832601577323 8.104883680023324 4.775344604342777
Pt 4.966517223624557 7.801086388691514 2.896277839976244
Pt 2.6350555256569983 5.644479667214124 5.953417113915699
Pt 4.902136200140651 5.83242191823234 1.2300174720235364
Pt 3.1944244036199905 3.462983151211987 4.554551381655013
Pt 3.3963238087028014 3.3235754133477204 7.156646568878268
Pt 3.1020672892100607 5.871472179459451 3.3288247198550973
Pt 3.7909644662199242 3.6130648244567607 2.0558235842643824
