51
Energy = -261.78457095 eV
Pt 3.5898018551551067 4.93288886271794 2.0454774641816376
Pt 5.037875156703301 7.036256121167013 0.9681757842624218
Pt 6.2156346251638075 4.809879800644195 1.8284027875861835
Pt 3.4342208362420794 7.325744853492699 2.9813687261392166
Pt 2.816372435971335 5.001902548041203 4.647909552340011
Pt 4.881630783535734 3.51421773321824 3.763840713416351
Pt 5.5315347411624005 9.127906780219208 2.566983918328081
Pt 5.622896173955865 6.294567863869077 4.085508421084108
Pt 2.1045081966230423 7.546591637910907 5.199668679590695
Pt 7.303209095211645 7.2382572843061155 2.3029022712137848
Pt 3.8223311210155178 9.432543913918817 4.488897001322449
Pt 7.573348090018082 3.2059872457162846 3.4790501376746756
Pt 4.120431332798459 3.2030494900434348 6.30665117209598
Pt 6.145725778760451 1.854217600515575 5.239279211001859
Pt 5.920796973862979 4.839828826743642 7.186723855252512
Pt 8.805287617384984 5.103858537724859 2.1635515904163736
Pt 2.184191616987771 9.903044501703805 6.4422270439954845
Pt 2.4439922578079805 4.959189029642307 7.311980149190368
Pt 6.025981801448125 8.30737046742356 5.621012957276323
Pt 5.935490606881621 11.027348034125358 4.329264661498256
Pt 7.591135392335073 5.162110245827285 5.250714666783791
Pt 7.873836344942885 9.227842327757307 3.987686333824639
Pt 1.5169902872304912 7.5076720631155895 7.722040316522781
Pt 9.342772877111745 7.022684487124368 3.9055035644387868
Pt 4.208783081080338 6.53466126618385 6.260552638818546
Pt 9.95191393281672 4.371517521105011 4.354313027490939
Pt 4.792186586632352 10.686223081881469 6.682561491929629
Pt 8.135000905199734 7.143098527710207 6.781851581415865
Pt 3.5633281407673305 9.073958673042243 8.384250324842244
Pt 7.45204251712823 10.337174248172682 6.5022059099709075
Pt 9.737545182026865 8.88058816368025 5.830467765151851
Pt 3.380929953780963 6.468278452746425 9.210573524442289
Pt 8.451911329560126 2.690071860760056 6.005569789112711
Pt 4.389519458663418 3.9447927627415322 9.041513757883706
Pt 5.849598070256054 7.319900222108512 8.11609018629091
Pt 10.630459782107428 6.292461372571181 6.103211004409318
Pt 6.4183854151979025 2.4379701805405456 7.835310104737114
Pt 6.151052646427145 9.837827488155348 8.820874096055112
Pt 10.759707471549566 3.650389265603124 6.671886848208713
Pt 8.687390959205473 9.11227715611609 8.508244852399004
Pt 10.966266382077809 7.938039218064822 8.114734533823542
Pt 4.615062719796276 8.390165984235873 10.610296717230689
Pt 5.467422147018713 5.868084218611143 10.585768750009336
Pt 7.7924012389910065 5.627751203660193 8.779128215481611
Pt 8.891072312615501 3.2213487317466716 8.51422737468405
Pt 7.183307255388038 8.04722686685826 10.454844885935124
Pt 6.851760732724924 3.6459841028605817 10.230141428529125
Pt 10.540496280537361 5.355464648880253 8.571010207085642
Pt 9.582501321147294 7.08798106592641 10.251061894107684
Pt 7.763510704299816 5.872983759922 11.82745584773127
Pt 9.513724180434957 4.304490368437074 10.810087048060486
