55
Energy = -282.09417079 eV
Pt 7.155888513074971 7.85534370295801 8.380530834911273
Pt 5.970757050699923 8.68046610344463 6.168921290537059
Pt 4.453952612277009 6.254825678248468 10.567873881170206
Pt 4.1259958519192335 3.9285393381789664 9.200126828183915
Pt 6.567624000830747 4.759630983214822 10.409782090591237
Pt 3.272792411004356 9.006418525033437 5.665341780980253
Pt 9.136305112511582 8.655741682201443 9.801950772788432
Pt 6.771017961292042 11.2663935755436 6.849284203990383
Pt 8.68200790068568 3.2848903540112913 9.969802196492571
Pt 10.889552947871774 5.510011685927718 6.288510668126278
Pt 4.6876691200571505 6.355634409960917 5.76136916556313
Pt 4.518085146509192 10.31425020646365 7.814315722156762
Pt 2.0887385764995683 4.681957781172709 4.448683785287783
Pt 6.830571514733008 10.194329041691253 9.294484365305818
Pt 5.996184689913614 5.149856681110497 7.898768355594607
Pt 5.487178187491604 6.575414709706428 2.693500058801084
Pt 9.396778195756864 4.085586083313155 4.7581997277888775
Pt 8.93185381290331 5.969100301239039 10.04270318183163
Pt 4.649352756418096 7.303224984578445 8.129124841038207
Pt 4.693705266530333 11.151569321851444 5.2116345944176174
Pt 11.109606185428198 10.662734574730207 6.168894228030544
Pt 8.582727792964414 8.487673130124026 6.363836560714574
Pt 11.40390653003934 9.407486496657986 8.422935308972114
Pt 10.872255910498913 6.944940711022548 8.57028716736129
Pt 3.0746920306100094 7.128120630300039 3.8167576631138416
Pt 2.0690527740953892 6.670583297131243 6.258449376784177
Pt 3.0924301253206554 2.7207280758883705 2.8945243601348007
Pt 2.447390659371475 2.034058068728866 5.364257203312777
Pt 6.517970697496683 2.6794862031674285 8.658289380007778
Pt 5.444659479747044 3.9488674866252937 2.66266080052443
Pt 3.275470266659809 5.218471480382157 2.0322580000849473
Pt 6.946788849654982 1.6281885138676142 6.254277763279037
Pt 11.126719041544996 8.063164614132043 6.07673222616557
Pt 4.454509137300079 2.1753330102775323 7.153923173853947
Pt 9.570980102526912 9.44809008959877 4.191928928150112
Pt 6.932744403420756 4.154229349425696 5.715604148078127
Pt 8.464221291126103 5.877266356474539 7.267229587719366
Pt 8.915195986756066 3.143365369526257 7.286791425314236
Pt 7.131428248123814 6.632602220178554 4.943601521517572
Pt 5.008618614370925 1.529478426858519 4.440952763935241
Pt 8.938506595430303 11.79800270280971 5.419151168506683
Pt 7.610154105219539 8.157420161664259 2.938863822675687
Pt 5.009334599454225 8.979259236316011 3.617066853556496
Pt 2.4367963560456083 8.63139066435793 8.163829754801897
Pt 7.844724150922385 5.229556060678444 2.846490923395943
Pt 7.416731123834912 2.6425797849014705 3.6902807646226314
Pt 6.820889693719248 7.424563058513263 10.863602971671224
Pt 9.738873106854246 6.75356030615399 4.172653281447309
Pt 10.666346376269285 4.407740507490899 8.709542040882763
Pt 2.471434323103913 5.987145848091023 8.808787987960478
Pt 4.505243977112694 3.943013666674826 5.076934149195545
Pt 4.594522382792328 8.943137847566836 10.123271507062604
Pt 2.559092675159529 4.087770565484726 7.018104009078657
Pt 7.082070888571948 10.406614788514707 4.28147020132094
Pt 9.0716417666311 10.583933422993836 7.884592508367092
