55
Energy = -281.98011258 eV
Pt 10.950165126703883 5.13043689786657 8.132864178277623
Pt 10.441822619132015 5.58588461457858 5.50366509274342
Pt 10.932632126210338 7.614427525582832 7.307353216076261
Pt 10.021682922973804 9.88098709289018 6.189700055264735
Pt 9.95734058219729 6.991282407265523 9.778807793873543
Pt 9.95250427043818 8.08072505352642 4.239615115788586
Pt 9.077110677252193 3.1272303603297864 5.58923433845072
Pt 9.392887778743596 5.839243733452388 3.054660638647334
Pt 9.20040529258947 4.323921074054922 9.929123562495517
Pt 9.230534368269737 9.38722700371485 8.621759363784964
Pt 8.195498623455626 3.4834367008726725 3.1647941948241356
Pt 8.418644091571977 4.998564273227303 7.386902525174599
Pt 8.265198743323067 8.669127470048311 11.014822613434538
Pt 8.542004727212955 7.49385421013054 6.252387804160004
Pt 7.591800727430074 5.4951578381274775 4.92292273861518
Pt 8.113568978983414 10.04479196584628 4.3145752509477875
Pt 6.551428157407225 2.5325602020412172 5.032780096393248
Pt 7.906585936700524 8.004178102417194 2.547010925596126
Pt 7.832162998135645 6.127122390100068 11.366608267598618
Pt 7.266095836550313 2.5106012880662503 7.59564393491168
Pt 7.593154966624241 10.7243499411458 6.946992490907337
Pt 7.647474656294788 7.227909979745265 8.643296039118605
Pt 9.89475542936332 2.654126463121471 8.028060552070352
Pt 6.9868423628021885 5.522352771708894 1.9200174346669603
Pt 7.115381499106538 3.59118548051343 11.430699825836939
Pt 6.567918850632024 4.948523925540217 9.177036181201046
Pt 6.664184778205413 9.780066734181418 9.25679108890541
Pt 5.704687234462033 5.059539505922334 6.802297098840811
Pt 5.698798637838239 3.1788397812517375 2.4101997291440136
Pt 5.7093475723535825 7.632188659667528 10.678375953126972
Pt 6.381729783752462 8.695015830999088 5.798334818793573
Pt 5.792900105103498 7.039347615492036 3.938216388129884
Pt 4.713239870454425 2.4156586171857106 6.996891567657921
Pt 4.768220986645137 5.068235168454172 10.90806662305463
Pt 5.39807006378503 2.7108500923176533 9.534616808886343
Pt 5.880777764669667 11.392389705347286 5.0126275591404355
Pt 5.247601161663867 7.533261651773749 7.804686853032407
Pt 5.791209106331345 9.687877420126899 3.008549537140324
Pt 4.894459245108129 4.6431662906454765 4.330706238806545
Pt 5.655030247610526 7.8336495284894445 1.1572816191457704
Pt 3.5738492520547376 4.420999795573906 8.497149190811136
Pt 4.937232968370152 10.569270603170942 7.3753441731625236
Pt 4.315910794080686 5.700821156800622 1.7915051423299648
Pt 4.078055046572485 9.419076850626697 9.564234759717232
Pt 3.9580015937641804 6.655258296219962 5.752910657496878
Pt 3.9499636205527655 2.243754684729361 4.484306581380929
Pt 3.387139072885081 6.8665889504217406 9.541244971221975
Pt 2.7277361678211185 4.035057399899522 6.02563738522845
Pt 3.8845283955061283 9.703101455269996 5.014062710636203
Pt 3.596841619941333 8.06982532152564 2.8708769133464074
Pt 2.3824545481281683 5.691504542659408 3.756976782224969
Pt 2.86310567952996 8.766613542768608 7.34401364580244
Pt 1.986009624574568 6.200032169851576 7.340639595430346
Pt 1.9008705056846367 7.964664174460702 4.982721974807996
Pt 3.0039191477985994 3.5256126336040876 2.4208763470900307
