54
Energy = -276.6535141 eV
Pt 10.094126894564637 7.5879413024630615 7.544704458125556
Pt 6.514519606063869 11.201125497056871 7.222352570335563
Pt 2.6717019531450155 8.821759019590258 4.85407784646026
Pt 9.259679653537239 8.545986459872271 2.9796446715951825
Pt 4.954268984104808 0.7116599630460895 7.9972080370251994
Pt 2.164013618417388 7.0255722499771736 9.318246525995379
Pt 7.479713903448504 6.973648151950994 7.540889395467588
Pt 3.0046686220134298 2.3428167695784303 4.353556296824131
Pt 4.434270362220696 8.245165033912778 9.641380440696791
Pt 5.860260271213566 7.2870036447662025 4.609355942951795
Pt 5.6027924842512205 4.706342137981757 5.070375308165099
Pt 4.369209332277555 3.0149071142504473 9.357915156604063
Pt 6.005995869445729 3.2286194590171453 7.16252109653563
Pt 11.08392257432736 6.991463036518246 5.22745687824385
Pt 6.758592207899536 6.938223708855706 10.191679920710097
Pt 7.9085567957068355 4.790126051803561 6.197204766768333
Pt 3.641034605984773 6.594677402682048 5.77169399447028
Pt 5.9453490978866705 5.393888347486666 2.4547338313354374
Pt 6.7253589718596665 9.335374350793137 8.98141806380567
Pt 4.9193297540056555 9.67444743228986 3.749690633297535
Pt 7.353611214292811 9.111114728560882 5.920508094227326
Pt 10.00029973903312 9.369877865211253 5.424898668467031
Pt 6.9157202424643 1.758066199056958 9.352808281155653
Pt 9.048853887173841 10.117847698939102 7.8453836066983325
Pt 7.48863417991476 1.1085918192885398 6.795444389539042
Pt 7.4755993709713335 1.3026235476275592 4.151320400376424
Pt 9.213193626899368 2.694854613030991 5.486315054751087
Pt 6.7424864940352975 4.367340936168181 9.633241745458657
Pt 5.180555547153564 5.623280551918831 7.580672675807655
Pt 4.158022084696409 10.56753631488235 6.1620833739521155
Pt 9.044181650111573 5.692204472440517 9.248628388735648
Pt 8.493116804137236 6.085455245918822 2.4286337967546743
Pt 8.422029162367773 6.97097666134132 4.94331946604014
Pt 5.3977390281714746 2.8419595923495002 3.2582739044523326
Pt 9.027562801068681 8.293964710485483 9.79714068730863
Pt 10.381324847712255 4.921795223089754 6.927607669806758
Pt 5.155460872880968 8.247575339860315 7.119897049266924
Pt 5.173618774698494 1.3693996263758152 5.425832770934592
Pt 2.005169575471309 4.371273574428237 5.613355255698266
Pt 3.291365397956929 2.5075709694889596 6.962208713362189
Pt 6.628010964786974 8.066877372413781 2.2840732379149458
Pt 2.6971628175845748 8.930418863749352 7.583554832799882
Pt 1.3309251064150034 6.634154616844296 6.823200469790546
Pt 1.6574880354384842 6.523138033261339 4.0255019607011
Pt 5.946654364765258 11.97396163831685 4.787868526987421
Pt 3.9806186154441274 7.30963003543616 2.7882818508949834
Pt 8.755722931872029 3.252643662415844 8.189316297390459
Pt 8.614954385614963 11.594144039655935 5.618654562363466
Pt 4.418685086718064 5.621478262293225 10.079620734706403
Pt 10.014477815001628 4.861915112564246 4.210462583393855
Pt 3.4961283515584425 4.722653950580478 3.3160033266346054
Pt 7.875151311897026 3.675857566942318 3.155245669421572
Pt 2.6870276835382647 4.732792244946864 8.203835380102634
Pt 7.486404680824565 10.27980151020744 3.598629738253538
