5
Energy = -16.97490429 eV
Pt 7.464975104484332 7.796316795801837 5.123892412260642
Pt 7.509741213347082 7.505896821984712 7.491461395809664
Pt 7.133732977852755 5.224170865781253 8.149781707216743
Pt 5.26484416727892 6.741252090995342 4.933159815951729
Pt 5.109914879018963 5.215571767419141 6.784913010743277
