52
Energy = -264.7841194 eV
Pt 11.690748241884029 8.859929812468472 7.00725315333802
Pt 8.618774299749507 2.256367141629201 9.774914555824532
Pt 10.122408587312828 8.932089615717292 9.219166543412939
Pt 9.58571657369417 4.452801491865756 8.803359311329677
Pt 8.836537188661223 6.72984797424022 10.018898222019356
Pt 10.734718222881845 6.614210962816744 8.006533590782311
Pt 8.759986190917262 2.4973958658220368 7.07645402208912
Pt 6.061054227690918 2.3162557723061 10.493459933175169
Pt 7.5004822621941925 4.551945544804064 10.621703959431196
Pt 6.205012808892207 6.860721010542913 10.430408466435116
Pt 10.600708910753902 11.123690427623417 7.7321651883972615
Pt 9.826781696205678 4.784752082413619 6.13313571825498
Pt 7.5750279057857535 9.05341202270729 10.105100386216796
Pt 8.085499285184616 3.414077695868884 4.651860962291657
Pt 10.191915619020586 7.362537216017471 5.519383589380348
Pt 8.143692166490744 8.913015481106848 7.550364178357818
Pt 9.702911556547464 9.939413118136455 5.527732603342637
Pt 6.8469426822126955 3.988764498902056 8.125305840243847
Pt 6.825092809735142 1.020285994930469 8.313197828044732
Pt 8.839753054555711 11.321868622399274 9.618721933578305
Pt 8.025963561893608 6.352207925816326 7.4356946764696055
Pt 4.805785508276214 4.560065333637987 10.156539671786819
Pt 7.1594512201312135 7.595838369169444 5.285582925788344
Pt 8.876437767045337 8.526948901055313 3.41573487825862
Pt 5.3513796147191615 2.847778366194572 3.802501428030838
Pt 6.181041331211193 2.161800091847523 6.122409170540506
Pt 8.043297942333 11.462400948682117 7.043205703242994
Pt 6.325378185585164 5.1139077754246784 5.520333681344416
Pt 4.5793168936939725 2.599021964470742 8.254875913262547
Pt 8.93635964093573 5.823221258047579 3.9029262986503497
Pt 7.838184858717962 6.839870589965966 1.717022355538969
Pt 5.441394129628544 6.248735739993892 7.901916637602107
Pt 4.613925055542319 7.101427002198205 5.455444676366295
Pt 6.679788858696238 4.780636822958082 2.8339967529103416
Pt 6.211109145191118 8.543316723405667 2.9464000816023117
Pt 3.58024541532087 6.820601417623164 10.111186318097705
Pt 5.591006952559748 8.72978038930663 7.284088971950594
Pt 7.197650381650071 10.232454153907842 4.778231818103464
Pt 4.861802957841647 9.094980079203848 9.759358734579164
Pt 3.995715259060937 3.6920593044916377 5.890094651452692
Pt 3.9828428942887832 5.179178237695856 3.604933467523424
Pt 6.310138695423107 11.260816678991837 9.146249920883438
Pt 6.735008721116294 5.023406786439435 0.2575469169640912
Pt 5.4713876945503985 11.196931044630551 6.544935875786844
Pt 2.429071425076488 5.789250480638133 5.692208369272087
Pt 3.1719031386060657 4.906523273214296 8.076881310472453
Pt 5.110210883882283 6.463165972342449 1.550907367871403
Pt 3.6059289896965208 7.776939520242617 3.10911319752019
Pt 2.9404363989695868 7.543031700219979 7.6862219980383095
Pt 4.538257874345662 9.737021025299258 4.5510012844669525
Pt 3.0596851286349462 9.87317649299933 6.685674295373592
Pt 3.814250923352978 11.287821321573 8.683394637630627
