52
Energy = -264.67784971 eV
Pt 7.933559831252125 2.6237476988264676 9.222831626415267
Pt 8.014043174587636 8.611537560036567 6.680031017823166
Pt 2.821368583289016 1.6925293618892487 4.566273834215466
Pt 2.5924416707081015 7.97712087910992 7.071901428216781
Pt 2.7527789528260787 2.843664405266215 6.869422826749441
Pt 7.670336179434933 5.164959106713621 10.087844305282758
Pt 7.57904040090486 4.598666201830346 1.1363723030254225
Pt 4.694918516152502 4.000973379264211 5.468511174918472
Pt 7.2248264197405465 7.21092753390142 1.516186154679579
Pt 1.6358084223922076 5.63926895131298 2.6121906937683765
Pt 1.7251856474427463 5.293127504741546 7.245139156928862
Pt 2.4790851573010597 6.582447991326516 9.446249490056694
Pt 6.922221203304456 5.445551804647021 5.757734889123907
Pt 4.336019163149683 7.017747802968586 1.2920669820559607
Pt 6.749154330329503 6.495903376444451 8.073036006209003
Pt 4.301339524869128 5.7933745625103406 7.491145217744436
Pt 1.082843933974571 6.640946539752626 5.044659815526949
Pt 8.865163673384163 5.801463859879965 3.213522625990763
Pt 9.215745250446492 6.946358156428142 8.482117523740055
Pt 4.871055432259635 3.4586828698223977 0.8846247730842783
Pt 2.852170165246899 5.010228580702635 0.39840795033575077
Pt 5.243969959557399 8.98268325219831 2.8357791660049867
Pt 5.759590409081478 5.653295357461447 10.327277316566214
Pt 9.036780816819531 3.8416751347330775 5.009161630570035
Pt 7.80882837589542 2.1327192611847496 6.651222988606766
Pt 2.49292584108747 2.9957340153184733 2.290377477789396
Pt 6.667682069150687 9.67461109385948 8.606462715346908
Pt 5.676658762105376 3.3680212015099404 10.327277316566214
Pt 4.944471611612548 5.880646416194547 10.254318049980801
Pt 4.138040177900607 4.8398552416397225 2.9831972841718626
Pt 4.55423026981 1.7985818668927294 8.414057821577511
Pt 5.465292170658197 7.8229262845869485 6.245852733468107
Pt 6.30751594544359 9.970565197246188 5.115043214114707
Pt 9.19062008582985 3.132371044391113 2.5451361964535995
Pt 3.617157929053896 6.474868695091102 4.9112151994657465
Pt 9.282875058758806 6.482777554321027 5.761092434889219
Pt 3.2652385767961016 4.014593284225014 9.207578456448156
Pt 3.6293815504860047 9.3530646095485 4.964745373106585
Pt 5.312061030809672 1.4970458824221409 5.76967241948338
Pt 1.7303242275049042 4.086449210517584 4.814747972525811
Pt 7.967324468085216 8.195028129909481 3.9807666983917382
Pt 5.895547499692827 6.64591267236267 3.6223865135484727
Pt 8.895772581225716 4.4598366759319585 7.549211432269286
Pt 6.561771632639697 4.12896581669536 3.532389307302545
Pt 2.6822996969835002 8.013562145857403 2.991985429893929
Pt 4.472665968850387 10.107555088396849 7.244261998143943
Pt 4.880878276105318 1.8497124444646127 3.0899762089918195
Pt 7.418562198469981 1.7089296539230159 4.104306746882979
Pt 6.936079004885665 7.7140531070008835 10.321041691799332
Pt 6.963167344531994 2.0523339267563427 1.5013876952484075
Pt 4.529056549452847 8.206025041217833 9.072122856849441
Pt 6.038974045920589 3.751222334967429 7.709151748269169
