52
Energy = -265.01287428 eV
Pt 3.8631371777996186 4.10336807248658 1.0048235317402752
Pt 5.736903733632719 6.055526692275749 1.0888116044172147
Pt 7.723133101411316 7.63865534661366 2.2678006582266024
Pt 6.420925546122267 3.3942492967457163 0.9354710127604009
Pt 3.1562180899970853 6.613368339176557 1.7179762861403953
Pt 8.226887587126443 5.121706690527161 1.7315779205227115
Pt 5.1059036737315875 8.313820108798698 2.3583556469804776
Pt 4.6072649623932795 1.5408082308659161 1.3688457829992768
Pt 2.777809571907303 8.338098595448281 3.624989579071222
Pt 1.3345838808832051 4.5679610887625985 1.7180347829861204
Pt 6.028476259475115 4.667074240802304 3.240260056117236
Pt 6.228875747494822 7.01096540666317 4.348824765579342
Pt 6.5544601990000135 0.19221822614422832 5.040166805187328
Pt 10.043265782448174 6.4572264190245585 3.1434868412264336
Pt 1.1818926750254177 6.291298554777201 3.742472358379558
Pt 7.026687557569057 9.740712943691117 3.6588696926384197
Pt 8.241727010027267 5.301388737010816 4.480141417946825
Pt 3.94044925588264 6.676308166738809 5.326345358897554
Pt 10.312490567377674 3.8740808533677544 4.764047656024128
Pt 4.662989181136418 9.860423478522462 4.6701775647762584
Pt 4.20275327145852 0.6641770405450298 3.8679043173447685
Pt 2.507096681201406 2.3583983635291594 2.661348718873974
Pt 0.6459884462258217 3.5582344995788526 4.063874558767601
Pt 6.578706791495605 1.8432149647824458 3.0393897774074095
Pt 3.494453854245771 4.792214748832856 3.570772366140117
Pt 8.52912179020222 1.9384779287694127 4.8111417987442096
Pt 2.3714663038350197 4.624395037079357 5.895839183493249
Pt 10.312490567377676 5.465483515688299 5.897828644072837
Pt 7.041229096940906 1.5965557609428633 7.248687461478806
Pt 4.305656117983064 2.890935767736886 5.09942955775241
Pt 0.29704926221278005 2.948441397212226 6.633666526078628
Pt 2.0881069631145825 1.5335545097363588 5.289190770548871
Pt 6.683053974689289 9.073808181246378 6.212626303896043
Pt 4.137139547856616 8.65340053830523 7.046060317811321
Pt 8.846259150318636 3.5018790496741814 7.075136230527348
Pt 6.700912290047308 3.562778126492702 5.587479318854556
Pt 1.6018372368890634 7.315986232604934 6.412375412267291
Pt 4.502905553779592 0.8741841212609973 6.655307927171675
Pt 8.813806247863578 8.115457438797492 4.871177809403615
Pt 9.880383071779576 5.928989529914781 6.412564243373973
Pt 6.93677502074606 6.137220319167643 6.676764445989854
Pt 4.770933357484706 4.733258660056694 6.9377636220997845
Pt 1.2909226892224155 5.0520118084781265 8.164366847211701
Pt 2.2660981930315574 9.758907179955147 5.7095175495442225
Pt 2.653811652542644 2.5123465585354348 7.7315264824827095
Pt 6.021477791721774 7.676477318459641 8.48374724746492
Pt 8.248024460746338 5.40602681572506 8.740538250895142
Pt 3.5329326972386617 6.557375376234194 8.51813648029699
Pt 5.1370880015413105 2.6638707018727015 8.590807870745566
Pt 8.62298283297848 7.909357590376416 7.553627300077772
Pt 5.758260150101286 5.143899240295331 9.38342670037906
Pt 3.2931519508884644 4.198875724968095 9.675950171483546
