51
Energy = -261.04898852 eV
Pt 3.6539974042271437 9.206021905927697 10.075247405441608
Pt 6.262293829173948 8.518370386451902 10.125451061331265
Pt 5.079962765870814 10.097647972590183 8.210970436971309
Pt 4.1436914402315415 6.740882099243703 10.288166989592778
Pt 2.637927997288662 7.640367821357588 8.182337227890239
Pt 8.735880790529 7.520940550220531 9.748326818260335
Pt 7.862604371605604 9.793828270498764 8.37732452607589
Pt 6.6804127012572465 5.918892571986598 10.457840597311225
Pt 6.528682806191165 11.329761592643626 6.562866708767538
Pt 4.3082674344209675 10.241493890070148 5.597654734926964
Pt 4.766302510284297 7.8763821166645425 6.737439991899968
Pt 4.607984265413356 4.302796294470833 10.84344098280105
Pt 2.768331434845392 4.9945912322852 8.884575628369396
Pt 2.507782966408079 8.304976786370071 5.549689249335212
Pt 9.047847762358414 10.517436476724313 6.0880746613252015
Pt 6.995688129042767 7.322341646606606 7.871692054014944
Pt 9.754520961662434 8.306832750341853 7.1963255135552044
Pt 7.048802209033928 8.7927760073907 5.629245431198576
Pt 8.999109491944221 4.894096292037241 9.764774355953667
Pt 4.659037393746396 2.9620376926774954 8.582200529968233
Pt 5.111652188426302 5.494671420784462 7.869158332594617
Pt 7.894355627832333 12.5461093340975 4.71397711440646
Pt 2.4119336552980926 5.772301588840598 6.295892256816125
Pt 6.869984733282524 3.2778171611492395 10.053215301562464
Pt 6.290822401260928 10.607272380988826 3.8535779849225746
Pt 8.943351708608684 10.586940277795874 3.418272914117959
Pt 2.588708788477817 3.2277130550535564 6.997370712262418
Pt 3.3763464372144845 3.9156713109010846 4.631798069209215
Pt 9.121673257534354 2.3337267594448448 9.08306778898907
Pt 10.749678138903393 6.3142756919494625 8.45206060082721
Pt 5.781993643695045 4.53794450907681 5.5289451746408
Pt 3.0937671369857016 6.407537073248713 3.8142443165809534
Pt 6.947640861087221 2.047798164362591 7.641850074884378
Pt 7.521736309214604 4.635952104710436 7.531470094028162
Pt 5.582158007814907 6.894645920739179 4.490141704912667
Pt 4.404355086678261 8.877401041938317 3.3431534987173106
Pt 7.927137720600408 6.325779575886894 5.528984431201533
Pt 10.518728364600792 6.136081274024871 5.749826221365905
Pt 7.609187262404701 8.46836330940943 2.7860794052544446
Pt 4.8378053756984665 2.1449598348825765 6.089673099998761
Pt 9.658854556173457 8.311629669664587 4.521709031203115
Pt 5.0963388496013975 2.2759983518545255 3.408574778041559
Pt 4.515261142713757 4.618566052898221 2.3837012421828896
Pt 10.079399871168084 4.085250969139342 7.339705299890608
Pt 9.300710642249326 1.8263846519891351 6.415507944213521
Pt 4.157257407323525 7.051774949805046 1.4820276552515192
Pt 7.211138344939249 2.019813312793024 4.918974575710558
Pt 7.092569201237921 4.007861920074373 3.211187121110607
Pt 6.549364023231088 6.301554636789742 2.0594753322569677
Pt 9.193954201322335 3.939238724568073 4.7968073206195525
Pt 8.885586126298325 6.054628279880213 3.187040237734478
