55
Energy = -283.5624195 eV
Pt 7.874772263332419 8.151074570548873 7.730940058485193
Pt 3.504021895867827 4.1857213747201145 6.822977085165123
Pt 7.556998059104714 4.018552819687433 10.185484246079657
Pt 3.3980383153342135 8.216466563513217 9.054169279937339
Pt 7.950565700996419 6.813643923102575 5.379350374456278
Pt 7.776701836011685 6.843836597233324 10.104844726850606
Pt 7.8044098421368036 10.839036295095495 7.734357660365054
Pt 8.167349680656955 9.915514945252832 5.230628682244679
Pt 9.895427626216179 10.784010408110424 9.31332030241339
Pt 7.878917147533675 5.5032840289092535 7.750941579735586
Pt 8.192334411898248 3.7066170757011876 5.278606389681859
Pt 5.409748585895981 8.335220549746257 10.775252378383023
Pt 3.3991163155443354 5.441440623918571 9.072458965238292
Pt 10.1828747236215 8.203511063896272 4.815949640083199
Pt 3.320716473904839 6.845375527822088 11.284932881640822
Pt 7.820834867594529 2.824947781913482 7.802194297099023
Pt 10.19589300170047 5.42411347422908 4.839213086774436
Pt 10.285124111621023 5.557521406809082 9.38614904754923
Pt 5.657697213906546 6.823419367883995 8.410280340237959
Pt 3.306407211732884 8.10660945105349 4.487749920687217
Pt 9.905509024499107 2.9186237722429293 9.392183821100431
Pt 5.461129323343464 9.893968462140231 8.570585193741216
Pt 3.3227908421733527 5.501432724828218 4.505368394647465
Pt 7.5565754663145315 9.670978886225189 10.13532698290496
Pt 5.460297423714359 3.7455740658414567 8.628108141282137
Pt 5.8271737408237305 6.799999665164531 3.681699227265111
Pt 10.28764984111906 8.143352348258514 9.36112476727062
Pt 10.605374050462522 6.831269789048349 7.087707938524385
Pt 10.272019867589018 6.8011386215662775 2.6072056926070943
Pt 3.656200965932101 6.792146405830243 2.1522008175579215
Pt 10.112464888496914 9.464814488913879 7.052452283187139
Pt 6.040060112124663 9.755124763980486 3.6826854336229506
Pt 3.838888221584219 9.387448892192419 2.2108464174079847
Pt 10.12417387668565 4.194533120693137 7.099406804595817
Pt 3.7127966940878694 10.751321412579461 4.5169881442313935
Pt 3.8645164287327955 4.199760850033832 2.250404558385279
Pt 5.7351438972867665 8.14160283346179 6.019128983817374
Pt 6.065624468727193 3.837233881599314 3.7270646527149127
Pt 6.007724664228366 8.206840886778767 1.4413678056225279
Pt 5.804216180841944 10.81824129227939 6.108064338758137
Pt 3.738749781005698 2.8564774143880975 4.569722820239617
Pt 6.027395890475427 5.369158890482265 1.4689937088741412
Pt 5.747458628083369 5.481273334623087 6.037289261321482
Pt 8.18339607896591 8.424398701984178 3.0518096577748546
Pt 8.125394819849113 6.792715962346421 0.9621400510655991
Pt 5.824780309423608 2.813049232996348 6.172682242791779
Pt 8.201299006073134 5.1714722220387275 3.0782758047879466
Pt 9.884612557204287 6.872003997053544 11.708913130689709
Pt 3.111212488590683 6.816173998292886 6.781034723254449
Pt 5.405429515174364 5.348661028402005 10.796495628845104
Pt 9.683369815452991 9.457265516228423 11.6262993347971
Pt 3.487315932620794 9.448216479010796 6.788784150346118
Pt 7.467725723364355 8.159073288970893 12.41298181023681
Pt 9.682673460180233 4.285442455295416 11.677788717442409
Pt 7.451173969072528 5.5695597039969975 12.43733485409418
