54
Energy = -268.18113728 eV
Pt 11.663308448543617 5.369014468942428 4.916311151023187
Pt 10.819467628243737 4.160822376122364 0.563038489245818
Pt 7.230566133697913 3.3537438440765635 3.6601118990691135
Pt 1.7102229803082376 10.401695705863814 7.352779497819092
Pt 7.054418310172054 7.356848868640112 6.443834377093083
Pt 7.3117689651693025 9.663029815876856 7.675944742160995
Pt 3.413067877898456 8.913519302848497 5.815223824923285
Pt 6.326006530339841 11.918939782236812 6.816186510980212
Pt 6.434368042594668 4.350950784037571 1.278954294717951
Pt 6.343600821425396 8.141111673236404 9.53487440410268
Pt 4.631826206818072 6.15117274970952 2.2520314227516365
Pt 4.9288139973344895 3.7402637241459615 9.658902184916087
Pt 9.881201581700974 9.808016820781871 3.8030078198758908
Pt 0.47817087805140673 7.313077824309498 2.96775654622869
Pt 10.164095477615978 5.499020331890538 9.306302856063624
Pt 3.270337469795562 5.745118786547601 8.970625042879323
Pt 4.154283915044964 4.053385128181226 7.157701434734795
Pt 8.3929800682149 4.695068386051124 7.537280764125067
Pt 2.717987690597193 7.145875686112556 4.014454251843661
Pt 7.117689330542594 6.30082563368628 2.8756327336397227
Pt 9.00186666343634 4.750396997096094 2.358673158918139
Pt 5.420359664933015 6.218819402774891 11.091946719947046
Pt 3.6899776810644336 4.098039077907286 0.871324407737198
Pt 7.675321294113329 8.555517270995258 3.982616697012597
Pt 9.295828772542338 4.581079123223422 11.597308455491628
Pt 4.719414630281429 9.694165232132137 8.280694878881693
Pt 9.948023793378928 7.2030545818533245 4.192246102004645
Pt 9.135518044288602 4.725739839405726 4.944562284156501
Pt 5.731598880989379 9.95891211507538 5.240848418593061
Pt 11.340220561580626 5.778458813517638 2.421360904339808
Pt 8.171754036100246 10.932946234113583 5.319874807887995
Pt 3.8491697086669494 11.42267096146884 6.596126071032834
Pt 5.153923034254343 2.524148364860648 5.307170739117656
Pt 2.111184291326127 5.716821347166331 1.953316481414649
Pt 8.425651265227835 4.690383974639113 13.072823836332951
Pt 4.792252534674398 2.985169037970251 2.8600403586364145
Pt 7.796606257319136 5.954128371822363 10.133563678284577
Pt 6.483717577881974 4.947359584714404 5.699197725165446
Pt 4.218239809864482 4.000560200503591 12.055132468642446
Pt 6.7575096010588185 4.0509412332605645 11.621146363450471
Pt 9.515064194148561 8.878953887208871 6.239336747792743
Pt 8.208810396011321 2.4711619358055867 5.929741712328295
Pt 6.4339624195126115 0.6608126528371601 6.515967356874724
Pt 5.897401541258261 5.80570109798933 8.236832341970628
Pt 2.4954340394513252 8.164450299677101 8.224326551661102
Pt 5.282379585004813 7.477918121938029 4.524712422433001
Pt 3.2273032797414505 6.380793358881546 6.44638121009488
Pt 3.875153791760851 8.119834832700418 10.344133105044369
Pt 6.500950500845383 2.8769987196467484 7.870535270901236
Pt 1.9820496552514657 4.379590081341523 13.072823836332951
Pt 2.827029098368617 6.185708696717999 11.542827651136243
Pt 4.042948237857836 4.794635660031034 4.559781858921726
Pt 10.323917012136436 6.387009180026366 6.845910400756588
Pt 8.799553467409789 7.723724794839451 8.476301061511611
