54
Energy = -271.21744326 eV
Pt 8.09906517168186 3.528053562893064 10.438249543113828
Pt 5.633008614329324 7.56062747357584 3.0227909315951593
Pt 2.6358758541852945 10.9556385054293 8.128215392905421
Pt 10.659098060748244 8.387068894038066 6.720069562506937
Pt 7.346460766497754 10.914834731912489 5.754870356531743
Pt 3.609849536977402 5.931182345404293 2.5157019568606165
Pt 9.937894449979183 7.684137589462904 4.227508203290198
Pt 6.151542940225215 2.516599053248632 8.942424188907781
Pt 7.757677896666466 4.089187606764683 5.943083703738576
Pt 9.96193699944933 5.788284254657056 6.1260500689855695
Pt 6.026721276268876 5.680570392742502 1.311525671284723
Pt 11.158717642350942 2.0775951094348697 7.856302552836643
Pt 9.555933937966854 1.1137937630560568 6.193113288637126
Pt 3.0410191621052456 7.703628404924263 6.70829306587634
Pt 6.2720907735377525 7.628480505246907 9.454673549347682
Pt 6.9174037661601595 10.051455496220287 8.810951100488493
Pt 8.691872794371735 8.236425222521035 8.371838793251825
Pt 6.891769253681348 12.417368891456688 7.787704327179423
Pt 8.417138612261452 5.934951955223722 9.591956733043585
Pt 2.537907325682906 3.593235814939715 2.3875880595334555
Pt 5.991550342675551 2.616509200340011 4.438712682169494
Pt 4.251833410128659 9.051258031142279 8.641409434335534
Pt 4.8060102087858025 11.585178102230321 9.386508846990012
Pt 5.2333381449364245 9.599867776676113 4.656029483584603
Pt 7.135297757367309 12.117646822315853 10.342740238971858
Pt 4.89370878665124 3.2919722298842475 6.72625817996772
Pt 7.693299861319161 9.031944616705593 3.9575773267786944
Pt 8.128208780121287 6.8174253260899995 2.464212795590087
Pt 7.736167418500065 0.6397580686045392 4.416047379307044
Pt 1.37454877141649 4.1315966573449145 8.61927029018266
Pt 5.074065727187847 3.4400369017961756 2.1994052477219483
Pt 5.981114065341927 5.023876882383423 9.847551952673388
Pt 3.87616442935295 4.289968501137598 4.481118800816856
Pt 6.689685126859819 5.887906533320643 7.45518326306148
Pt 3.837996824327127 3.7756410755770116 9.075494137361027
Pt 9.167912116589722 2.783575306771926 4.250306328002401
Pt 2.8220848093686084 9.979995950623346 5.673925857117474
Pt 4.8577790751957375 11.238885982340513 6.677291771079788
Pt 8.668992814852313 1.7894746249863402 8.607058066155437
Pt 10.708276154241732 6.512006984706568 8.485074017395975
Pt 7.511470912873291 6.5150857066275005 5.023612743691683
Pt 2.9701995747420398 5.0915275427008195 6.771633919595844
Pt 9.879190666933534 5.126293590906309 3.6033101811730037
Pt 11.75760978773577 10.601839662379701 6.460418108288076
Pt 3.270142343366848 7.963660787297605 4.030587267534773
Pt 7.513081604672329 4.187406827666167 2.8067796418096123
Pt 3.9299379708985454 6.483700674776105 9.169948858714767
Pt 6.700942018351589 8.543633976603271 6.6713056504716
Pt 6.921856771545612 1.641212405660782 6.671665877776257
Pt 1.416659176902851 6.625267573062253 8.560630769986192
Pt 9.697396348277916 4.132889892465095 8.182813800517792
Pt 1.0325288144199034 8.987630468260274 7.671783674381424
Pt 4.960703391082816 6.40588610365467 5.605333338755121
Pt 9.727064628911663 10.212755268728918 5.101750426232907
