50
Energy = -257.32313565 eV
Pt 7.834913783930871 8.358874803104179 3.0867098435048574
Pt 8.584435777650118 6.191400961676638 1.9482468452633035
Pt 9.338314814997226 9.655862738533267 4.935588333715502
Pt 10.226171117163842 7.1269364576669245 3.7676882862553374
Pt 11.161706752951757 8.101698635152278 6.020750628486741
Pt 5.991287834865338 6.7413484551011 1.9023956725676874
Pt 7.006567289553131 4.200846244369019 2.6046921830263097
Pt 6.51235142644331 6.022950664088351 4.410561796023693
Pt 9.3870460945584 4.527823578597516 3.7814974906821543
Pt 7.048682226427614 10.60401744951395 4.08082051073276
Pt 10.072285760017875 2.924990768416213 5.763045855979951
Pt 9.538376635061626 9.428336744969057 7.634488086666494
Pt 10.841868733950061 5.462305628675639 5.841341652068363
Pt 10.16502745557874 6.844220585422025 8.041131570667515
Pt 4.413769409475554 4.946329598942909 3.1038305405127584
Pt 3.4363685427172523 7.338572453707376 2.5807670573205623
Pt 5.2539367997108934 8.855726142989733 3.434708760776527
Pt 8.034486213882122 4.864793492589538 6.199102266467807
Pt 8.465629545051236 7.321471725999877 5.662238242688862
Pt 5.281589681094801 2.5936718003434094 3.7566778813306296
Pt 7.714236195248653 2.5901222398058192 4.6636409612712715
Pt 4.989851636478794 10.257842471188976 5.632281566631398
Pt 4.982762304749933 7.5141626896768186 5.8447765326663905
Pt 7.974796617351634 2.4010949527593284 7.364536637235641
Pt 7.4186755763031424 10.762633371231962 6.644156601553003
Pt 6.915389622667778 8.280793856886946 7.472784238873461
Pt 3.401508382014512 3.708269097085285 5.242890730421083
Pt 9.873856405735337 4.191181027980466 8.062083316972563
Pt 2.7899505477512863 8.925177117385507 4.710792232691021
Pt 5.521699694844688 2.325666205955413 6.310952424746499
Pt 7.293776519304731 5.867578835047888 8.42309027580207
Pt 5.288289723064397 10.38737633086588 8.317797615313383
Pt 2.756471932625554 6.252645045160038 4.799982709020094
Pt 7.742779151368586 10.507682305409359 9.23547923986049
Pt 5.378003038386321 4.905869399154056 6.524351968265893
Pt 2.9586217365579777 10.072315955892398 7.1572585727716795
Pt 8.611105607226653 8.13124681206984 9.806516841191035
Pt 2.3911187636263045 7.579336482020678 7.077855332471529
Pt 9.456719063100861 5.680611852032673 10.242472289745862
Pt 4.938688795084888 6.899441099182102 8.348061065244076
Pt 7.764445805149151 3.7308088535276536 9.76384913247549
Pt 1.8532304592433586 5.0454576425872375 6.901513697761675
Pt 3.704685191956151 3.604314025203012 8.00938202476272
Pt 5.80631972131548 2.3000777070715825 8.870361823828135
Pt 6.062438233327259 8.759159525595056 10.299428306637823
Pt 3.4251393122027096 8.69940794364514 9.376840001284382
Pt 7.009447418438411 6.29716083899799 10.99142140265854
Pt 2.771938918309083 5.887486237150768 9.203909896375846
Pt 5.127868785416154 4.468494136747002 10.11656167389208
Pt 4.451626559111468 6.824664625867304 10.99894499588037
