51
Energy = -260.53411874 eV
Pt 8.408138059183187 2.609846654561831 5.460184302745112
Pt 10.064864064678003 4.911225254118683 4.6548742742403295
Pt 8.248957780849842 2.4070246455249915 8.160397908665262
Pt 10.02842335148439 4.123024114539229 7.198165566555145
Pt 7.8638010649402625 4.164705583146916 3.2770834755012856
Pt 5.886288866075282 2.6745345282025057 4.330213504469111
Pt 6.170081965509727 1.8269808754554717 6.766852540202582
Pt 7.137456745427486 6.179103206989729 1.4489156152436735
Pt 10.466404005589597 6.774704727762896 6.54075900557091
Pt 5.949921063267133 1.470266196145205 9.35837939354911
Pt 9.936662754320643 3.7384818135799542 9.798761719034454
Pt 7.747428579558449 5.047082078992763 5.758460305445291
Pt 7.7549779056098815 2.689098466139489 10.75907148232849
Pt 7.544726073998345 6.865739681802241 3.951378850987563
Pt 5.419962717376143 4.339350911482239 2.281533200452385
Pt 6.892097393240019 4.632131394093173 8.189043045527391
Pt 9.972916878868704 6.156229717109019 9.03095213839672
Pt 5.232953710580814 4.5731115001941305 6.177409620913521
Pt 3.703275967300009 1.984677858349979 5.821416191278107
Pt 3.465126399590801 3.8643116631191687 4.0469805649547705
Pt 4.7302430593517535 7.134466083819446 1.8173087027635686
Pt 10.060333124674079 7.505493188112525 4.038902926918018
Pt 6.8040050946143475 8.728202579073642 2.36191385459955
Pt 5.105140623222193 6.109634757653 4.113706322149839
Pt 5.4604916928487155 3.970933856272037 10.269684600560954
Pt 4.15390890462499 2.9597882579007013 8.210755176977013
Pt 2.4555198713812283 6.159465708829352 4.731996329866482
Pt 7.885345727754328 5.330797738839515 10.509115287563153
Pt 10.239987908975925 8.634340834079085 8.473452473606795
Pt 8.814157517685388 9.901375473775715 3.6157664846535567
Pt 7.148998850118047 8.68557114689473 5.6933106397561986
Pt 4.298557114868943 9.273931113365883 3.3195980058444263
Pt 4.716327343125573 8.0304974707489 5.662754635716441
Pt 2.348897559047862 7.6533577772014585 2.687195173460066
Pt 7.976768959695656 7.936155297630051 9.893033134597014
Pt 2.5977920173451343 4.365774000660798 6.654544709499942
Pt 7.92271233324026 6.99616047639631 7.4134209214280125
Pt 9.730601825027078 9.276545117085137 5.96807812669006
Pt 5.617286906181538 6.665804327940739 10.343094202319289
Pt 6.315373523506653 10.647242299484724 4.165721601421037
Pt 5.356151953307223 6.712749817620017 7.7142747480833735
Pt 3.4806476104338766 5.342831617718055 9.11007261705824
Pt 2.2421527646927677 8.776640282518748 5.174664889334754
Pt 8.009408007819603 9.93119807717617 8.120410629091426
Pt 5.851602881070936 10.739475815157574 6.941126752535184
Pt 3.8407602181216696 10.96279435968455 5.269463256433617
Pt 8.201368212777108 11.422245462085241 5.877260442975435
Pt 5.68352682058403 9.055448306784882 9.02587055454143
Pt 2.584006556401695 6.989888641781785 7.224203216118126
Pt 3.34087696647291 7.95515053227922 9.567074000672408
Pt 3.5038560832863737 9.589304492315447 7.495828846343534
