50
Energy = -255.01189278 eV
Pt 10.44562371117553 5.497941239988805 4.679072969493723
Pt 9.476260630483056 4.931983526860743 2.3498573571797956
Pt 9.350011585833865 3.014042926755723 4.375263719900273
Pt 9.701406848581561 7.461045993113065 2.822538444517443
Pt 11.1080892982103 6.176827177309227 7.127143379330061
Pt 10.777129135412812 8.013107053718556 5.280742939689529
Pt 8.13679007226207 2.437562445649318 8.163980443893783
Pt 10.119271241225917 8.471714324853592 7.901503421325622
Pt 10.728368991385727 10.48607367878422 6.149146561793004
Pt 7.867625659610446 5.384385484930001 5.117706604164906
Pt 10.019039943821241 9.91303807021189 3.6538880683151054
Pt 8.825971843613132 4.79796562313022 9.368938605088253
Pt 9.582361830392728 4.04315175897191 6.825201706020296
Pt 7.248497620020684 6.5093646874808835 2.6110606577575695
Pt 7.259401484574467 3.833134216855293 3.0368733004183257
Pt 5.587325623410231 2.7050104128520545 8.116112552245214
Pt 7.011098822682819 2.781871258779282 5.7581354705063275
Pt 6.90324787231801 3.2408498103080805 10.349575136727552
Pt 7.49531094381685 9.139622381785502 3.124311485068145
Pt 8.124097488857497 7.937826544047367 5.32449826274366
Pt 8.439988853981443 6.480038539468517 7.409447088032803
Pt 8.467052803347357 7.581942860393583 9.846754687752693
Pt 8.126858897781263 10.54991008844835 5.427941009800599
Pt 6.259691488765515 5.302344831658989 8.251559252713115
Pt 8.970333520509742 10.752420377934174 7.993819390527515
Pt 4.037596208706288 2.826672133867553 6.059657200671468
Pt 5.400163080356455 5.081146111157667 5.743215790079526
Pt 5.107321643146493 2.7153349839556276 3.7346027322303605
Pt 6.459500516557736 7.917848062034652 8.076403744445651
Pt 5.105228367629097 7.928926988786031 3.0965589604332724
Pt 7.4661812761770125 10.00782093241422 9.879421771621555
Pt 6.718742182299755 5.780542774252967 10.8783150788673
Pt 5.595147874751784 10.134741079292304 4.920192582348239
Pt 5.602647408536688 7.6640887370174475 5.580493156711269
Pt 4.977870284452627 5.250293983263009 3.059056558279018
Pt 6.415239599582574 10.490165314856647 7.438812814072152
Pt 6.39743957476664 8.292110483154804 11.498518911181563
Pt 4.560922217271731 4.40979250589997 10.099002187256714
Pt 2.992131850713592 3.221561030623814 8.382343788916005
Pt 2.8116407778711157 4.027301866552795 4.029697260311261
Pt 4.195990839761993 6.684116203445696 7.5111887804505795
Pt 4.9186888033791405 9.467506530741613 9.51212721597592
Pt 2.4157474315642102 4.986217887379522 6.469748654416842
Pt 3.1541885027991596 9.130698001052469 4.580280769767107
Pt 4.331694090485177 7.003802649075893 10.509181841089823
Pt 3.0665936717760003 6.594287107210587 4.3830685616152305
Pt 3.9382423206204162 9.605052445533577 7.059507312694029
Pt 2.443115610566624 5.709597074218247 9.081992764747858
Pt 2.0049774266202776 7.6988515486892934 6.574169568422041
Pt 2.5799120567952367 8.390240566852105 9.077721984089077
