51
Energy = -259.8842719 eV
Pt 9.024816602267194 9.060396223255216 3.5044339971895746
Pt 8.548048768796354 7.587193122998027 1.2367596698565826
Pt 5.1341989965791015 8.689612499409522 1.6497287375966805
Pt 6.5150857607306865 10.121305742635935 3.528602608277132
Pt 9.482312545173537 6.32432318049923 3.4136704524381374
Pt 8.0297567784907 10.175954826579684 5.711314100313201
Pt 10.169038015238014 7.781696937869061 5.515556122494303
Pt 6.881402039707535 7.534319754488217 3.170013160122407
Pt 9.411982130961567 9.13205972926923 7.797907768826201
Pt 8.323566361630927 4.942204971671831 1.549303817198817
Pt 4.020529267887048 8.945768977768454 3.9217638939778774
Pt 5.924383570358401 6.20711239311489 1.2532494098920555
Pt 5.341936789715963 10.42426610826444 5.881406656112438
Pt 6.9345607339725985 10.363826415369964 8.091540602330973
Pt 7.627127277939696 7.643118728353728 5.869309220448696
Pt 9.974086071883393 5.061157416368421 5.653760285437362
Pt 10.334511740772289 6.5654449025752815 7.798811553706652
Pt 10.160291391165167 7.8925822770129 10.066916926142403
Pt 8.321889791744773 9.753040451915703 10.222641215358175
Pt 6.261385484040125 3.882385823208445 2.5803446608024485
Pt 4.312870955431708 10.146992479686388 8.373274327894379
Pt 3.984257916352149 5.370927233641847 2.855162980104218
Pt 8.746737795758024 3.3899478422021376 3.8045700855280318
Pt 7.344218261790633 7.589799406476009 8.492548130102207
Pt 7.2587794757245225 5.336247672270301 4.561570227299405
Pt 2.9932892415163623 9.086409514751493 6.2988668250148
Pt 5.046142429332057 6.703011006583646 4.810036502957062
Pt 7.730197305664913 5.30443035136104 7.30584270718758
Pt 10.298961741644163 3.9209806999968593 8.046498046515232
Pt 9.134317571959768 5.494980712373091 9.844803513516693
Pt 7.729827766936134 7.299415604082257 11.129060086116532
Pt 2.5149110416701723 6.863120451184629 4.8113589398473
Pt 5.78499373585804 8.946302840525714 10.227803020182069
Pt 5.271975739454023 8.102343993313427 6.981811565171014
Pt 2.4777607250862874 5.819717524092341 7.255136146544126
Pt 8.446127901734148 2.890101311040919 6.4352208368464865
Pt 5.449137423792249 4.522713816357911 6.193812321805073
Pt 4.123612619759605 2.751335913444667 3.390109837543111
Pt 7.19762069136461 4.684667680518116 11.386870229662529
Pt 3.5463832520641216 7.8539999347926726 9.458562738304106
Pt 5.328265941816852 5.906250942601137 8.350091645514201
Pt 6.437683043405504 2.384589938853261 4.804168266777621
Pt 7.872125092883845 3.3457605513773783 9.085083084941228
Pt 3.000596654036489 4.293653339492766 5.194815537527977
Pt 5.233283794769389 6.397651599946249 10.887284907866038
Pt 1.461477406544028 8.001172953584677 7.9843944550988155
Pt 3.0783229796585503 5.2379850766874485 9.758483027593886
Pt 6.007939673571902 2.3252590667207134 7.516827458240783
Pt 4.012690128886956 1.8904703424796745 5.815374751809382
Pt 3.5401703972516096 3.473248249235006 7.846561427381785
Pt 5.354069961750236 3.727578964329148 9.781649060057843
