53
Energy = -271.65720563 eV
Pt 11.622197957819592 5.7667421913955605 3.5149749242443455
Pt 11.985658846961357 8.0713656147411 4.689903781643564
Pt 10.997883186087641 5.9351751856693085 6.1049390226317
Pt 10.284436736744098 3.851311972294629 4.649327382508179
Pt 9.987373579809734 6.347506382662311 8.531346093669882
Pt 10.630483475466782 8.47448895052304 6.94326093120826
Pt 9.81620019744919 7.83001417062336 3.152430419177914
Pt 9.70247655752493 3.9679427719269764 7.274223908891952
Pt 8.867448969619442 7.288207410772916 5.483625049808489
Pt 9.175619048464783 5.266199648469817 2.742247520553931
Pt 10.209164234042445 9.983930282368677 4.710244788613884
Pt 8.02095973477549 2.1007793631207146 8.140422589841458
Pt 6.341436058322239 2.6225093949159652 3.947159674948174
Pt 8.075814500771529 4.4620919886857715 9.3596302990436
Pt 8.381598254423375 2.371386374730613 5.5040128607265935
Pt 7.627732931112998 6.820082813407138 7.668242810464351
Pt 8.89318745151761 8.888147350126728 8.786038018983602
Pt 7.800468863700855 6.887340616413797 10.311956654846107
Pt 6.858349981324807 4.409063789578858 2.0775347125447206
Pt 5.935659451340144 1.8019976666885322 6.495589097866563
Pt 8.37734816835114 10.14705332488084 6.467874713134203
Pt 7.69567767456908 9.331028056745927 3.922942096984022
Pt 5.7520375624778985 2.9846487030437965 8.987190218669928
Pt 7.312734588342574 7.230954100548273 2.273936924498416
Pt 7.186244361872122 4.437463032731427 6.622613750876938
Pt 7.209273944416479 5.736486405558128 4.361723384190071
Pt 7.2963945955774125 9.5215191549182 10.717187428141377
Pt 5.707018408074448 5.272202816632316 10.335742372977458
Pt 3.849619728147581 2.34847134218094 4.854957200026213
Pt 4.4723095346337844 3.364449248780607 2.2660456062458936
Pt 5.353401886750595 7.887272264551795 8.094253120767146
Pt 5.044764201009548 4.644246380654576 5.118380744066425
Pt 6.540343102801014 10.197746410577768 8.318417872185796
Pt 5.325212769610514 7.896399461836724 10.672880903948972
Pt 4.9442421550573945 5.28683179072868 7.751704525385348
Pt 3.6364486633190554 2.87087399295531 7.398420284414875
Pt 5.233818954355949 8.545424422094511 3.3297206869858864
Pt 6.215908209719206 7.785040697441304 5.622240034476179
Pt 5.821363799856233 10.357907987655791 5.811419844466675
Pt 3.443411580686612 3.917070220109619 9.833077950877717
Pt 4.793681592691467 6.04306187439213 2.5497127699442603
Pt 1.6176143869565067 3.3951161693100267 5.769509893276948
Pt 2.7887725207087426 4.690415054019627 3.7096085980406204
Pt 3.2782769431449417 6.521474155436698 9.726777155833284
Pt 3.8427964090979723 6.792999286960038 5.938159832505443
Pt 3.101655829796244 9.073120007248704 9.93658394349568
Pt 2.1540303148643494 7.941855860704072 7.668802326970709
Pt 3.9174444225778653 10.005536928366796 7.667495812503204
Pt 2.1678028291937594 5.098380470863239 7.806005727582927
Pt 3.46525334169571 9.450687907818523 5.140359571894714
Pt 2.8443294103031014 7.412015375302691 3.595177860783029
Pt 1.3103549075767464 5.93523869213121 5.50677202478149
Pt 1.0730328112560747 8.464854783749121 5.342998762580836
