50
Energy = -253.46509956 eV
Pt 10.788134936877869 3.557929165374932 2.8246044785075863
Pt 9.503585019164841 5.944283876548804 2.7754508222087875
Pt 8.212322337009542 3.4606383151456375 2.8151866882596144
Pt 10.64667830156525 4.930487683471045 5.005714740355949
Pt 9.635219491273581 2.237531450914004 4.806973171617168
Pt 8.04372772518714 8.148376204318026 2.917313611081126
Pt 5.684459952830754 3.2738458663533203 2.6761049174644276
Pt 6.862284793835745 5.730493527192003 2.19312039235109
Pt 9.37460589066384 7.271496194421285 5.077231934756202
Pt 8.126743182668534 4.41338539461838 5.235937482106324
Pt 10.452650341288368 3.2960884832664403 7.1165795752043595
Pt 6.973075304477604 1.846577203092362 4.703228345409927
Pt 6.4957925295058025 10.235031984952599 3.1455106630662506
Pt 4.207551571547342 5.490632723808889 2.8443533812767066
Pt 7.857655912698804 9.459338517452778 5.2796048064631815
Pt 8.27258994471402 1.9028890328331596 7.05897131331609
Pt 3.017254939230809 3.1292325615654923 3.0302748454862027
Pt 5.294656894904533 7.865448287697271 2.8474568897938664
Pt 9.476411779102868 5.7386103590217274 7.23622981708111
Pt 6.732250279277234 6.495423718175375 4.668135203272134
Pt 4.337366114688218 1.9830844121529339 4.874911529010102
Pt 4.917412596072191 12.324953038023226 3.6559695987665597
Pt 6.11846206205275 11.386250204817873 5.701367230838714
Pt 5.355541900109335 4.385002274416475 5.0095787779898435
Pt 8.611126338628294 8.15517275998661 7.443991930772601
Pt 8.60348880601752 3.810857777504115 8.92684673057158
Pt 3.9767166228435937 9.876734172995587 3.9684324968082056
Pt 5.365092827098577 8.480725063914422 5.717056054490049
Pt 8.042752849780253 6.420213754756592 9.361537229694331
Pt 3.1895029957854484 7.427353242381766 4.377938490700829
Pt 7.328093522631992 10.392047140109835 7.7350671299072715
Pt 6.541087019726591 4.006488449486716 7.298619187218845
Pt 3.4706711000710695 11.67139842580184 5.82427480712358
Pt 5.68676466715276 1.5010289374088555 7.059688368143064
Pt 2.5604061447929443 4.887500421047817 4.889720795174317
Pt 3.3247518323218714 2.6566682476429895 7.132331721420654
Pt 6.450400484636962 6.693764091222218 7.248748501669769
Pt 6.779113346101024 4.420939692701903 10.629492387597699
Pt 2.5786342328865617 9.228900277720152 6.256633618471783
Pt 4.172537382918139 5.277141422796157 7.1091048055698645
Pt 6.181317373212734 8.538530483899772 9.208437598435962
Pt 4.698436418522656 10.17045779032974 7.661163429588692
Pt 6.470845814097165 7.022140800606984 11.363191387962491
Pt 1.878667792666544 6.755583142687928 6.603161534732191
Pt 4.923587605318453 5.949722885051629 9.642748876480093
Pt 4.972611689858094 3.191673957142439 9.217032003233252
Pt 1.2729267263726172 4.2612671212225 7.134924001141105
Pt 2.3367610384247377 3.1853965816890146 9.4325462627094
Pt 3.71944653953106 7.83475316228592 8.242941231528329
Pt 2.411301784981446 5.703304748610446 9.057719381470466
