52
Energy = -266.95449857 eV
Pt 8.676436347210219 9.766621110734055 9.6007365228441
Pt 10.119074524930106 8.923449376599633 7.673722465932473
Pt 6.79540402755559 11.565982589563145 9.31121258091783
Pt 7.346776349478591 10.620182423663548 11.658636257611265
Pt 7.328049851843608 11.15719838884454 4.7334836775086835
Pt 6.170969751004237 12.350867365758488 6.937204205028986
Pt 11.129756370787064 6.46338308544573 7.818703162892304
Pt 11.563800990160024 8.09949325920243 5.672024402036387
Pt 8.383340433723063 10.878525092920412 7.1933844571221615
Pt 9.557272258710308 9.795276139958714 5.0408375329097055
Pt 9.527258160036274 7.31204073661495 9.717142780099653
Pt 9.813482949732588 7.408655275918492 3.8267190486702596
Pt 10.92980396808369 5.553210452776601 5.377012476718068
Pt 6.9493251844824595 8.179806885153981 8.267906586038512
Pt 11.36273486282065 3.8315673377850437 7.361192640016005
Pt 8.366889800016432 7.6831172960729575 6.094702222699603
Pt 7.693032141673358 8.928459903028482 3.3142813679366707
Pt 5.381555411660643 10.170026405688613 3.114718791267544
Pt 5.5588153431179625 9.27979999365071 10.32505139167678
Pt 7.615258082651479 7.97632640321521 11.43288383327445
Pt 4.659405903107084 10.532612076583307 8.175648883028535
Pt 4.463787401558147 10.938745533544951 5.476732479156749
Pt 10.151042638884551 4.720378770555696 9.553952640323569
Pt 9.779656532158782 4.80104190252257 3.185727600344197
Pt 6.273923802833891 9.24016655841357 6.002017996083303
Pt 8.719809067947578 5.3866702590056965 7.073667184006765
Pt 2.8852546522803513 9.292584886717558 6.778365644639041
Pt 8.421912573003732 2.9565775322075942 10.55937430422331
Pt 7.115342046213033 5.720997732806753 9.02984618145223
Pt 3.6440416822191994 8.635715247529527 4.327141145257809
Pt 8.330772164967497 5.515923928840468 11.308789632162705
Pt 9.458963260103776 3.3591072331587957 5.431231606237636
Pt 7.743394909859703 6.334097989499401 2.6481651215637103
Pt 6.304070827197947 6.6894443267262655 4.843351352230173
Pt 5.257380728491764 6.6885496948057614 10.620235837927938
Pt 6.157679065873636 4.992565644266748 6.7356547744974415
Pt 3.6595894316459128 8.17132722175772 9.044743875918307
Pt 4.832471483084097 7.271977544299649 6.925446822017794
Pt 5.417637077621319 7.606163615975691 2.5271106687578397
Pt 9.007084508065168 2.860786273121192 7.956617251000018
Pt 6.510686977902577 2.942607357229533 8.82498642015701
Pt 2.2864942109038555 6.972285161726797 5.844886057101423
Pt 7.45676929309269 3.8896429959402323 3.883147799328878
Pt 4.381783871987089 4.7104162055518355 9.040847241338847
Pt 2.2787704388869394 6.112781183280287 8.427332601852612
Pt 6.017979916363946 4.214201551677984 11.103391974996658
Pt 3.8258510410637463 5.959527871596959 4.025013547468439
Pt 7.03087518622507 2.5585752513216096 6.211386805763497
Pt 5.532497993213914 4.893168484395371 2.4300946714750937
Pt 4.9887523702844705 3.5552593843506624 4.689637177710047
Pt 3.4224805467038366 4.772151733490709 6.466885040443512
Pt 4.5425807958255575 2.5825895010598074 7.186392631659284
