55
Energy = -276.91192061 eV
Pt 5.3190554337168185 7.391272426844764 3.9024640053785604
Pt 7.905944509076124 7.987046717408478 3.773028735492413
Pt 8.27721659856488 10.631145602640153 3.496467824856437
Pt 6.597603190802187 12.302343156774683 4.356040204480732
Pt 10.078780083231093 9.425882560232198 2.267737359944289
Pt 5.968116354489999 9.76904350083909 4.7736211955040515
Pt 7.0598121804758875 5.629284841681423 4.629326892863343
Pt 10.408057321113578 7.4732888819183625 3.847238983939345
Pt 11.700973674549967 9.764821620705042 4.197996120159211
Pt 10.828459936742417 5.404486504351567 5.244519343049761
Pt 8.722159934455076 3.762771075144259 4.885651912198
Pt 6.63106959842555 11.41454641585565 6.85503666437862
Pt 4.03632307931594 8.477503519715412 5.958825001617024
Pt 8.45041447999738 9.372210611872388 6.1128010095827365
Pt 13.256116646895673 9.876858698218749 6.161322667989621
Pt 10.062181810205875 11.303577687598544 5.363504051538719
Pt 6.488803497138521 7.780208140989701 6.64018827154894
Pt 8.816459646392588 6.76689325832767 6.288037091223361
Pt 12.10311021259166 7.616078282251061 5.92696309791671
Pt 9.369281855041049 4.407500737719088 7.292599714256987
Pt 4.689575102081527 5.809963229064796 5.956963769500073
Pt 2.6739021812465325 8.549030790078634 8.089803182120717
Pt 8.417063926984762 13.10194296829138 5.985905436595244
Pt 6.874045006341415 4.073161721826234 6.880039623304786
Pt 10.284703029699227 8.319671981008739 7.741827634868211
Pt 5.18696002688677 9.650852128505843 8.116295651564053
Pt 11.624054110877715 11.069026202447604 7.590936025038931
Pt 6.050192295578823 6.022935718677226 8.441463578015119
Pt 10.04272795074089 4.773038410320433 9.683535810610463
Pt 4.255378629064165 3.737849881828023 7.5084969332821805
Pt 11.490343924427748 5.926196582317678 7.817915625689531
Pt 3.069839396292453 5.980090575187121 7.939947040686011
Pt 1.7634844852324714 6.961894546316596 9.923012791309704
Pt 6.087948173853106 3.0123729290959655 9.105332768260435
Pt 4.253509185377427 7.550309445862455 9.879722881052935
Pt 8.296381046068483 13.196624224445404 8.492919978350047
Pt 9.143159674524327 10.676414210601973 8.219475562348386
Pt 6.852652273960816 11.205126435525921 9.46303916590253
Pt 7.367452529298991 1.8026852485911884 10.899706961982051
Pt 9.019363139862644 3.6083318246087925 11.715257812530774
Pt 4.392158368811921 4.869134674328713 10.140861525717249
Pt 7.882182436240469 6.031218558691471 10.250848512303117
Pt 10.608298553429174 12.28276219256492 9.644421227885571
Pt 8.822117901841981 8.402306199716136 9.88032081685221
Pt 11.154003870217739 7.1569262228549 10.06537236824029
Pt 8.332797635653295 12.800152891689624 11.060819448417012
Pt 6.290415600211331 8.897917302388649 10.413455349664623
Pt 6.525006972192174 4.152193269248471 11.479630634453839
Pt 7.216470845488407 10.592751868479803 12.15288804957701
Pt 11.535980240520376 9.734507823473924 9.888540587961224
Pt 9.645975652985692 10.645181424993819 11.470164919746619
Pt 9.789266812625861 6.03602423568942 12.148525345854203
Pt 5.834357849215293 6.609997631467114 11.736534764460616
Pt 8.051373958477392 8.063918579754734 12.35094438665929
Pt 10.760664608727847 8.504471267229011 12.255451119537748
