54
Energy = -278.51470691 eV
Pt 6.5971576640589555 6.616930736932045 7.968441829570404
Pt 6.626499704722725 6.616930736932045 10.835454939938668
Pt 4.291041420658801 6.616930736932045 9.56000376713317
Pt 4.2229795316441905 6.616930736932045 6.616930736932045
Pt 2.0991382841940758 6.616930736932045 8.193895407399808
Pt 10.450179960994642 6.616930736932045 8.323073325714212
Pt 12.603781247098512 6.616930736932045 6.616930736932045
Pt 2.978970684231059 10.843451937815333 6.616930736932045
Pt 6.5971576640589555 6.616930736932045 5.265419644293683
Pt 6.626499704722725 6.616930736932045 2.3984065339254186
Pt 5.898562150640777 4.424534013215586 9.532623200828384
Pt 8.496570839745814 5.260739551407841 9.528027574463344
Pt 8.496570839745814 7.97312192245625 9.528027574463344
Pt 5.898562150640777 8.809327460648504 9.532623200828384
Pt 4.291041420658801 6.616930736932045 3.6738577067309244
Pt 5.898562150640777 8.809327460648504 3.7012382730357056
Pt 8.496570839745814 7.97312192245625 3.705833899400748
Pt 8.496570839745814 5.260739551407841 3.705833899400748
Pt 5.898562150640777 4.424534013215586 3.7012382730357056
Pt 5.8779943621159605 4.355981009518084 6.616930736932045
Pt 8.542301666586997 5.223225164543807 6.616930736932045
Pt 8.542301666586997 8.010636309320288 6.616930736932045
Pt 5.8779943621159605 8.87788046434601 6.616930736932045
Pt 5.226420929687644 2.3246867686234287 8.186496855833417
Pt 10.273536689826354 3.953485128290301 8.182657623033865
Pt 10.273536689826354 9.280376345573798 8.182657623033865
Pt 5.226420929687644 10.909174705240662 8.186496855833417
Pt 2.0991382841940758 6.616930736932045 5.039966066464279
Pt 5.226420929687644 10.909174705240662 5.04736461803066
Pt 10.273536689826354 9.280376345573798 5.0512038508302135
Pt 10.273536689826354 3.953485128290301 5.0512038508302135
Pt 5.226420929687644 2.3246867686234287 5.04736461803066
Pt 7.804970377513789 10.268135511727154 8.348491885639683
Pt 3.5099099840933685 8.865927658485424 8.347057053189355
Pt 3.5099099840933685 4.367933815378673 8.347057053189355
Pt 7.804970377513789 2.96572596213694 8.348491885639683
Pt 10.450179960994642 6.616930736932045 4.910788148149877
Pt 7.804970377513789 2.96572596213694 4.885369588224403
Pt 3.5099099840933685 4.367933815378673 4.8868044206747365
Pt 3.5099099840933685 8.865927658485424 4.8868044206747365
Pt 7.804970377513789 10.268135511727154 4.885369588224403
Pt 4.562038182845704 0.30957934386408736 6.616930736932045
Pt 11.983188986572877 2.7059812935323895 6.616930736932045
Pt 11.983188986572877 10.527880180331694 6.616930736932045
Pt 4.562038182845704 12.924282129999995 6.616930736932045
Pt 1.4796737871937113 4.45738982126563 6.616930736932045
Pt 7.074085980994006 1.0511804309591817 6.616930736932045
Pt 12.059647740195652 5.338143768370064 6.616930736932045
Pt 9.509240532450576 11.395050025311166 6.616930736932045
Pt 2.978970684231059 2.3904095360487547 6.616930736932045
Pt 1.4796737871937113 8.776471652598456 6.616930736932045
Pt 7.074085980994006 12.18268104290491 6.616930736932045
Pt 12.059647740195652 7.8957177054940235 6.616930736932045
Pt 9.509240532450576 1.8388114485529268 6.616930736932045
