53
Energy = -270.34468411 eV
Pt 6.86021065338113 0.45814228906145177 6.364928078301606
Pt 4.551522577366064 0.7601266372758426 5.121266476293746
Pt 4.56573976019061 0.6607480441869831 7.764607122905025
Pt 6.697887163639006 2.157574937639913 4.2014645533681065
Pt 8.308070245852852 2.6336140133530717 6.489981574118729
Pt 6.830078095208943 1.9725089723832099 8.618367767169357
Pt 8.743603897744356 3.745530362473 8.854299416241286
Pt 5.565048932394892 2.97130616232047 6.458196525080608
Pt 9.847285785550552 4.844077412595272 6.347409602956834
Pt 7.962974274659363 2.9191993120235176 2.0184237313861586
Pt 9.207785646790137 3.405641966550995 4.209415505025977
Pt 4.062029379833888 3.138655797790932 4.177387047874073
Pt 2.9526533669106834 2.529746818232119 6.57985983353886
Pt 10.649672148193353 5.476202832813016 8.795500391968728
Pt 8.102547167556162 5.576032616052094 2.178417629442848
Pt 7.699122781519545 5.376043661289452 4.739862604582814
Pt 9.614478938348142 7.433731670431363 4.875865630394704
Pt 4.318992567117855 2.9852090347384546 8.889986244741655
Pt 11.332441747751686 7.00498299462316 6.786370260786968
Pt 6.976710372963267 4.992976732641619 7.257482907571826
Pt 6.40339773410974 4.391967436452288 9.817344569032239
Pt 5.874305307198275 4.286797786305442 2.718199826082167
Pt 8.332499981118756 6.248932139682965 9.822143329421191
Pt 8.337399378512117 7.247274317161421 7.274855331904514
Pt 3.697617533063142 5.590046686902805 3.2702509982403467
Pt 2.1675351540783843 4.63962051770117 5.270305949410095
Pt 3.934074902808081 5.208067411935562 10.06828089189737
Pt 5.080782868730654 5.5164239455689215 5.52355424120215
Pt 10.212686958299415 8.033356406235141 9.062393775714588
Pt 5.858687823567956 6.986874316727245 2.605562191035686
Pt 6.691256293564511 7.746619497391927 5.093564881692789
Pt 3.0900292788969046 5.066288479409206 7.614826557358588
Pt 5.840739588008782 7.013983857389741 10.096868408300427
Pt 7.654938976394441 8.866448540527156 9.72185540085005
Pt 10.060353443361363 9.337276579784843 6.705628522339505
Pt 5.584021040193825 7.298753539535313 7.487963063113397
Pt 8.224421277365925 8.09529168171506 2.75142037331724
Pt 1.5699837310953657 6.912165251033019 4.229260233093842
Pt 6.960843353632239 9.54970413082695 6.980127503993006
Pt 3.3254311702834625 7.425148680590281 8.896979569120463
Pt 3.7490349609252163 8.193309776599538 3.6321808183663116
Pt 3.2122257827368172 7.461667097143336 6.191175791269008
Pt 8.47982863671102 9.897423318377598 4.606664826476466
Pt 4.246168250435953 9.897587791099223 5.5079812837625495
Pt 9.572544081667186 10.550520451242244 8.994170648966866
Pt 5.107810388304506 9.424014550062353 9.185711605277248
Pt 5.927919923212336 9.615196810170943 3.4856459987860653
Pt 2.913979421558407 9.713724199624064 7.726662274165413
Pt 6.404908333104595 11.484584827756086 5.236409508878395
Pt 7.029154447452303 11.296929611310919 8.923541449096836
Pt 8.71111009336268 11.576376805968316 6.683022488343375
Pt 4.731463691401554 11.534554835987343 7.528474662266652
Pt 6.667883302919027 13.21941419331603 7.177252291981849
