54
Energy = -276.03769868 eV
Pt 9.441395086099876 3.3655256126939936 3.6809514910637082
Pt 11.838034797718358 6.374947008476699 7.1595880225404915
Pt 10.635396982005945 4.762955807655237 5.482018002886939
Pt 9.70761860686185 5.973520997831708 3.2703585559926975
Pt 10.624557974086683 7.566069232097977 5.27726335667449
Pt 7.389240409824079 4.845384877429442 2.5309631918712165
Pt 7.943396564591707 7.318125578884783 1.6112884094243007
Pt 6.923528645823935 2.7310357014435596 4.004531714441459
Pt 8.659272424825803 2.939506643171672 6.265655698720714
Pt 10.114348823670184 4.706094140660085 8.052410780809184
Pt 9.821592310944617 8.584253579821215 3.044652806632567
Pt 7.820577520522824 5.314252733645413 5.123058429080616
Pt 6.617302771523967 1.125064027129415 6.037884062809774
Pt 4.936092867527077 4.375643358928992 3.3552241176801356
Pt 9.966480845165824 7.4143107626793645 8.646807158045354
Pt 8.370205241122608 7.455494265954614 6.56787578865665
Pt 9.639375360832013 10.042355758343028 5.313423528857032
Pt 5.462357972137504 6.765525260412118 2.4826131591741407
Pt 7.437636397812154 7.681670237924166 4.175709907599296
Pt 6.053881008172396 9.245682294804555 1.8304254136151636
Pt 8.948854417214987 3.0542444748502016 9.543224567859538
Pt 6.784328547442039 2.3933972794479677 8.25696730641441
Pt 8.83540734890156 9.671146362841897 7.7996676336427715
Pt 5.784363824725719 4.045717467166555 6.070125145184359
Pt 7.476661458283974 5.097180384631219 7.783633471842773
Pt 4.329344903327366 6.226506721039813 6.084266557400431
Pt 7.792713448571085 10.154806826815243 3.4740915180589185
Pt 2.5317444777803395 3.897117709855065 4.433328726339398
Pt 4.4723871435451725 2.0625066827943663 4.65420195961085
Pt 3.2072994031400417 6.301103642532029 3.705904185707569
Pt 8.555214916656873 5.685353655459053 10.113627131638856
Pt 2.17017637556742 1.7815485640099966 5.908908009588401
Pt 4.372947737828443 2.0763160952456947 7.305590037057687
Pt 6.620148696022212 3.8988386077489445 10.400290783291373
Pt 6.023194969956585 6.41844166820507 10.533697334333878
Pt 4.025176935843815 8.73011784973816 3.4616280387008165
Pt 4.848090839766062 4.97974639937619 8.460400809272443
Pt 5.3754073876690285 10.950123295564888 3.970874481237952
Pt 7.137313155643747 10.624278881948827 5.997771163216987
Pt 5.533666393652131 8.470802802579032 5.613032874732869
Pt 6.009316873171925 7.34714775492168 7.907084747356298
Pt 1.3459474212634683 6.017228287049894 5.532367519225214
Pt 7.779971651739996 8.256037325503174 9.781523250134493
Pt 4.342630842771082 2.7914594223866533 9.793723319997024
Pt 6.250236363166715 9.994132731488934 8.389726511304572
Pt 2.547091213795199 4.137523565416202 7.016321417414784
Pt 4.511601282210756 10.73295314345504 6.576475520557063
Pt 3.508502670530078 6.959908276811281 10.133099818281671
Pt 2.7947041413589404 10.70988959417061 4.645144896022776
Pt 2.2404087568822635 6.68428213695653 7.8692891109994045
Pt 5.213149646992844 8.895397361291591 10.549779294724576
Pt 2.461509503209584 4.637156391342104 9.596150200037558
Pt 2.61403070994513 8.376351384527503 5.827638726201911
Pt 3.7842870403498385 8.851484044089156 8.252939964377639
