5
Energy = -17.86251596 eV
Pt 4.097900383228205 7.246117674795828 6.003229213005104
Pt 4.080831325033924 4.786911592732759 6.003229213005104
Pt 6.542283479502894 4.797568181561946 6.003233213005171
Pt 6.558947378237341 7.201302442214426 6.003233213005171
Pt 8.736189499023556 5.984252173720844 6.00322721300525
