5
Energy = -17.6527624 eV
Pt 7.995554322843289 6.754353837623921 5.42432408234232
Pt 7.6013477341494475 5.639130486794887 7.707875714513205
Pt 5.719158075987107 7.932259889853631 5.630856563927327
Pt 5.876151332143205 5.38616577701805 5.8375066524437305
Pt 5.30564720320372 6.7859486770361706 7.897295655100077
