50
Energy = -256.48970821 eV
Pt 4.607781130810412 7.802607544380968 2.8596780626077143
Pt 5.248475469107297 9.67994932271319 4.616465237142461
Pt 2.744361362717547 6.023287200352484 3.6693348963762955
Pt 7.422531512848751 11.097459721411223 4.27310773721216
Pt 3.101218882149974 8.228511915712462 5.072534978334571
Pt 6.531522051585928 6.996503243725055 1.2331186346887497
Pt 7.0322547555349635 9.175135903893855 2.5995631274734237
Pt 3.7248486147420676 3.614846798108305 4.218259018571718
Pt 4.860618936380374 5.234897402201091 2.3435750999831684
Pt 6.520123457395026 7.238997767956287 4.610412824335571
Pt 2.2597812216666724 4.8439494477182725 6.046308369085494
Pt 6.475415549155957 10.80889397727214 6.721180653074818
Pt 4.049845043400496 9.769657271302835 6.962819834960366
Pt 7.49211958823867 8.33065177946298 6.745631445770377
Pt 2.5499468219870405 7.198648857679937 7.543320543515423
Pt 8.571448135565179 6.984720684403883 2.8796425675422297
Pt 6.350215116265695 4.714028016893053 4.514143401538037
Pt 5.4374259188678264 2.6783787842804707 2.4001212209572893
Pt 9.076623139603358 11.01843205177839 6.3590389084359735
Pt 9.31386428001937 4.59181669669067 3.7540708883706833
Pt 9.032523159917249 9.03717348404491 4.525655475701508
Pt 4.497674784490884 6.142774808664152 5.735790282738042
Pt 3.137073455728365 9.092707266167702 9.343240216388242
Pt 5.936961993596984 2.159310455634996 4.959306469530681
Pt 7.423374090790756 4.655229622440046 1.9497072099804578
Pt 4.11473649900295 3.0333519889623277 6.765143299279425
Pt 8.254100752833008 10.07452528463638 8.666061797312857
Pt 8.362875492638976 2.938510502885384 5.6711831036092155
Pt 5.654232325635566 9.886044491216722 9.089299498049023
Pt 8.002017935222836 5.701616803317511 6.294841929296807
Pt 3.162180992385964 4.761342051603563 8.496636292209855
Pt 2.6957898992671754 6.678891247084192 10.19580155880307
Pt 7.445016035922294 6.7222741054633435 8.823458921346663
Pt 10.13021822862187 6.710822518992775 5.044428241645835
Pt 5.218331975520077 7.573097468282887 7.775517065394405
Pt 7.939992456037083 2.4081712686469725 3.1387262723236646
Pt 5.822674451695759 5.016205765232974 7.682854094310572
Pt 10.08626898762414 8.644378444538695 6.927354641826715
Pt 10.660687621235054 4.222641212226655 5.965899895402021
Pt 4.690231231823879 2.7493267206726175 9.376713985644109
Pt 6.60476900711414 2.482428933115127 7.558468747312121
Pt 7.406591397481214 8.837813116690127 10.81257892665505
Pt 10.343142630604932 6.154564552878838 7.74305085388164
Pt 9.630668087391532 7.982952415666438 9.489464229504492
Pt 5.0104894205283355 7.763501123671381 10.683074819312758
Pt 4.831914607680623 5.124908175330141 10.49639938146748
Pt 8.988254810138967 3.8103420137990573 8.010346162085048
Pt 9.280704803762 5.3733676143405855 10.102872078952842
Pt 7.066695367905994 6.226181451551622 11.333750853290287
Pt 7.071448811024971 3.8630350482237574 9.849821109793123
