53
Energy = -271.02225701 eV
Pt 1.6539967868614298 5.412523904621343 10.228928930403647
Pt 2.7214278425285716 3.7440134611199287 8.480291752725028
Pt 0.6563513809047676 5.082631491853821 7.759510964057197
Pt 4.788462306910745 2.52054231655519 9.316851127921822
Pt 1.4757651292970742 7.515281877514508 8.633907340994083
Pt 6.429584007406762 6.024242019910885 11.454184142944952
Pt 2.2551290274683518 4.217788626827595 5.888490080174073
Pt 5.973351795824866 1.7985609789013843 4.985037101085187
Pt 4.312283525133671 5.016840254645704 10.169473462263452
Pt 4.032646950639348 2.2220604608860195 6.711517924920598
Pt 1.7642199550020357 6.76728887545497 6.0214178731144115
Pt 3.292810247700275 7.340278038283645 10.654539542030376
Pt 6.642575265536098 2.5285189440441105 7.482783739917281
Pt 2.0591446743732944 9.289514159924918 6.670901992793703
Pt 6.7546649972407655 4.175573613142942 9.540106570988991
Pt 8.574004915924348 2.5102372634518333 5.691513684176249
Pt 3.811228964851447 6.86330953130257 7.697266522422895
Pt 7.860492202630607 1.5536622073696118 3.2647197944913287
Pt 4.048769732006978 3.370853008952258 4.226986943127294
Pt 2.706251212729912 5.7022886278198515 3.7186442134784468
Pt 6.025342311410472 6.989864363142877 9.10477513835176
Pt 6.900068899699642 4.3265165233303104 4.872854078587157
Pt 4.7836453260720875 4.779695115826527 6.5905744843073935
Pt 5.297041207198889 8.916059657311454 10.66936656422996
Pt 8.952412285470585 3.801509743125709 7.951936567824438
Pt 8.553094948134671 6.015065880635778 9.77817115615263
Pt 3.592697858496736 9.275660590424637 8.718255959141475
Pt 7.252687337178545 5.620558495414772 7.1713307300513405
Pt 5.191603761714145 6.225941335958767 4.471806315648104
Pt 5.871092111432927 7.728288344328838 6.479929045362072
Pt 6.156876599963626 9.767231098048672 8.347370452310665
Pt 4.710676661040354 4.837937333066478 2.1821191938930995
Pt 8.282116581205862 8.178405590302022 8.216066389686363
Pt 10.095094901498227 6.285124094242542 7.715714338163773
Pt 7.18133777573157 3.9173397583094096 2.3733963579278425
Pt 10.4333919686499 4.370845379061457 5.843969249264167
Pt 9.69138228379715 3.354150198155484 3.396348141765103
Pt 4.237491548982579 7.486777648107911 2.2905607351660344
Pt 3.263796062460097 8.296966659577226 4.577836566087539
Pt 4.680041905696858 10.013743662066846 6.104870820345423
Pt 8.640610259270437 6.206014535149615 5.033971837852933
Pt 7.531216498641961 9.803301507110143 6.161833092140613
Pt 7.089263508180544 8.031443320790137 4.1330153556542655
Pt 6.7163187159904165 6.448592022527438 1.8320834523605205
Pt 9.807715677647526 8.390838504519008 6.09993227968508
Pt 5.215213032886369 9.710222568495656 3.5238346596798937
Pt 11.7808125423211 6.668439834929525 5.742952428648059
Pt 9.150578622937067 5.7411891592685995 2.4439111043731487
Pt 11.490928943751417 5.204210543210557 3.5560501509247753
Pt 6.158483773764809 8.987732863404355 1.2107528290595169
Pt 10.560298730449128 7.6942485016024715 3.5880920602231043
Pt 9.080010563037886 9.83646678347098 4.034176026922202
Pt 8.569406827013978 8.275115616931716 1.9438070018255504
