55
Energy = -284.48103682 eV
Pt 11.095151507648914 3.7037219598055713 4.381998205832148
Pt 11.11704226166019 6.346161245597515 4.32616537251644
Pt 11.079198023444103 8.944970760525576 4.308269319696719
Pt 2.0238264399826758 3.6754255555533653 4.315884320239787
Pt 1.9487433798584506 6.307979240757531 4.283152363210712
Pt 2.009951056252991 8.92632362393752 4.267165698860045
Pt 4.2658809801893245 2.3653780434691187 4.323122986421884
Pt 4.273626010874843 4.994798885359651 3.8564077140687214
Pt 4.271518744561995 7.617474428144506 3.8960814025373565
Pt 4.23075417950255 10.295493575390342 4.282536699364257
Pt 6.556009188457473 3.68290853663659 3.8556812306993864
Pt 6.576326348595268 1.0807796267025582 4.384942460725323
Pt 6.536995139259288 8.93980616600604 3.892311670490824
Pt 6.513883624548178 11.559133911526066 4.262102873458257
Pt 8.834082158524396 2.395266593017644 4.358071123683905
Pt 8.84221532595493 5.012107199981637 3.8632257096022844
Pt 8.819414853421478 7.642654035788855 3.8547430466238644
Pt 8.820086064596554 10.310429372370725 4.270401817928462
Pt 10.17139847303437 2.762385682795987 6.676876015085969
Pt 11.476842509872041 4.9791042310858815 6.662831469905018
Pt 11.470445330146143 7.646956296205827 6.5970650914002436
Pt 1.589778436566742 5.010742643029939 6.566872050678855
Pt 1.5512987360109307 7.653542041483576 6.563177495400028
Pt 2.894361797928482 9.951957101985183 6.558412478017298
Pt 2.9576282752725884 2.68237899725854 6.60348682358643
Pt 4.230440919454873 4.986830989821026 6.478185935929831
Pt 4.194887376863178 7.649829331038447 6.509603667576618
Pt 5.189344997119903 11.28976918575283 6.556422280973802
Pt 6.546342482730019 3.6450300523285217 6.469394090498239
Pt 5.273890639255981 1.3732381948017307 6.656097614945164
Pt 6.542552536328949 9.01978270418286 6.505987186072741
Pt 7.850020271122389 11.317863545122917 6.555332194371351
Pt 7.851169690175208 1.411561427270509 6.678564089072307
Pt 8.87381020391831 5.002061578953985 6.4722894572827965
Pt 8.842828459435546 7.676220014749405 6.476937115158974
Pt 10.127945148436334 9.986393837157898 6.555288444493292
Pt 11.156672029340005 6.331306889888764 8.850729472484552
Pt 11.078289154559993 9.015411275653005 8.838462418811707
Pt 1.9743061681828942 3.712201450960868 8.84464495087268
Pt 1.9413129945988477 6.312669688897621 8.849279117663645
Pt 2.0350971198707386 8.912094728468478 8.866362479938942
Pt 4.2783830130994644 2.3118091642389476 8.855547048031527
Pt 4.312297824763471 4.94231326467052 9.091117704052458
Pt 4.280773030433001 7.575844455631113 9.130781365286115
Pt 4.2498756291771205 10.270732330416973 8.817489656930732
Pt 6.5864440851805535 3.6296664225278827 9.04214357855766
Pt 6.56959750494866 8.909392764694848 9.124297009804216
Pt 6.524270462612838 11.533198590338232 8.857777526846167
Pt 8.856446537873694 2.3526148236470954 8.872341179730844
Pt 8.879544941302722 4.961767356454494 9.041963479960405
Pt 8.846219913076798 7.5869434078576266 9.09095853854272
Pt 8.824525194614672 10.311497444435842 8.842977917525856
Pt 6.549504331411236 6.313943101209739 9.107422076110948
Pt 6.537214151493484 6.332151175648816 6.447410602484597
Pt 6.5489365098072225 6.3173832161169265 3.7826085273087346
