51
Energy = -260.28987943 eV
Pt 10.620859867457156 6.248148968078016 5.0937173254738735
Pt 9.873421679519087 8.795100693991069 5.5141953522373415
Pt 7.729791887190605 9.956461293546786 4.576070465718086
Pt 8.452758192365737 7.306150206020621 3.874554400714441
Pt 5.707025316861695 11.031352348412808 3.442815086137126
Pt 6.203244847451885 8.425497018855685 3.0401712540174373
Pt 11.185177574798328 10.188281399238011 7.3630053011970436
Pt 6.557461302344966 5.757863311345108 2.8504712040793936
Pt 11.720360856951352 7.64086841424025 7.051824726841219
Pt 8.555146511601379 4.691317324299991 4.146135035281034
Pt 12.193114545600475 8.898192576291816 9.36478749114377
Pt 6.084021940195773 3.494837935344105 4.18821041567584
Pt 8.261241222820711 2.168378175505065 4.958591459389439
Pt 3.845158818599814 9.407377756401507 2.4388310079659132
Pt 8.625327218377478 10.548255059748852 7.12210553968846
Pt 11.905751800284353 5.042624109183169 7.1575340472573545
Pt 8.584039590911203 5.811806116030563 6.57892883960399
Pt 10.117016112589042 3.569373757065595 6.018612457510742
Pt 7.325400214297849 8.088882563694924 6.389483419189636
Pt 4.320716411215896 6.829273190011976 1.9755804410122744
Pt 3.906826692381378 10.041517579396965 4.9584077580099315
Pt 9.300730994587303 7.599457818728198 8.258671505489314
Pt 5.528246518473062 6.752664852500618 5.066674937486828
Pt 9.648303666212968 9.796105076882606 9.572765529436536
Pt 11.484905753374528 6.299609120394602 9.422199870429013
Pt 3.041660309985667 7.564887180322839 4.16521315697906
Pt 9.847149756473138 4.307978981540267 8.60209900180104
Pt 3.923874906087594 5.036035068301956 3.868520630050563
Pt 5.9618974958686355 1.7086506504639245 6.181493123523091
Pt 10.650997146101288 7.9757521239243 11.275888017090729
Pt 4.842178075877356 7.84099553901894 7.312055293042692
Pt 6.78602224321441 6.436821447776363 8.437796931215729
Pt 7.094718250664672 9.494614028444824 8.977041726023375
Pt 5.965417311824934 10.400384545988995 6.649507109854925
Pt 3.192803271928536 11.04770270730037 7.168768145216782
Pt 6.248520222261045 4.768393176739363 6.487691783199986
Pt 9.165498441459809 5.944329053969521 10.563830505897615
Pt 2.45349955970042 8.497425783958395 6.508115098775297
Pt 7.915743778249493 2.833680810414825 7.536538858288802
Pt 2.9013810700349967 5.898404138544682 6.186918772214331
Pt 4.020305541579928 3.5162507884817202 5.995264963349659
Pt 7.476140655046336 4.173043294953867 9.732343431873407
Pt 5.407422896724344 3.068772298249726 8.405509266062218
Pt 5.4845122497858165 7.843571827326669 10.363895990009631
Pt 8.021758030027259 8.264251708782135 11.08985053276061
Pt 4.569074418155152 9.853266665230056 8.997461815452267
Pt 4.910381508875441 5.20754642428064 9.95074197913438
Pt 2.0959439307671452 9.273255770268833 8.97232194157281
Pt 3.077303969564081 6.894984137967734 8.902561598365175
Pt 3.120888733917395 4.381313786340776 8.313653087809897
Pt 6.790662507747384 5.932407570256112 11.620209309532509
