52
Energy = -264.0600405 eV
Pt 12.316930203812845 4.706304288942629 9.442032117873563
Pt 11.27910605553469 6.5736464878910175 7.8631303945667215
Pt 11.95337671802552 4.352558421271922 6.799477252334307
Pt 10.470785048224801 6.330507551489589 10.427235414145603
Pt 10.231718564529665 8.265691868298548 6.314798900451208
Pt 9.91517117192939 4.910535281655436 5.240330412337861
Pt 9.997195859913996 3.67962445068712 9.82801828984275
Pt 9.736165460208142 7.180659007782707 3.9063736756300114
Pt 9.879519333109348 2.936785295509347 7.149660143108037
Pt 9.980484527810784 8.594479023459412 8.94342882406278
Pt 9.121003658947838 9.946690873910415 4.649041079172875
Pt 9.174762977283882 9.102254171588973 2.1290887303021155
Pt 7.907042944372141 3.1138468750297044 5.299248650142813
Pt 9.04952007623592 5.255178831121231 8.04781319853185
Pt 8.551453175089188 7.866008052862786 11.193381008213308
Pt 7.507497913426378 3.173181997311178 9.072151197170848
Pt 7.728575798139677 5.168397185371576 3.7072912110212983
Pt 8.138103936294806 6.70043415353853 6.164265440211983
Pt 8.54846445293928 10.120818637662868 7.1991218780987145
Pt 6.090855420659313 6.881742447942407 11.285244426466296
Pt 8.08288132216086 6.729552111010238 1.6977761061977266
Pt 7.498946544132082 11.071340565083899 2.81514867191819
Pt 7.986855990422938 5.212820977525858 10.687040226695478
Pt 7.307378013923388 8.207156733212797 4.058578500984836
Pt 7.741256493321819 9.928139284064232 9.728607429601693
Pt 7.869729638994133 1.35523154354751 7.255454944992637
Pt 6.202854100363867 8.515030216154745 6.58925825919936
Pt 6.640683721427431 8.921539704431119 1.384088865849711
Pt 7.6496801202800935 7.40589553942402 8.697660562780884
Pt 5.404163048977676 8.743928494459153 9.646592397160841
Pt 6.315285734892014 5.348673841244461 7.819758051379216
Pt 5.462636237688521 4.596609007366789 10.122847830364982
Pt 6.003464694663381 10.763186933241517 7.9163583553449
Pt 5.5198171766011646 6.8314512152095395 2.597869941251231
Pt 5.589219712415827 3.805052039321279 4.328113052671373
Pt 6.780969773304821 11.029888520723954 5.3880438262115415
Pt 5.662900155585971 6.261975645033923 5.325241932358134
Pt 4.335801750123315 6.934217195207932 7.478738972729063
Pt 3.8153297647744364 6.681825716090869 10.071748430630787
Pt 5.795825733649991 2.9241568771026576 6.8688694008758695
Pt 4.262338671493893 10.103627324943817 5.858030422201563
Pt 3.6260178630378226 5.339850476239926 3.561126206974689
Pt 5.324528740050231 9.744775655612079 3.5098303331687317
Pt 3.511144831968592 9.931869962528802 8.425070778276124
Pt 3.860212716130798 3.3772894895118255 8.590002682716014
Pt 2.370792809271876 8.466545670512122 6.571705509662559
Pt 3.7121936510903986 4.327737644313835 6.100793376686154
Pt 3.644367439136929 7.9549044111369005 4.288946563012811
Pt 2.3226105846522964 5.350234775045586 8.12208481641955
Pt 1.8626023800052962 8.021907525556582 9.112961372422939
Pt 1.9351054496974274 6.156178207708304 5.316504944849259
Pt 0.3879372119267185 6.818704199349518 7.250719915433671
