50
Energy = -255.80950987 eV
Pt 2.5336288897712236 3.7071371476643353 6.068496144095244
Pt 3.2925596814731724 4.114884280447301 3.6007107763295547
Pt 4.933699670459681 2.804761841111114 5.363871822825758
Pt 3.2972241026211635 6.793647794722925 3.1505773501280157
Pt 2.233844304281135 8.040955965325026 5.146054625307153
Pt 4.743718951154592 5.226617510325806 1.5586330019445336
Pt 1.8207905163268234 6.116798618557831 6.78608669306254
Pt 5.894403247655612 3.3577497123685287 2.936101389446399
Pt 4.188045259551494 2.782507936350694 7.909525763805407
Pt 7.112137648908432 1.626046833993513 4.504070924642977
Pt 2.2289081745710924 4.257163091230143 8.673900830926213
Pt 4.270341050485337 9.29232360636767 3.7584573107289287
Pt 4.4113588313762335 5.477969810244086 6.9551387088336565
Pt 5.7056957686386 7.561785530439465 2.3246805202265333
Pt 5.8071940703924065 1.3384051313906424 9.213039337153939
Pt 1.895700697466851 8.585661133125 7.7439615021791575
Pt 3.714029929416471 9.965916582139524 6.4709113740267705
Pt 5.252466398189182 5.559085997251399 4.4544385461388405
Pt 4.732634843177288 7.724406427585463 5.727404475130028
Pt 7.344844287134314 5.4575766167995745 2.2264508156091947
Pt 8.47259243222535 3.6721204997964603 3.8346633850131076
Pt 6.887682230740935 2.1481080068608147 7.02701030124004
Pt 3.180672139507208 6.651168283918758 9.025739348530747
Pt 7.162292553135567 4.586749803571272 5.90089711789707
Pt 4.817317398694364 4.621848335846388 9.76332637663521
Pt 6.600653468890028 5.924457378438172 8.188958934143434
Pt 8.324381050846002 7.888498926998995 2.027286252044526
Pt 9.128169659503078 3.487638555381139 7.32037467063107
Pt 4.147025662104665 9.0814179120278 8.985497128816942
Pt 7.234020412302862 3.4407549691652197 9.291412677805399
Pt 6.947285039745105 9.554102393754802 3.5189082704616084
Pt 6.956796322127504 8.256467947072085 7.020193235501072
Pt 5.63258578219796 11.089757497508561 5.163928092533496
Pt 6.004510918161719 10.594173480318359 7.7171155052401375
Pt 7.081922983722519 5.34651694989619 11.105776576383459
Pt 10.513794776468055 4.44676900553151 5.2901151696743085
Pt 7.346930002838409 7.054312467112105 4.673971358398562
Pt 5.412761160770481 7.199356130534354 10.290554192711678
Pt 9.571616940935602 6.063135540267576 3.5077745533196265
Pt 8.754829069724325 6.3890254573409315 6.8581543757851
Pt 9.129063290927618 5.260751928475687 9.463636992590907
Pt 6.4303616527067184 9.612929233226051 10.096064276440986
Pt 11.119852430700274 5.198481290606002 7.730342364638427
Pt 8.538205765146792 9.69268292098794 8.515092569318213
Pt 9.41723016130725 8.719258843884544 4.258402639674536
Pt 8.009985836111143 10.366086147598873 5.877680521509699
Pt 8.068273737406404 7.573409977617782 10.05718458954279
Pt 10.921427893161491 7.0335513443610935 5.697774417467347
Pt 10.333170227366388 9.466282999973375 6.577139036180543
Pt 10.25477126520962 7.637428661333924 8.484149768769871
