5
Energy = -15.8037555 eV
Pt 9.785971680617665 6.917839379731637 8.65648700381688
Pt 11.686493386123455 5.730740918761586 9.23778916855037
Pt 4.492428009754238 10.682197584992968 6.398700562328701
Pt 6.159098418682162 9.348982822145585 7.296680495163977
Pt 7.899730853129258 8.086330178354235 8.08457004064247
