53
Energy = -271.09787214 eV
Pt 2.26688507916311 6.350265887336385 1.8927118474901468
Pt 4.676373061826299 6.750522682945309 2.6640568237220403
Pt 5.159659792255797 0.9634792650043829 6.934090452929053
Pt 4.616523520242572 7.4379095162766244 5.738947300591171
Pt 3.9676820055985877 2.2577388321390233 4.944341213193363
Pt 6.618372018646799 10.954759645068075 4.5627037462220486
Pt 5.473385013024245 9.55745694255195 2.7849686003176926
Pt 3.2153111781161665 2.5050238881462463 7.991293534297991
Pt 6.23173850177612 6.072028652194715 10.401585651078795
Pt 6.947580909377554 3.973529384664227 8.590273890383905
Pt 4.271983134806597 8.393292449109339 0.773468088974613
Pt 2.489402653695407 4.331807304702249 6.095841632387059
Pt 6.762999112729758 7.087564728737811 4.177857283439568
Pt 8.303934883159663 9.488966845704105 8.562439956316945
Pt 5.431091121805856 1.8906026529868263 9.419268833578313
Pt 5.917455936552071 8.398265914334498 9.147850978666465
Pt 6.770949068876027 5.201511956506323 1.7743038099519552
Pt 6.727471874075923 2.197249264479227 5.150758080580932
Pt 9.121288417949334 3.1267005982694185 6.0046106908741335
Pt 5.439353018924663 6.083202873170982 7.804301593510968
Pt 5.106447581583966 3.756939192671343 6.843787402093725
Pt 4.258915188586548 10.04361090874816 5.159671923225394
Pt 8.520267938856113 7.054003863521924 9.446989991677164
Pt 7.061023818841547 7.747797089303583 6.642793083392719
Pt 2.1979567799888517 6.872877582838217 7.155387642004974
Pt 2.944561588929888 8.73477225366585 3.1265587845800855
Pt 7.597615590213858 1.6427387107925011 7.627480341315216
Pt 9.698563291208151 5.625341221551506 5.212746433461191
Pt 2.2327544825610937 6.5009850140861465 4.549964255162312
Pt 7.226816779512914 5.14728950324017 6.114898094115739
Pt 5.027162650378373 5.131215814552132 4.6028742912647385
Pt 8.598267021826965 4.618290636268325 10.44831725386611
Pt 7.971195503676204 1.9324360739599264 10.336200847965658
Pt 9.653986407712535 7.636104844746266 7.111834630772224
Pt 9.376031517523746 5.135311184069509 7.828557115444786
Pt 6.964270624778446 7.807237206577707 1.2771866267268785
Pt 4.242894751965348 4.299897005781213 9.85838656909538
Pt 9.765714205060052 2.68997398520652 8.596882797396722
Pt 6.235182397578687 3.564118521828141 11.365842346942825
Pt 5.592015755590623 3.1675586202993906 2.988993341933536
Pt 3.693099286170066 6.9216697494707695 9.441698209680068
Pt 1.9954314518154221 8.905681719914558 5.600331469052646
Pt 8.546064283417259 9.745896845963347 5.8549718204413095
Pt 6.151250622175615 10.167529226355029 7.07573201435446
Pt 2.08840284246492 4.833518731109736 8.652187788267657
Pt 3.7732259581885006 9.028082957147436 7.690686076317465
Pt 8.855740981470525 6.507316152454064 2.80752375346616
Pt 8.057284555034943 4.016001802702953 3.726448333416796
Pt 10.144100275448448 8.095486132674356 4.53370596980062
Pt 8.076358283209304 9.136856997360276 3.263120232994997
Pt 5.461377518284047 6.353120917749435 11.365842346942824
Pt 4.236893826581603 4.600813194059584 1.175269680205198
Pt 2.865794861927266 4.1837559801661595 3.447454448209872
