51
Energy = -260.56607666 eV
Pt 2.3921174576748867 4.0547323422057 0.8166964933003052
Pt 4.714345223786599 5.254083064223497 1.2682253840449749
Pt 4.6281808558936355 7.713279965302085 2.4481938459394423
Pt 2.4605036655564514 6.604905781347582 1.3592367265002296
Pt 6.864379332993032 6.315673150280136 2.2528588775198335
Pt 9.148587754421131 7.327010764460215 2.8722827231083246
Pt 6.437470053142394 3.676876045431441 2.4243727125335153
Pt 6.879669320728235 8.90841347759368 3.189811303709258
Pt 3.8276862411633723 2.994698034915246 2.7287339976674754
Pt 8.83761209176886 4.675097366135806 3.0895574899283944
Pt 2.0018458694841463 4.887916386130112 3.33010153559502
Pt 4.241983679758867 9.282461433492886 4.501677464547352
Pt 4.547062193274917 5.34308655621086 3.972021914177887
Pt 2.288982608059891 7.584374116803247 3.7655567523149314
Pt 10.587491961367476 5.935325391113881 4.644276470635528
Pt 8.92558264501377 8.984292243508563 4.856723815276556
Pt 9.453912597970191 3.681107172361104 5.513068985385009
Pt 4.370737724347845 7.219998891190162 7.068399479741794
Pt 8.03751282458295 2.1850490533496663 3.894431171100032
Pt 6.948646460847836 4.758623020521471 4.9751585458003404
Pt 2.153896193385809 5.7768765449248285 5.7026277067955355
Pt 5.48706867114268 2.433356424937429 4.6380477986403
Pt 6.587803442582886 9.896493134749123 5.759691657784389
Pt 5.9258097339675855 7.354470163615704 5.0375231499668365
Pt 3.0032714512908667 3.2322805309468805 5.297780861187074
Pt 2.2372796902444856 8.461099592387297 6.191546372547208
Pt 8.466751407857837 6.688264840144551 5.897780708991937
Pt 8.766245543120792 9.494272342651104 7.485131754594259
Pt 7.415313942903181 2.155254301945333 6.43378019986022
Pt 7.332501607737261 5.00998815087204 7.597619556247765
Pt 4.880383532955305 4.7957824478870945 6.559198465198958
Pt 4.727222090107892 2.2773921056405517 7.198736082713042
Pt 10.561901164600206 5.361982365736392 7.239979649650541
Pt 4.275571149979252 9.901650555724672 7.110177069153479
Pt 2.7359256056959924 4.208139000394109 7.856132073843786
Pt 6.811501368487278 7.618047689092836 7.644320067457756
Pt 10.716043610845118 7.964869017220343 6.517349585695888
Pt 1.4033294090293125 6.577937622211962 8.009648526558605
Pt 9.189177429648018 3.2375029721865474 8.12468677198827
Pt 2.495194597894148 8.817125255825392 8.834807418557492
Pt 6.510470296722683 10.571583706635687 8.313865193453859
Pt 9.597474762976182 7.347782248443312 8.79649754177085
Pt 6.7910898890217 2.2269356613444375 8.906386975390076
Pt 5.09260298204521 4.230338317267577 9.236009793108302
Pt 3.5961448080619545 6.403865532298724 9.423587348752566
Pt 5.015994879996817 8.773312157537417 9.524587338059998
Pt 10.221993307856918 4.9928748360805075 9.807746060519053
Pt 7.603840648286365 8.817239505137811 9.955219724341031
Pt 7.625007794378876 4.353907139410888 10.1450145218457
Pt 6.062869559807788 6.478253909385324 10.230752140417655
Pt 8.581221707786746 6.619330513040624 11.017595038335028
