54
Energy = -276.15871016 eV
Pt 10.046992641713377 10.432727687789132 7.404977082550068
Pt 8.265022402733118 9.325716272735527 9.11672128245261
Pt 10.026260658464176 7.793462096980318 7.328570360700517
Pt 7.719900729473699 11.581486254273386 7.7221845054765605
Pt 8.972926330198412 6.5514789798854025 9.3569400232455
Pt 9.832677105407502 5.212405096380751 7.249603132121303
Pt 7.971612199890275 7.876822538105483 11.342980507042967
Pt 6.941692814657881 5.516901826828804 10.782603241800764
Pt 10.165478078794134 9.223154736933093 5.026943715726909
Pt 8.14602220836359 4.026964671659074 8.934989670804624
Pt 9.266572246643099 2.642685835668003 7.05355157155341
Pt 8.854472786818718 11.563676053672488 5.331650844490738
Pt 5.721302341954452 9.937664033917494 7.943273898946696
Pt 9.74099513582317 6.5549194895772445 4.9948529056629445
Pt 7.8496658401430635 8.947833178679444 6.370193054765813
Pt 5.830241356749618 8.481153767026784 10.098038041087237
Pt 6.797805990148484 7.14996918239429 7.978452646075548
Pt 7.429474232151926 5.437496267150951 6.165109025604374
Pt 6.952459057554205 1.8919811158447994 8.019307542805823
Pt 5.960137776330166 3.169847062307014 10.12687117231046
Pt 6.23166849475208 10.875947479924811 5.5536661790362825
Pt 9.061034686264989 3.9419490766882097 4.7765268645241905
Pt 7.813758533557159 9.755642953371687 3.68775808851133
Pt 4.447877064239555 6.309355516380962 10.134006692399387
Pt 9.635745012530473 7.952358157911064 2.827090948586569
Pt 5.4888530976131955 4.939665790957671 8.191114292317529
Pt 8.515788341151891 5.572509476246579 2.805172963690708
Pt 4.682019793640701 6.781387161097025 6.4548111474605925
Pt 3.487782222873613 3.854725782100324 9.838587914433585
Pt 3.7771763515045818 8.275949536971098 8.466404203919794
Pt 2.6584452766491533 5.82978663362272 8.22778378053564
Pt 7.400974543766193 1.9718092606965765 5.349008610122393
Pt 3.9946903699402485 9.48500557277475 6.039923706216176
Pt 7.1135822390952645 3.397055559901741 3.1663980647375225
Pt 6.4442998853284905 7.475956423883977 4.668537043523889
Pt 5.207109766462955 3.1740024765649713 6.383555193793752
Pt 5.108933568532539 9.57368084161207 3.604309989274307
Pt 5.431153171522931 5.035446457764148 4.542422410974331
Pt 4.378117889185852 1.6160439170984038 8.486680912320992
Pt 5.574447487183943 0.32184254364812825 6.361612021301478
Pt 2.6580223243035372 3.2980989591314938 7.426610131263418
Pt 7.195532426482719 7.731589314587585 2.086256928960629
Pt 6.081655359245182 5.348810446888643 1.7180968077186636
Pt 2.0603559091070096 7.662295648973375 6.4174321284492635
Pt 1.227697144275133 5.037273401778076 6.171759460230496
Pt 2.765411276458706 6.101173055035944 4.4023960684389225
Pt 4.978301548529199 1.6876085888352756 4.137024662332675
Pt 2.6257454616310163 8.693843671604872 3.977049538329705
Pt 5.099248647684836 2.647046717730527 1.7524119165064855
Pt 3.0007599967093235 3.482855512770731 4.7919089297784065
Pt 3.121314333834875 1.1158575197750908 6.045473579953498
Pt 5.259339624896265 9.03002421998023 1.0990994929171853
Pt 4.359143761324718 7.155049592242748 2.633833172603328
Pt 3.6780881616441325 4.602650109585392 2.5091057712578104
