5
Energy = -17.85469062 eV
Pt 6.16615507154777 4.885840205728752 4.933977534422488
Pt 7.639778260687927 5.858715573755775 6.640268342593618
Pt 4.521426881251076 6.655228130784579 5.3954410978137854
Pt 8.140154543035612 7.512249951863678 8.432363484056237
Pt 6.032485243477321 7.587966137867159 7.097949541113696
