55
Energy = -281.2761638 eV
Pt 2.520156053317676 6.643008151280599 5.110665308167489
Pt 11.12092452339897 7.745113581644308 6.188831118902749
Pt 8.754635804700694 3.5874991210174643 8.499690378149056
Pt 4.6669265526065535 2.2859435845471556 5.728767140384012
Pt 8.739037265814286 8.0511978479659 8.226923613507484
Pt 5.348718524679272 4.134810408821988 10.433181178151662
Pt 7.443960397523214 6.342899816577652 4.09739893679873
Pt 5.9841705321710075 8.743723983864891 10.20898066270592
Pt 8.902261515092691 3.7012488533269408 5.833650341264345
Pt 4.921676011137229 6.450649987833904 5.894197803712753
Pt 4.477586819117091 6.323307903566852 3.155202891690758
Pt 6.063620317120043 4.27817446555549 7.7735751942060425
Pt 2.145594285587599 6.69212318535475 10.381804851281958
Pt 2.1891151110051137 6.695353848604645 7.731781942564728
Pt 3.029936099851064 4.544700534848315 9.250353132820468
Pt 7.341549086375302 10.64629675695503 3.896315607672696
Pt 4.945397970155184 10.83700183553298 2.97238033295777
Pt 10.651512507497733 8.213930349473072 3.6280687340316478
Pt 4.881996155189515 10.720216410238477 5.578052140272227
Pt 7.1474827535705945 2.0166629969931993 6.992627056298186
Pt 8.67778881146835 8.220838732350886 5.55594648875185
Pt 6.798521801987988 2.0939198364714966 9.590456206230286
Pt 4.375134508707263 2.4978066839779114 8.35512602842008
Pt 6.304259351698682 8.323540525367276 7.461409428552912
Pt 10.224374517860978 5.479861895341578 7.313626549673936
Pt 10.185121104003011 5.731434091959086 4.656772840309692
Pt 3.4815747036535596 8.650191021068999 9.29087120700249
Pt 7.2623128177729015 6.111832954032441 9.319480938487057
Pt 7.611020801291914 6.070573611072731 6.687664838339166
Pt 7.924596851752731 4.0611646770099386 11.041263374233232
Pt 4.6069967299890475 6.599503254705681 11.126135793005082
Pt 4.783803464201414 6.440766760320441 8.499186413112824
Pt 11.149563185082942 7.572118467415587 8.81829930049164
Pt 9.876407957963972 10.207220598238562 7.3451336629204595
Pt 9.745722180390752 10.457650283298504 4.782421040472146
Pt 8.546893427176553 8.236204427233519 10.819569862212834
Pt 7.690511233299367 10.466939372751408 9.193304493701138
Pt 7.352671520713979 10.770024047976056 6.60117042848769
Pt 5.650475050620797 8.481853259378282 2.1864704098020717
Pt 6.093403775194034 4.338101600544744 5.142779698461521
Pt 5.112782921332917 10.434001589728833 8.202374914646688
Pt 5.831397727941313 4.0235943693667835 2.610211615091281
Pt 3.1862052416473317 4.39237919141696 6.613378831980136
Pt 9.725787845598688 5.654669031198121 9.937696642788147
Pt 8.56219930395588 4.147495543316765 3.191391335828096
Pt 8.245391875311253 8.510953147113664 2.5928447357826907
Pt 7.046720261186764 6.444969014861867 11.897131509915534
Pt 6.884345580127486 6.248292726027289 1.6379727623656994
Pt 6.158999255276867 8.490712411878492 4.836622613683369
Pt 10.306581769574475 9.883682226190848 9.881274715364526
Pt 9.589111636012523 6.294057021212191 2.085798855749086
Pt 3.414755660644639 8.792791862128572 6.649508569634459
Pt 3.4652682717626595 4.121628537986653 4.053854683441084
Pt 7.149895485047514 2.194498102247769 4.330823982647005
Pt 3.5925695262181865 8.790289943186375 3.999001305251952
