52
Energy = -268.06332046 eV
Pt 5.008906049028884 6.869661612041116 8.071531582832023
Pt 2.5423168400149776 6.870169205669214 9.54193193065482
Pt 6.876447588361689 6.870634439205583 4.881298098567716
Pt 4.612588995743381 5.523864349413026 10.49630558062881
Pt 4.61311418129183 8.216389403927716 10.496434142892095
Pt 6.8718193537142325 8.539522518228502 8.609437217644308
Pt 6.869752211334341 9.46675355696892 11.205785092008908
Pt 6.871623872759723 5.201300583922237 8.607773730615595
Pt 6.869835064742547 4.272770172710903 11.205234344432137
Pt 11.13896842452285 6.870661522724352 6.855247090153893
Pt 8.733329976862125 6.869604143190417 8.061895134862876
Pt 6.8685605222030475 6.870465606747274 11.115245302223697
Pt 8.318914260320994 3.1746725042823614 9.283053667384955
Pt 9.124409519409694 5.524266312070181 10.492777560102319
Pt 10.601650447281592 9.141177030898396 5.551475583875308
Pt 4.262255317725649 11.128192746779137 6.9985667507944775
Pt 5.540279832328164 8.621289522688414 6.269157464269008
Pt 6.867211380782524 11.262098250019692 7.006918785013095
Pt 5.42276679212868 10.56509566485784 9.283586126464408
Pt 8.3178180710231 10.565502717460575 9.283833871945237
Pt 8.187886187438636 10.676112461699171 4.730589065548386
Pt 8.20297649810837 8.629202366184407 6.264493499185793
Pt 9.472192415314636 11.12157140080586 6.996232689204372
Pt 10.418061917411764 9.07317405359432 8.263543216337572
Pt 11.195955499160744 6.870442397710396 9.543586615220383
Pt 3.3245380851934496 9.071729717530078 8.261639893667981
Pt 9.123750519463654 8.216189012050865 10.492647956952338
Pt 3.323452935045355 4.668848334043594 8.261453314204491
Pt 5.505983052135571 6.868426459078225 2.6717544801924342
Pt 3.143308571758097 9.142057562327029 5.551323005774157
Pt 3.3628752764502465 6.869673136413205 4.287660122327326
Pt 5.5469207148741235 10.669213563246043 4.735675050548245
Pt 4.220199042711969 4.655414488861308 3.111029053404883
Pt 6.870670761766063 9.136763548818953 2.976794308047094
Pt 4.22129542306111 9.082949808662317 3.111020818181776
Pt 2.6020738339562914 6.870390132343673 6.853998304534775
Pt 10.374151235752116 6.869843469393263 4.286823969661935
Pt 8.203814171128588 5.111209034593854 6.263245879330905
Pt 9.516871398759523 9.084168958082081 3.114086507106134
Pt 5.539559597729248 5.1192974820766395 6.268099732826108
Pt 5.546999421239066 3.069893083859577 4.736036482686881
Pt 8.234087972721179 6.86842475939054 2.6683468713382594
Pt 10.419323244500818 4.667714363300886 8.263591367624544
Pt 5.421668292658241 3.1747952015680636 9.282781517357426
Pt 10.603130331487785 4.599772557528831 5.551738056835563
Pt 8.187814843003029 3.062917146840383 4.730817035906187
Pt 9.472391760284795 2.61926076342994 6.995236983139913
Pt 4.262113787132003 2.612252294611301 6.997534094499137
Pt 6.867291158939209 2.4755632136489956 7.006028405899599
Pt 6.870721700322745 4.600697187275692 2.9739538100081617
Pt 3.1420557360933956 4.598484842120244 5.551336786046946
Pt 9.518069053102634 4.654228389466661 3.1141849745139556
