5
Energy = -16.45415416 eV
Pt 8.625845715836958 9.001580657833225 9.024848507111237
Pt 8.906847265002334 7.066950730449043 5.1539120264317555
Pt 8.021470015419071 7.334623640017215 7.30060730012754
Pt 6.4834770130022426 7.724120606089284 9.152652282096186
Pt 9.53255750700707 9.961484858545333 10.938384715449564
