54
Energy = -278.30662026 eV
Pt 2.827866929898246 4.899489994366832 7.46545732516834
Pt 4.430818882707039 2.769569860045487 7.011633856961682
Pt 2.364326937760241 7.555319333001903 8.185447706904888
Pt 5.988043210744753 2.8473219698770067 4.609836393084648
Pt 6.882129980333032 1.7407634591835628 6.84699248159631
Pt 2.266346730535695 5.6747119806685395 9.947458607345418
Pt 3.7764670558652877 3.6072262392861707 9.535182939131726
Pt 3.4480648325379954 4.2089220892470856 4.973858409122701
Pt 3.014549209407736 6.106811074871187 3.189412416629923
Pt 4.2021738972762215 5.2921186813210035 11.689352401805088
Pt 5.672696774614973 1.8824617337341474 9.167957016002587
Pt 2.056556322945962 6.465630243123509 5.588536677930919
Pt 2.7845777635620816 9.069025174929001 6.089188512336238
Pt 4.5692110611312255 7.183608267176667 6.665528188575659
Pt 5.720062952567113 4.882565389712278 6.101383491827841
Pt 8.607965625693325 2.748990143530437 5.0964926330044005
Pt 2.8124925271684047 8.177975265826031 1.5664095251863697
Pt 4.412143433900365 9.312260978419813 8.256661831546129
Pt 6.208182246654011 4.11085270964746 10.50074382962065
Pt 5.067585255246167 4.53057793935818 2.8266296529323474
Pt 4.250814543842735 7.471161473674201 10.136377319488501
Pt 9.487555738406959 1.7873957002014431 7.355054394215431
Pt 7.69352026496998 4.159079844410241 3.086042109308768
Pt 5.423388553000638 5.6887660050975715 8.559847750070741
Pt 1.5304456424904505 8.309186647935077 3.836062328573493
Pt 4.318516838604052 6.117971747097815 0.8575907853738542
Pt 7.9442885959290965 3.0963513804155642 8.922302472869609
Pt 4.928435859996222 10.547270370103803 5.864708646258217
Pt 6.469255878657476 6.573540511394821 11.392439238462782
Pt 6.545001588413579 8.71945840531237 9.731366116423564
Pt 8.481853825904558 5.386273138844112 10.031937168536476
Pt 5.094411285890759 7.352888088614047 4.183207078946868
Pt 10.213813090750152 4.213234567326213 8.379946378647476
Pt 6.845000632203406 6.020442110103085 1.3788467020180075
Pt 11.13682588083173 3.286847419833221 5.973633338854903
Pt 7.590654876778646 6.936255627297963 8.021145236016007
Pt 8.246613181201853 4.915785872528999 6.618320344943329
Pt 10.215774550036818 4.617553891811645 4.001421809154426
Pt 7.448078186323536 6.292451606068462 4.628768226264631
Pt 9.369028513047061 5.946833120809011 1.9703343831128473
Pt 6.781680254184538 8.409499565633256 5.982206031528184
Pt 7.335116564139323 11.575940403903802 5.518938452542149
Pt 3.7997854609796624 9.580447200718712 3.65595168780745
Pt 6.819646849346759 10.382789862834484 7.743967903302886
Pt 8.709724691599515 7.807512306962286 10.972068938204364
Pt 10.271968094364022 6.900190713572352 8.845044342409938
Pt 10.707307788256932 5.8604590335197955 6.39047755174405
Pt 5.451711532542209 8.318625916851602 1.8108318314163672
Pt 6.3975926450648455 9.966764452892617 3.615754828322848
Pt 9.89170974708109 7.251312905335031 4.273216572991626
Pt 8.992959931716205 9.383275374554625 8.881070465113522
Pt 7.945551044650774 8.064658792204469 2.6296526830666918
Pt 9.655343648324784 8.241249882664896 6.675507543255637
Pt 8.802783539601453 9.626052815222062 4.658291775941052
