55
Energy = -260.51894013 eV
Pt 0.8244406359264939 4.299908493169576 6.125849761248848
Pt 6.3810510467365615 9.659490042128645 8.279559756156958
Pt 12.158557575062604 10.0652707410118 5.70125845729409
Pt 4.303873226888925 8.096152429052532 9.325658120290885
Pt 3.031999679693178 10.274320078595222 3.42599781333223
Pt 1.8831604136955877 9.137269018574854 7.635784363863602
Pt 12.412404353629999 6.645351312336673 0.504510962769539
Pt 7.096296001738643 4.719245831520194 8.598578499742713
Pt 4.995250118482998 5.654068897641283 9.991911421281582
Pt 11.819337234834778 4.413541776576951 1.331208129079047
Pt 3.2459211318854204 3.0269292747549312 1.9720886318629909
Pt 2.6994539802009303 5.120064392483596 10.854377252046495
Pt 1.8376312412197924 6.023659877367824 4.4317600695979085
Pt 11.859874439466624 1.5849892953569493 4.906114071333816
Pt 5.520434423574577 3.057165776559763 10.23539985387038
Pt 4.131704147960415 4.711211361998384 5.433698628217361
Pt 9.169659771604795 6.2621065589880045 8.915607798558067
Pt 1.2292126436429394 6.737140453187645 6.8992607063230755
Pt 2.8479182217743495 2.675779558693642 6.641991465159285
Pt 1.9197037007606685 4.725406168112143 8.424432425735995
Pt 8.001107426463118 2.719243560920781 9.942808445973215
Pt 12.031725990054246 6.341971293129497 2.974924866505493
Pt 3.0754896648683845 2.5050900732952073 9.207103062882107
Pt 2.7800423969430343 11.558908821350824 1.4913232374031518
Pt 3.075432293375618 7.7894243766329385 2.8082676092387158
Pt 6.785376017079047 7.280909099661985 8.941821838143765
Pt 5.7663861240330165 6.216543722124156 6.77734494721972
Pt 10.463889503338711 0.5116065582908605 0.8211900015754948
Pt 11.200408500843775 3.5240810292041584 6.402741848230867
Pt 3.5173997672786967 2.8443487231620113 11.737601678174437
Pt 9.552093501336573 3.793089855586407 8.294206966996628
Pt 4.616826344722925 4.138798874394501 7.8801205116854955
Pt 1.945807036291761 7.127427306091954 9.42387621417083
Pt 11.508092329333033 5.558188623172893 8.099026470550347
Pt 11.853316173383854 5.8599627564069054 5.521419353655792
Pt 12.178109183754923 3.9289958216061045 3.941157786650787
Pt 13.004686860380227 7.986750283446194 4.607793658025787
Pt 11.9375166019783 12.115476992506085 7.023640634980378
Pt 4.852101819934515 7.010341419994039 4.533829411956808
Pt 10.418489647178575 10.031693162464183 10.517176875415892
Pt 11.083233781136236 10.049634215113159 8.079099799970562
Pt 8.777889845090522 8.92257351944831 8.87401094989334
Pt 3.7958004109045382 5.298899735375791 2.800296388397234
Pt 10.914236729814988 2.1613170259823717 2.6562276774178843
Pt 2.228911952507044 3.333080694334731 4.205024282510352
Pt 11.170576620883853 7.811116100500643 9.429383555629812
Pt 4.086465420798987 10.722010488267161 8.422827838362148
Pt 2.315051710922998 9.618633292829646 10.187966302319632
Pt 1.619592933504431 11.51313999349739 8.62093745967221
Pt 0.7281412027130911 13.659909653116483 8.375571692689226
Pt 10.161150729367087 2.8863199640765873 0.34345270915864207
Pt 4.6962957825016565 8.634156368694766 6.568689042264804
Pt 2.3491873000764567 8.430158427184358 5.219489753028089
Pt 12.231783986125958 7.83581051467106 7.073196828111932
Pt 3.269123319727591 10.750939212783118 5.92102501080142
