53
Energy = -271.61568036 eV
Pt 4.108896011400048 9.08159530227032 10.772453367581974
Pt 6.677576950195153 9.042180394504951 10.278207628368794
Pt 4.9949415763168705 10.225526831881904 8.651234320398911
Pt 2.0934537584568136 5.046030932296432 8.931376225368187
Pt 2.368548437833325 6.552976959864421 6.874548758916493
Pt 5.423287743090665 6.883772358146096 11.411073890714718
Pt 3.849692044223283 7.218710430394458 9.019043073688868
Pt 4.193592463970707 4.763277849200691 10.413830332573443
Pt 7.643742776541489 10.62923102054504 8.174306059037189
Pt 9.188047203930942 8.827825195712402 9.663798783642
Pt 5.7497436721374005 10.86510416723727 6.243591733848861
Pt 8.084934467366027 6.87395380202879 11.085766672713818
Pt 3.7359408280440816 8.909139192170485 6.857342467328518
Pt 6.565501677980848 6.090299924660763 9.124590625583666
Pt 2.6076056805608916 3.7374583823420613 6.6457559490352445
Pt 4.37022287986641 9.510355141542268 4.112831801381783
Pt 2.3887638897866474 7.955337382541307 4.753851311536533
Pt 6.701159946771729 4.539149925711668 11.262679526015468
Pt 4.596541314637933 6.251577231245885 5.356469471653241
Pt 4.718214911261929 5.014599755075684 7.691699411840297
Pt 7.446335429594573 8.112610518616552 7.882050782155897
Pt 6.039017481801251 8.346961693254501 5.770992044153578
Pt 2.3960283740554895 5.220380534935621 4.441052127792212
Pt 3.2434618553659815 2.671464845847765 8.97412952652855
Pt 6.498943600976241 10.933889766616948 3.6861343541300746
Pt 8.329660708669946 10.70455284871166 5.5676970060561075
Pt 8.460079130502987 5.7828952504997835 7.301308554147872
Pt 9.991328437356184 9.505912376175994 7.265541227266442
Pt 6.242550731455634 8.539588657090947 2.502774216792916
Pt 8.577609881599443 9.389600196900071 3.2917838058466002
Pt 5.869394090855541 3.032805713579157 9.23170131448945
Pt 10.03515038390794 5.479778282754778 10.261156783823044
Pt 10.731782265045373 9.81899809886757 4.735035998459979
Pt 4.002380055844122 7.119049370754185 2.9140099573436897
Pt 8.627678169120577 7.822294396880826 5.609372363494419
Pt 4.806035074445515 2.143550160001079 6.946278023815521
Pt 10.552070615627166 7.001584582675332 8.327665974699848
Pt 4.310368055854732 3.3890686997728223 4.658349239064791
Pt 8.357821953537869 3.8616339152375962 9.229025030174187
Pt 4.057138025045725 4.566237779492096 2.3689839682344114
Pt 6.601311625716364 4.557621541186783 5.9495780546124735
Pt 6.967924357018023 6.472617222699498 4.184757636531435
Pt 10.24934701706928 7.386411011348276 3.4949936648972098
Pt 11.350097818319238 7.511875185643209 5.9371071941673925
Pt 7.438049012946493 2.426995670994902 7.189640085117508
Pt 8.37384438938911 7.399544693807643 1.5322647014417279
Pt 10.152560331605972 5.30256396774056 5.181113950311567
Pt 6.342249947978375 1.723077590459234 4.8545723894497455
Pt 6.133724016130498 5.975229094623299 1.7013007611989734
Pt 9.842104999519288 3.5761302557301997 7.087019845503972
Pt 6.477803938358758 3.729775199481728 3.108603153171413
Pt 8.516568909411863 3.2933171261739527 4.728894998386341
Pt 8.76979373397816 5.205527851383794 2.8949984602567507
