52
Energy = -264.73855627 eV
Pt 10.741781143312803 8.166513692178254 5.897057294746521
Pt 10.106143642249084 6.0969707981517205 7.2274044015099
Pt 10.260918895828054 5.918065885825443 4.5741356270246225
Pt 11.251502710356371 10.396787043354289 4.587928440403566
Pt 9.543892306707747 8.379026679845033 8.287167063789912
Pt 10.121165744823582 8.336316551593624 3.3261475944544485
Pt 9.821470130334259 3.695580548439944 6.0366559488191305
Pt 9.242281015451018 1.805367339012105 7.804305809487262
Pt 10.124334104736292 4.052395864560282 8.843137819512357
Pt 10.1580121255117 10.566844611040716 6.932995851787985
Pt 8.680299123497612 6.278489416783476 9.474089391767338
Pt 8.832004920039006 10.713651393794207 9.141948349923538
Pt 8.664380014665152 9.8198674056912 4.941016459819329
Pt 8.399497128566475 0.4301590476146614 9.82056175236755
Pt 7.460011931563691 2.425419772039761 5.926963554560217
Pt 7.61859157598322 9.010504137210877 2.7577997291135716
Pt 7.767446262677665 6.1915003841356375 5.590577965358191
Pt 8.296678639159364 6.531464334691072 2.887788453666986
Pt 6.441132295354834 5.079761427534621 10.293666369389356
Pt 8.10199937647962 4.099554901883188 4.003551545738036
Pt 6.054041677032325 10.446979312823405 4.525694072577904
Pt 7.829045624974778 2.9448272080797135 9.896529525641437
Pt 7.440580054258845 10.940859640797884 6.904473516929138
Pt 7.752888542891482 4.444793724019202 7.66827548794056
Pt 6.585401128559628 8.506727865611351 6.146564101445447
Pt 6.647109431668593 1.0427499537316816 8.041618006347964
Pt 5.505949051261245 5.0409092664095745 6.342638769985537
Pt 7.315753344077772 8.583183424606343 9.835691404827292
Pt 6.265172493630913 11.052546719929042 9.262052339927566
Pt 4.8802476777761905 10.59423608482657 6.97187828574201
Pt 6.39218438567871 6.817782914926338 8.126251536597543
Pt 5.400421336099994 3.2812133158571855 8.681069285821193
Pt 6.185895549685086 5.109935590940058 2.5048200464104777
Pt 5.557577662787799 6.792629515959751 4.380772359160659
Pt 5.204333386373877 7.254645123349777 10.890505011148115
Pt 4.049320919667737 5.457721165885348 9.183340176813399
Pt 5.0718475657681275 8.763862952709996 2.7469316292699477
Pt 5.588401699405259 3.3048002228158997 4.301080035965388
Pt 3.277317030441644 3.915097762054431 7.187829918144209
Pt 4.233289837598292 7.306828375629296 6.706729181056782
Pt 3.5960539094932744 9.462864366437087 4.94175450698728
Pt 4.677497412955096 9.11422272487156 9.18005070363733
Pt 4.868159670863426 1.9136389329209558 6.4296427169321335
Pt 2.664350593182859 9.213101476582658 7.45687981539561
Pt 4.395357632073198 6.581762958237003 1.393300812481381
Pt 2.6833220007088396 7.675587111754764 9.690521107973522
Pt 3.095109473850563 7.183845510484599 3.5245044680403543
Pt 3.574265069313304 4.572957863455191 2.9696848775314932
Pt 2.1666797726090814 5.253793498346541 5.149943531346715
Pt 3.0247063122789974 2.8039338640571128 4.786133951365085
Pt 1.610010611994312 7.7629484960379855 5.5272621676050315
Pt 2.0444890627804626 6.184117163544262 7.62874110510057
