6
Energy = -22.04549593 eV
Pt 8.299441269624902 6.928318552371338 5.4505552692106685
Pt 8.02262157623941 5.720013701059688 7.7128985647065615
Pt 6.36116521373313 7.55694268757388 7.027829259703186
Pt 5.56575902037115 5.445389261877122 8.359606412165055
Pt 6.005135554680856 7.4510262600908375 4.443610211847193
Pt 4.741391342981752 5.893823514658216 6.001014259998413
