6
Energy = -20.94876127 eV
Pt 8.251274992752554 4.356186323603753 10.573266908092767
Pt 8.316706069321635 6.253355483256794 9.210003168771593
Pt 8.946996429630193 7.486860779294567 7.084234517428533
Pt 6.7812929259102805 7.9118369159473465 8.13787106286412
Pt 7.851193279775421 9.753167700772156 6.831454928951749
Pt 7.509419623144217 11.87410294560069 5.930440871903203
