6
Energy = -20.85127684 eV
Pt 10.141473917404735 6.9645352387005 9.341067531446605
Pt 6.017600440003755 8.260186777893908 7.9708562693142015
Pt 10.956287290231442 9.121372731658584 8.25233243303113
Pt 9.493117742764758 9.239748339588292 10.308030759389075
Pt 4.858763504026766 8.067593896405125 5.939173230269259
Pt 8.395069245205066 8.396943345151772 8.111809801417358
