6
Energy = -22.13724812 eV
Pt 5.2551076436481905 6.599938880632955 7.800245048963001
Pt 8.274454381163931 6.924658051916716 5.729143809624546
Pt 5.9132966901832775 8.011846774734357 5.7182819809124235
Pt 7.373108348292758 8.106228687860252 7.859461741500884
Pt 7.615847829014888 5.518619852548142 7.812276431067591
Pt 6.154498895149845 5.42502143552393 5.6669048796204065
