6
Energy = -22.26054868 eV
Pt 4.861733514428441 8.896365345772788 6.712085908803502
Pt 5.362339078148588 6.521087928493991 6.240146902796794
Pt 7.233830859326079 8.23331367255072 6.7527684642473265
Pt 6.80504149461574 4.726642057119182 5.0654137772499
Pt 6.383408162477784 4.594777609491058 7.553530520716912
Pt 8.34717335130954 6.021339846878431 6.669580886491368
