6
Energy = -22.91457479 eV
Pt 7.5149923243097 6.0755401531668625 5.747458208547668
Pt 7.682502729926946 3.881241899474992 6.775818929764759
Pt 5.4161527035716395 4.759058298136872 6.685251642318619
Pt 5.084890789413549 7.163259978628064 5.579782557707072
Pt 7.071737117944248 8.267440981635264 4.760167813309663
Pt 3.2466674274734584 5.870401781597253 6.468463940991638
