6
Energy = -21.39917128 eV
Pt 6.572574842150606 5.085335288466493 4.657168333025246
Pt 6.46330348696487 3.56448099902924 2.8904132445809414
Pt 6.203795081988282 6.6947385781925846 8.46364030148955
Pt 5.087487994144099 6.4394866470224645 6.076671246991184
Pt 4.309606692609167 8.091811095642578 7.771906307712717
Pt 7.634189312903457 6.401711955256679 6.4190512615261355
