6
Energy = -21.86761895 eV
Pt 8.585422011732337 5.974557874340457 5.61420198688379
Pt 8.192886513105506 7.980419643676033 7.069023420890315
Pt 7.908848024105014 5.632223145221317 8.043416556559249
Pt 6.17273639685587 6.525734799643563 6.370345012863689
Pt 4.308230929910489 5.738159126150748 4.978128904708408
Pt 3.8320627245679866 7.149092011244704 6.925070718371629
