6
Energy = -21.24002295 eV
Pt 9.247828628312936 11.470815065141338 9.006861106122615
Pt 8.45566783203692 9.521649002773591 8.045225655147771
Pt 8.741423772466478 7.71456086582979 6.244158750336252
Pt 8.475516606023826 5.590711238304928 10.384433102294532
Pt 8.129353099314608 7.068909028460546 8.632401590950801
Pt 6.461117185127435 8.260967340592837 7.107977159998844
