6
Energy = -22.04652565 eV
Pt 8.64875503160155 5.095932511598745 7.806098913263219
Pt 8.780789705066464 6.616650412565279 5.876045783641344
Pt 6.392066547613438 5.0661754960509136 6.8574487528669765
Pt 6.530530782387655 7.525517246193525 6.05235502085791
Pt 4.36181211353638 6.423697106686572 7.03955138199013
Pt 4.285634202281941 8.271615609392516 5.368088529868097
