6
Energy = -22.23416459 eV
Pt 8.056439785175082 7.0224999712321035 6.893920146145344
Pt 7.140706371543571 5.652870561124596 4.8826308460921375
Pt 6.499876798951745 5.0285089991420575 7.335648737223605
Pt 6.597381627071932 6.974064747028962 9.023807431381718
Pt 5.489144171831526 7.321303031742822 6.677489943566426
Pt 5.22390019655595 7.008201640859134 4.193951846720574
