6
Energy = -21.79453946 eV
Pt 7.406459707728255 5.225308603038555 6.821064987795799
Pt 5.041226054474823 5.970308266500564 7.19032634729619
Pt 6.026005962797385 7.87288324155799 3.5626074005738424
Pt 6.698611498531533 7.562472575571234 5.938653231067277
Pt 5.713766358269505 5.6244336650922095 4.674054299461562
Pt 6.389810162945322 5.0383895113073995 9.105915513435182
