6
Energy = -20.23573583 eV
Pt 5.222837084952776 3.5287575389036947 6.50015021081286
Pt 7.008475258862397 3.8551033558773016 8.034806795761142
Pt 7.135947191343952 7.052910921970576 4.504692289451846
Pt 6.87835487112085 7.482007663600961 6.975961907286102
Pt 5.610290082735685 8.882274633776646 5.126253348968663
Pt 5.04024442789783 6.0700392007561845 5.735946548407908
