6
Energy = -20.88436159 eV
Pt 7.899391551851645 5.873880960267622 7.980938501986171
Pt 11.2683037130838 11.593318860931264 7.6944394965969
Pt 9.72469449612094 10.046631546187864 8.518282053563338
Pt 5.672820165719213 5.238407501894222 8.941626177332145
Pt 8.295560307388264 8.335809604444114 7.828665126027165
Pt 5.973087721165463 7.445059755352507 7.782278405423184
