7
Energy = -26.79579548 eV
Pt 7.542945184386755 8.082758601705073 8.088650858082286
Pt 8.210700245659517 7.334589852178781 5.7695064263262985
Pt 6.958014079726722 5.532825618484373 7.278127400432366
Pt 5.126000388590959 7.489937405934794 7.635307396781278
Pt 4.44664752558535 5.187961891284644 6.77966092091675
Pt 5.6775130839007 6.8084245312138325 5.160611259484955
Pt 7.545720163175741 5.071042770224131 4.795676409001928
