7
Energy = -27.03277189 eV
Pt 6.006104569065357 5.5199376743089 4.4930468077089625
Pt 6.733752344547233 7.765327890853138 5.47365348369366
Pt 4.524735319399297 6.657380673768533 6.193574519425038
Pt 8.097754723831542 9.07484180699384 7.115343700867195
Pt 7.538543690361599 6.708068398773475 7.55645057722853
Pt 7.128036587714003 4.419919292300274 6.497996166787129
Pt 5.476188045436864 5.359639543357731 8.175050024645635
