7
Energy = -26.29853617 eV
Pt 7.1017512047175515 11.417499469843664 7.3741206067892175
Pt 6.83795975280104 8.97844244306929 7.57330000809546
Pt 7.107846361837037 4.651467433485633 9.493730753908956
Pt 7.2062637039438995 7.0610488298471505 9.007778508133887
Pt 9.252782296237534 7.952895111815103 7.597032378270733
Pt 9.137481640063642 5.582485377002482 8.282847647251362
Pt 8.939849509702496 10.051777709462014 6.347335889046267
