7
Energy = -26.1919842 eV
Pt 5.91542498882078 7.18816828519407 4.213048555172391
Pt 4.6609105468616505 7.210043834984655 6.500877913409676
Pt 7.043102646315672 8.285109092324612 6.28986734057921
Pt 7.964497205086882 6.034592071158753 5.314015540918228
Pt 6.708501897325665 6.049783759680171 7.616974814043199
Pt 5.586627661192408 4.9609227555862185 5.531558184953257
Pt 7.348357804555275 5.5154095913230545 9.782331481727248
