7
Energy = -26.07407513 eV
Pt 10.950316256881637 5.812147224436924 8.537484483127203
Pt 8.91258064341738 6.901641288124778 8.242503141092765
Pt 8.03253836492375 8.423742101218435 6.3124152540277825
Pt 6.710710568205253 6.011790949983929 8.849167503142292
Pt 8.307992943012778 9.414684389400422 8.625502552745141
Pt 6.105301803379946 8.270010912797845 7.994540165261682
Pt 6.712530002268981 10.568105487097942 6.947519836691223
