7
Energy = -26.82625185 eV
Pt 6.397079338207598 4.085526740064764 5.032786379341157
Pt 8.058173117798708 4.350369483035317 6.920424268090607
Pt 5.989460961364711 6.6025155517411145 4.9623731087577045
Pt 5.687918031440953 5.440373266934746 7.22557910476234
Pt 7.745332330566695 6.911369053005817 6.8617026276882545
Pt 5.5552511895544905 8.026841424176153 7.621109263128581
Pt 4.605830288932675 8.606175111591035 5.383634007020111
