7
Energy = -26.94987303 eV
Pt 8.372250760621204 7.1382603845467 6.804092486684972
Pt 7.294451541091655 6.95918100182927 4.515084251768997
Pt 7.5946555095683275 4.774966739039506 7.287405733659779
Pt 5.72181484628578 5.281928375116916 5.629238690073268
Pt 6.145008392012958 7.985549298654875 7.6991000266288525
Pt 5.335836145166447 5.6241501506796485 8.133449878244477
Pt 5.0359828052535835 7.735964050132801 5.431628932939259
