7
Energy = -25.91040216 eV
Pt 8.93594218079669 8.672184100527572 9.191796949508939
Pt 10.117752819689994 8.235618655217936 6.83185908882266
Pt 8.368214293726954 6.478850036330642 7.587402044137329
Pt 7.578612168960756 8.798690651862053 6.868184463504985
Pt 8.56740613885605 7.1558266929995655 5.07379389039915
Pt 6.568713805460718 7.670465012905679 8.968104300016535
Pt 4.497375496493883 7.023406276640441 9.82941684258702
