7
Energy = -26.287416 eV
Pt 7.821039293310447 5.817533922227028 8.694501299999999
Pt 6.550760505251549 8.017378702284198 8.694382229713797
Pt 5.28048171719265 5.817533922227028 8.694501299999999
Pt 5.28048171719265 7.2839870882760644 4.407019710503096
Pt 6.550760505251549 6.550760505251549 6.550760505251549
Pt 7.821039293310447 7.2839870882760644 4.407019710503096
Pt 6.550760505251549 5.0841423082188975 4.407138780789301
