7
Energy = -26.98349479 eV
Pt 6.756825841694626 3.9141871149230787 5.377747403326507
Pt 8.232208100819767 5.404341169776541 6.668114981961093
Pt 8.543850188388278 7.782949804945623 7.5478812899784815
Pt 6.627201348620621 8.610509644451533 6.125142668052718
Pt 6.235600962753916 6.541921684549255 7.555720430038535
Pt 4.879423532359017 5.4369851454569025 5.817676310118588
Pt 4.243574891104427 7.827790301637598 6.426401782264729
