7
Energy = -27.20197531 eV
Pt 6.642728904224265 8.175539509753337 4.645247057770997
Pt 4.664145346132191 8.130993372056555 6.261882376470927
Pt 7.5848209519169 5.823372546800081 4.37933164036964
Pt 6.55366463477393 6.533380436980614 6.5184005427506095
Pt 5.378169878287542 7.170487253294963 8.610600008962361
Pt 8.313833375170073 4.799715564355731 6.723230753324842
Pt 6.315644510038928 4.819518917302173 8.314315220894208
