8
Energy = -31.4149819 eV
Pt 8.208672230000001 7.226392098535112 5.41198017532492
Pt 4.853943810793762 5.836223942258652 5.41198017532492
Pt 7.226392098535112 4.853943810793762 5.41198017532492
Pt 5.836223942258652 8.208672230000001 5.41198017532492
Pt 8.208672230000001 5.836223942258652 7.650635865468842
Pt 4.853943810793762 7.226392098535112 7.650635865468842
Pt 5.836223942258652 4.853943810793762 7.650635865468842
Pt 7.226392098535112 8.208672230000001 7.650635865468842
