8
Energy = -31.58653458 eV
Pt 6.695667425089798 6.755864832134668 4.542518123706677
Pt 8.479330975695014 6.9761464242893005 6.423871987313734
Pt 7.115980614526642 4.827214353530483 6.181935493543338
Pt 7.132470787901623 9.123389744038207 5.678984098707082
Pt 5.852361749435314 3.294785359122816 7.6729221993220404
Pt 5.378022215394869 5.733846637593423 7.71314219064426
Pt 4.9241275993653515 7.69988867022569 6.122919887286919
Pt 6.696283618903733 7.913182772167993 8.004141677255824
