8
Energy = -32.25002733 eV
Pt 7.215039755171775 8.804613534309771 8.542087836639773
Pt 6.530868203645813 6.481601318339799 8.149708756807023
Pt 6.9430670838640305 4.0867019794113855 7.3608575722036
Pt 7.112323096634932 8.108970754890786 6.164524154697129
Pt 4.577798893533165 5.059633197389473 7.35994286459158
Pt 6.94376186417796 7.438659186923112 3.7113106524719526
Pt 5.1998826092183 6.458335442883235 5.334545268886985
Pt 7.483706503055502 5.567932595153668 5.383470903003439
