8
Energy = -30.57057117 eV
Pt 7.263697726898194 11.384202269424073 6.7132195677752176
Pt 6.593395962040225 7.906081394524087 8.43413127756769
Pt 8.25975695716059 9.323491811041652 7.127600793763833
Pt 9.27044829237333 7.587752338205351 8.914014149597548
Pt 10.480247720844718 8.15039324014483 6.6821222767203965
Pt 8.350893305601225 6.666541862002455 6.721027239738128
Pt 5.323151663370232 6.182735666335888 9.692277484576104
Pt 7.612508500092951 5.551811215271128 8.975688552463053
