8
Energy = -31.35936757 eV
Pt 4.751224081777946 6.543091915483991 5.6590935650980665
Pt 6.70995471619695 8.250065494608007 6.039588080798573
Pt 5.768564267460204 7.825633870714788 3.6406573704246754
Pt 5.708284440528896 6.910765844431967 8.100625920073066
Pt 8.136957784390276 6.36407657087606 7.231263263053229
Pt 6.174702303599666 4.647357300560223 6.844658593135106
Pt 7.175251952662271 5.97244584937163 4.796997383819159
Pt 7.120337136451026 5.031839837020423 9.232392506665349
