8
Energy = -31.60839334 eV
Pt 6.0465210998098184 7.540480260287398 6.495395239925313
Pt 5.685990897965736 5.0849901601231435 7.637120501221923
Pt 7.379767098509348 7.511759045603561 4.18694617924647
Pt 6.741568078536682 3.0685387476756545 6.409264726954668
Pt 4.863771238526137 6.952975463911728 4.351281519537588
Pt 3.6053760012750726 6.438806150923818 6.624504369259019
Pt 7.318903768562335 5.404899874700716 5.5288830583487165
Pt 4.87855219369251 4.518000673652101 5.287054782384188
