8
Energy = -31.91519085 eV
Pt 8.554733021239803 7.378504683493023 6.2245352652784005
Pt 8.766852727293745 6.553975648407038 8.673523477876582
Pt 4.213671338543007 7.463887233302883 8.290011802599583
Pt 6.426681231041014 6.725728845245991 7.5637910080044986
Pt 4.386707733626614 6.7948484707516315 5.941836498882632
Pt 6.789064397155392 6.048548016584622 4.902643165361168
Pt 8.11660969954945 4.909403522442028 6.779385933007401
Pt 4.725115770061752 6.104539498283433 3.6037087675007613
