8
Energy = -32.07629831 eV
Pt 9.116279927345055 6.74470624817463 8.492759081639125
Pt 7.2696075566521134 5.163566876344262 8.06724638904189
Pt 7.534646769095512 7.334233639896059 6.7075080652695505
Pt 7.711730063230574 9.246130155815514 5.173720668427077
Pt 5.650075665823147 3.4490397727673443 7.33451279931593
Pt 5.429843052032108 5.663657405591001 6.31139059414137
Pt 5.689808339778185 7.855017769392118 4.968371506236256
Pt 3.5968991708594924 6.542538676835118 4.943381440745119
