8
Energy = -32.17539042 eV
Pt 8.496655535102471 8.136781073931402 7.457475833838413
Pt 8.360581097329092 5.6999024767648345 6.645900619672383
Pt 6.06902334959904 5.4502801110982 7.63236903240458
Pt 5.917205476873682 7.984547535788504 7.80450384958405
Pt 6.838644684394703 3.7272812246959806 5.886513268541761
Pt 6.873699137066485 7.408732324022077 5.524844556328285
Pt 5.1223329932955695 5.594992352110903 5.312158951027599
Pt 4.321857726338356 7.997482901587373 5.736233888602326
