8
Energy = -30.83130029 eV
Pt 4.710492408671268 9.027672441778709 7.28736336862163
Pt 5.952453582805868 7.112747451599719 6.0363171726106275
Pt 7.243278952781191 9.332726322901955 7.034228538096813
Pt 6.405897922454886 7.496287694582745 8.599490409287368
Pt 8.314527649703281 6.764121012118453 6.9114533923128025
Pt 8.804540527747921 8.547445823017803 8.880049457263153
Pt 10.426328674199793 6.6682934097285 8.196193872907356
Pt 10.989740731707476 8.348104063083467 9.97450605801789
