8
Energy = -31.95118637 eV
Pt 3.906205432388327 4.7810640391377595 5.747535650979491
Pt 8.714778221851077 5.0476591981959675 4.812685657575258
Pt 6.333547855243894 5.057521419599067 5.424011558215076
Pt 8.083266060832251 5.960620691992244 6.997760943882361
Pt 8.03258466892494 6.8073552790603085 9.295113669239365
Pt 6.663339924289787 7.940261313087088 7.585506418129109
Pt 4.888845868640315 7.004039990761519 6.057971771525154
Pt 5.379248879153037 9.403294979489546 6.081231241777809
