8
Energy = -30.49833493 eV
Pt 6.398729490136743 9.285792103271374 6.576609486359516
Pt 8.465165559555091 7.626521709805618 6.808172883764792
Pt 7.202465966838968 11.632615977515838 6.6917185948289175
Pt 8.293553607195378 3.619193807104831 9.294378926739855
Pt 8.612674674931577 10.030057935054375 7.964247002139977
Pt 7.001004074797188 8.098974064089033 8.864467316970888
Pt 8.278713742612512 5.863050760699087 8.6907525549878
Pt 9.636411568576516 7.9960091600498275 9.165596951711539
