8
Energy = -31.65942097 eV
Pt 3.552632108380341 6.267741773315101 4.009063649395828
Pt 5.726182880258349 7.596237047770042 4.588065857124374
Pt 5.955693875457556 4.704665270772646 4.400498418171486
Pt 3.636462848871598 3.7141688971635958 4.223867351392092
Pt 7.747579861516049 6.212217706621603 5.350838789887965
Pt 4.5707932400370845 3.4316175036499135 6.595812196147476
Pt 4.701164581466115 5.965877403226827 6.2680941850868255
Pt 6.7459457842287005 4.743929577695938 7.200214733010138
