8
Energy = -32.27966424 eV
Pt 4.843464624506017 8.116516386627717 8.105927615160656
Pt 6.30320927438867 6.540223897477149 6.691517875482172
Pt 7.011785640509723 7.728867119523741 4.593549175733524
Pt 8.3504758995062 5.842588846644181 3.813704933885542
Pt 7.6213600434230315 4.619687911100421 5.794556472207773
Pt 5.676459387321614 4.124469415425867 7.255928185600892
Pt 6.647633113164666 9.075350560950358 6.652369447771983
Pt 5.478302445415471 5.8849862904860855 9.025136722392975
