8
Energy = -31.94436074 eV
Pt 6.886529413568916 6.674372342702738 8.762559716687049
Pt 7.492982564567894 5.525648234582198 6.511465048273368
Pt 5.313142702306282 4.905124230463916 7.784848212603782
Pt 8.60297446926668 7.287945217748512 4.968383348945336
Pt 7.025588307815767 5.5451327395528995 3.9520023625371308
Pt 6.730977571933766 8.078770219865177 6.504428809820433
Pt 5.1654086475716445 6.302639237998796 5.516942535857349
Pt 4.550836486680756 7.4488079407975984 7.767810128987637
