8
Energy = -31.19921785 eV
Pt 7.800148817039114 5.341912096848951 5.704971401493533
Pt 8.947112105748293 7.472899141305157 4.834915636894925
Pt 3.8892270831605433 4.745247867904731 7.8086303143308085
Pt 7.069077831223437 7.644248460160913 6.674278236434935
Pt 5.049151953682508 5.593077149929865 5.630116285886647
Pt 6.432900756941791 5.125692999183717 7.834497897694382
Pt 4.735095585489014 7.190897853142742 7.64512356704222
Pt 6.466824260990178 7.163210961463451 4.205059895607589
