9
Energy = -37.60643891 eV
Pt 3.7920191447444322 3.3433623968495416 6.04617063694876
Pt 3.5735639718728787 5.7821715300475836 6.007118384060975
Pt 3.3429941291529066 8.217895803904538 5.971205906698328
Pt 5.782247357707806 8.43640583447468 5.967652115624709
Pt 6.005088785687276 6.005186660219594 6.003795304558118
Pt 6.2279352031847655 3.5739220390470487 6.042213988508015
Pt 8.667112801915101 3.792220111968726 6.040760784557808
Pt 8.436604372241131 6.227937170562109 6.001580236151662
Pt 8.218308706064073 8.666772925496304 5.965377115462117
