9
Energy = -36.82728987 eV
Pt 6.108610157624745 8.467778089223401 9.694482356413507
Pt 6.619014872773826 8.25308827866196 7.1432459573787925
Pt 5.871984476973599 6.119240416721591 8.435443956591756
Pt 8.438928170157814 9.988405174846344 6.462315823564722
Pt 8.304781748508855 6.295974710880906 7.492759475839003
Pt 10.144203935803 8.028124732937334 6.94452629577956
Pt 7.969047369186763 6.639531813431692 10.032222228167853
Pt 8.548553153974487 8.84759019096543 8.815470582957317
Pt 8.219401444159608 7.5847919214938 5.204058652470572
