9
Energy = -36.75162629 eV
Pt 5.238883758185859 8.89126460757384 7.127984144557495
Pt 5.740274151604004 8.0980180558003 4.767134377159445
Pt 6.209651929819784 6.826990447893644 2.666884344953835
Pt 7.1135389951015675 8.137683582228567 8.683681493385858
Pt 6.526531013508171 6.741139096217349 6.739690444736227
Pt 5.998884622930237 5.4548168765095415 4.707619314875233
Pt 7.862183529272407 6.115624756794508 9.872305777348323
Pt 7.30839524144981 4.7682575473958515 7.895938620053475
Pt 6.47974396953945 3.4442922409976955 6.01684869434155
