9
Energy = -36.35578312 eV
Pt 7.382023904761593 6.783795478370711 8.829723977228388
Pt 7.464231939365413 7.216885437869547 6.195231702477568
Pt 7.7750140965413665 4.880047136388712 7.239841362879185
Pt 5.32275782926384 7.4218900444431215 7.490970743554735
Pt 4.074371187171097 8.558418646281448 5.578094227340293
Pt 7.567964557502186 2.90683653768478 5.782927904023798
Pt 4.160517116800677 6.001482517502105 5.6469547426112605
Pt 6.321866441905799 4.881672411682246 5.027238068431733
Pt 5.889510069205574 7.307381555918854 4.167073391493291
