9
Energy = -36.59912982 eV
Pt 6.791073134480322 8.315158089201585 7.445501237947679
Pt 5.26496862386292 6.791073134480322 5.44533851205641
Pt 8.317177645097722 6.791073134480322 5.44533851205641
Pt 6.791073134480322 8.7804940195486 4.9434659238963174
Pt 6.791073134480322 6.791073134480322 9.56274665493567
Pt 8.865253002349297 6.791073134480322 7.944150082312523
Pt 6.791073134480322 5.266988179759057 7.445501237947679
Pt 4.716893266611349 6.791073134480322 7.944150082312523
Pt 6.791073134480322 4.801652249412045 4.9434659238963174
