9
Energy = -36.20152185 eV
Pt 7.183880942222745 7.9343176230139365 5.090746749915319
Pt 5.811195275661729 8.69625337051752 7.2523806801431885
Pt 8.185512167587648 6.877833469805809 7.2679054021135325
Pt 6.826501728854855 7.577926674028134 9.298881954488584
Pt 4.727482798998913 7.296477784284646 5.379524394846876
Pt 5.691945616522091 6.014493790375248 7.587077447180269
Pt 7.423662407815497 5.4020706270061645 5.3403911173133745
Pt 4.978427747543954 4.706894545843346 5.535892833526978
Pt 6.794718906648143 3.043999668470946 4.990561442435184
