9
Energy = -36.31916273 eV
Pt 5.571075187048485 6.110921907691283 3.846766973768564
Pt 5.161312437974173 3.3942133665588705 4.7014518883368215
Pt 3.198424192757219 5.183231574709681 4.565882896041937
Pt 7.928690654769008 7.017464540421271 4.362145522233581
Pt 7.2781003588996205 4.685433797731616 5.193809920846784
Pt 3.1713669530139 3.2611679054856926 6.294125787525651
Pt 6.730421765179095 6.877833053300725 6.675151275597963
Pt 4.317229722092149 7.0886985919103225 5.884208868830452
Pt 5.105625671513601 4.8432822054377835 6.938703810065361
