9
Energy = -37.00491957 eV
Pt 9.344830373277173 6.53191261410376 7.059000251872567
Pt 7.865795258220277 5.579785650085751 8.879599076839183
Pt 7.414345074020082 7.751809766768264 6.1251349894031595
Pt 7.391544362000984 4.936777483398422 6.403435273628323
Pt 5.89214159506509 3.929463677183429 4.7460298503345095
Pt 5.9555110637359245 6.857192912946915 7.971145059790298
Pt 5.171814567098321 6.200483440295946 5.339571075422924
Pt 5.450444803432613 8.776142518196764 5.038501364684118
Pt 3.9876551110664455 7.9105141449371335 6.911665265941687
