9
Energy = -36.70149756 eV
Pt 5.164436720078039 5.526512222025478 6.967473116931965
Pt 6.585147100689868 3.9530993703508868 5.546177991794333
Pt 6.055955660067451 8.173159874704508 9.173932165232747
Pt 5.0481732060371804 5.66719371590805 4.437891328460087
Pt 4.308511813592188 6.42534336445763 9.026152437502134
Pt 6.912846737608646 7.412781411810977 4.592293097263142
Pt 8.408897435434216 5.739622989296626 5.722007100092315
Pt 6.967771299408387 7.301795568908556 7.119633608291793
Pt 9.001247608727473 8.2534790641806 5.867426736074682
