15
Energy = -10.00300651 eV
Rb 12.682084344549855 12.465263743736266 5.270553077375004
Rb 10.000571429003864 8.317589933216928 5.380090751041016
Rb 8.271596386440239 12.035239300719487 3.2866850746931164
Rb 14.600850874878272 7.988675950878558 5.708002101861936
Rb 5.438754929777962 9.962578978051027 6.448335891021159
Rb 8.970655565443968 12.771223186107251 8.011611006647826
Rb 8.317830790372717 8.296657675786095 9.820852548770391
Rb 12.155782753018164 5.635884793750636 9.009256996351219
Rb 4.1284189086797545 6.544744295893127 10.465146125896272
Rb 12.638614636286585 10.392719216461758 9.377782010465616
Rb 9.202719609033439 11.564727730408004 12.974412828590944
Rb 4.744960150665833 11.212852237038804 11.104991582660032
Rb 7.874915600700442 4.178598397107472 11.835196140286014
Rb 11.125532165415207 7.148726687568229 13.509359152187363
Rb 6.482543042310404 8.120349059853226 14.433555898729109
