13
Energy = -7.30165174 eV
Rb 8.48115718690083 10.514839963743702 3.435883136507921
Rb 6.423742579252659 7.88738907072834 6.63021895410242
Rb 10.779395104562125 6.879473613110147 7.352530111405807
Rb 13.040707149821433 10.701446051754326 6.09382109583103
Rb 8.821107861380765 12.10869036957826 7.60580348769129
Rb 4.299996591867035 11.846136957533847 6.310018768325343
Rb 15.113280722689174 7.830259403640628 9.348450661244696
Rb 2.87254117038355 8.347342693980597 9.510048051379185
Rb 6.438879344535601 10.61063421275219 11.160046751823119
Rb 7.481853460502685 6.083629000017136 10.680996857252945
Rb 11.109361768523618 9.849939957068901 10.921445955594082
Rb 12.240836435745974 5.5435057982586216 12.301322462177612
Rb 8.939241432375088 7.838813716374469 14.691514515205089
