13
Energy = -8.21837506 eV
Rb 6.9023993625033775 5.969987647165778 7.212020960623702
Rb 6.099672673994062 13.90642767179507 7.183800836614309
Rb 8.267253055983822 10.182128306075649 5.320783353672487
Rb 11.22497524591841 7.866940319679063 8.237483294580427
Rb 3.704907569483378 9.696881187314638 6.369664280810505
Rb 14.763111174812325 10.038399340901888 10.6680697300641
Rb 10.872354969982407 12.530378912562012 8.400299095791661
Rb 10.781776296108584 3.2192554225731502 8.707512811533624
Rb 6.830414939473617 10.037499263957761 9.855025211793981
Rb 8.521252093362714 6.045913689471276 11.722231207613184
Rb 13.228278026286317 5.806507825844538 12.050924964305848
Rb 8.021218967983794 14.395790176267495 11.47098216394155
Rb 10.603307108914505 10.124811721198858 12.622123573461485
