17
Energy = -10.70197178 eV
Rb 7.606425785832892 6.070577295328941 5.130522747321372
Rb 9.4243138535549 10.438481474432619 4.466379136681721
Rb 14.061930490100714 10.19944881427801 7.0995855986474385
Rb 4.4827521630053075 9.538098629285923 5.493279249989425
Rb 12.238180995395735 6.33676323702657 5.366011825913066
Rb 6.452131437355098 13.268058765428357 7.252277387029187
Rb 4.944184579633752 6.387776662303059 8.964711875285058
Rb 9.130056986221131 9.145896047741992 8.912363445618873
Rb 10.988392036962871 13.4318173711778 8.485748155115969
Rb 7.663915249313835 12.832282581263584 11.953817593326386
Rb 13.11524390693097 10.774461182454438 11.72524573631351
Rb 9.64668901877013 4.650935140376735 9.452645944956789
Rb 14.112298581094912 6.378381761840954 9.6735986727208
Rb 3.7782753247626544 10.736466567354636 10.140076813174156
Rb 11.380320154377522 6.691257123334266 13.381302713083794
Rb 10.052455858847729 10.747533031775603 15.392368063468894
Rb 6.78746970439975 8.23680044115702 12.975101167914527
