18
Energy = -12.47617251 eV
Rb 9.020868353333173 5.613675882770724 3.969630731525388
Rb 8.161648473120973 10.354962495394261 3.6995225670200798
Rb 5.449210651424903 7.702987255604396 6.915149761280764
Rb 12.662436630704065 9.364818771629043 4.751649072862738
Rb 13.4327105682044 5.131595585946657 7.1606679843676675
Rb 5.321709523826872 12.479573802155837 6.697508795018522
Rb 8.507682498776148 3.5247840993233783 8.394529041050513
Rb 10.241747008810226 12.9347762154915 7.15754215688686
Rb 9.893019794184685 7.684511578518027 7.77124383635675
Rb 13.423289260688692 9.245837641408247 10.095061823665306
Rb 6.966851896753706 14.669301944606348 10.652724527510456
Rb 8.26113878619891 10.460330850685002 10.368920346811525
Rb 11.684319209365546 4.840691781074037 11.647452957608738
Rb 3.844673155895998 10.41892571950959 10.71130269808682
Rb 11.255408163140423 12.995035078241088 12.439292556595364
Rb 7.210880585642323 6.446721882231229 12.162863509814747
Rb 11.156972468937045 8.63057237335406 14.251833149014036
Rb 6.907057596852223 10.90252166791538 14.554729110383443
