10
Energy = -5.10219101 eV
Rb 7.586887428613611 4.699118536788986 6.139820506970782
Rb 9.370700011977872 8.97850637784243 6.130885034476461
Rb 7.124073874193662 12.662223088527105 7.9770317736442085
Rb 5.576571800963427 8.124464628431923 8.701182117013884
Rb 13.130758724403492 7.716448449649603 8.401741723146394
Rb 11.567438083057874 12.133891244670329 8.999526514486268
Rb 9.291847868791265 6.390944844889312 10.545497900609686
Rb 11.28444601218138 14.124531909171168 13.215778841828357
Rb 12.151418603610374 9.506949771170405 12.784086341987317
Rb 7.858397999905171 10.60546155655687 12.046989653534624
