14
Energy = -9.33680891 eV
Rb 13.906574531663622 10.022188979477473 4.663463677603546
Rb 10.360116300842964 13.159385976752366 6.136994389959119
Rb 6.2659603544331475 10.825647542808408 6.720051158849454
Rb 10.10284903194068 8.244679502391932 6.902366386782678
Rb 14.250038945839814 6.402311110188294 7.956638432153731
Rb 6.491820773717094 15.174611039562492 8.48138141040481
Rb 10.414027516629748 3.8926801113448017 9.349189958126459
Rb 6.558395605401595 7.19977658304571 9.688811810996842
Rb 13.164086544698561 10.883365586671072 9.21871882787894
Rb 4.122179165710096 11.627282219668757 10.913557127821356
Rb 8.783744129167275 11.588802238519651 10.5816693955295
Rb 10.949377342921789 7.65769103188285 11.798440645913185
Rb 7.809793675843895 4.2270109846516375 13.313844948937932
Rb 6.476479488949194 8.750010500794644 13.930315236802068
