14
Energy = -9.27761068 eV
Rb 7.884155587738486 8.605890866761516 3.1865516360832964
Rb 4.095686436252414 8.39812891606016 6.058321698822911
Rb 12.092798503660312 9.323343653202818 6.462251114200764
Rb 8.802383709254766 5.655962452524711 6.55005407044305
Rb 7.891333825994765 10.698129482722116 7.92021317287888
Rb 15.153462431310844 8.64693909123519 10.331418483437087
Rb 3.5833386313062476 11.225771269248675 10.02840884833514
Rb 13.551982563894992 4.903050917103501 7.622349482849256
Rb 5.873990966338726 6.973959230233488 10.334806933038454
Rb 6.838240901490292 14.45884715286552 11.290510720185843
Rb 7.940168028890317 10.480238793864878 13.235665870227482
Rb 11.595240614588015 12.130435296842448 10.346222663198409
Rb 10.556970428017786 7.226014243277228 10.767900185699466
Rb 12.669728718374593 9.802769981170437 14.394806467712499
