10
Energy = -6.27178108 eV
Rb 8.36807518293751 6.437102508352371 10.22302681516866
Rb 13.125241821286782 6.815932455431839 9.054421594015054
Rb 11.096552519328483 9.832702380162011 11.931044241082368
Rb 11.323956456389464 2.9149696460553325 8.068225948441945
Rb 6.434390227800843 10.124471434264427 12.120895324343635
Rb 6.7746152420075445 10.09105959091744 7.533937414898342
Rb 11.374834347831394 10.848166178842098 7.170232334900211
Rb 9.073192744554023 13.725159709574744 10.003548811588516
Rb 9.46565810875155 6.82890037462935 5.758314676940579
Rb 4.681289294251361 14.099341666909648 9.854158783759491
