10
Energy = -6.07352288 eV
Rb 4.617946409172104 1.007816038576151 4.001626043282619
Rb 2.0912516111983406 5.4928179045824335 3.0151478337048125
Rb 6.501980486852448 4.481624794927269 6.366077791628893
Rb 5.5059204209362385 8.611138319547726 3.3798460003780795
Rb 7.655450021387861 8.883409424261032 7.6389829066513615
Rb 9.53315834131177 1.6301068707204927 3.353175469807593
Rb 6.468310951818641 4.525543120689805 1.2762710098724606
Rb 1.8090237342536906 3.239615063038595 7.220583494067648
Rb 9.533158341311774 1.27097601492491 3.2637776900259605
Rb 2.937695194835203 7.808551098074684 7.43611040992354
