12
Energy = -7.72745432 eV
Rb 10.369524251135424 8.072883365006252 4.3536994182909625
Rb 8.024239354671813 10.858838870530755 3.5201769670835783
Rb 9.03319977638259 2.8591253912805175 6.609356300387475
Rb 4.216405917402426 1.6904852443209097 6.065422071591319
Rb 5.575868269203107 3.341069223567949 1.810238663369027
Rb 3.3237653183606835 7.6988280112148 2.2093645706239977
Rb 0.7032388995671024 5.136342610287866 7.730011684994442
Rb 7.4635203528417895 6.906261886212365 4.398429922007284
Rb 5.408291292235692 5.555167860406605 8.436558205209998
Rb 3.0416645511408706 9.242324263401674 6.631982731788119
Rb 10.369524251135426 3.354397116363031 2.0697015138218973
Rb 0.9400597168452094 3.7535781083292887 3.2263607408147155
