19
Energy = -11.06437029 eV
Rb 11.484327794720688 9.385896709695718 3.6167177539364967
Rb 6.560342917481186 9.794029518408923 3.0753995659122237
Rb 8.911101260049598 12.892020084572458 5.815458919917939
Rb 12.631263030776307 5.856357619328437 6.938577438954872
Rb 8.564126076232643 8.07097346641284 6.832449088414635
Rb 12.717160590266733 10.489542740819811 8.095178061990639
Rb 4.533449844300539 6.129306548790473 5.980871289257319
Rb 4.568778903058851 10.79424561894779 7.324535642539038
Rb 8.239648504618007 3.716581029255002 8.512148928109143
Rb 11.101497259361881 14.744828504354773 9.848228109467684
Rb 12.49429783842793 2.9428342075462086 10.701320244977598
Rb 8.307058749750318 11.176761692163144 10.209088548902061
Rb 10.268200785966474 6.853402696128313 11.36814791182375
Rb 5.471820729707355 7.237810258955852 10.603256463323412
Rb 12.15238779021348 10.94911126281004 12.935464482728014
Rb 14.866590530341446 7.312798669776448 10.89194694685854
Rb 4.2413010031164 11.674700069824041 12.188384588023386
Rb 8.367459951270936 13.986620508842359 13.831051164618597
Rb 7.782206446029717 9.255198799057853 14.494794855935442
