17
Energy = -11.68678176 eV
Rb 13.144705577826974 8.90179421213783 3.9535346626368684
Rb 9.056776998240622 11.742184405286041 3.7102677984980463
Rb 9.00158808090186 7.256972616909191 5.3542418161623955
Rb 8.276756370734178 14.967981710716709 7.369506616572629
Rb 5.312533629131472 5.875836408167307 8.093039062361534
Rb 13.037950276529205 6.699461262948695 8.122873027914816
Rb 11.580510720564822 11.44788103285 7.609293119012506
Rb 6.151621816602293 10.849787807114504 7.295865762793346
Rb 9.54877844331753 3.6389146944950737 8.763334884978962
Rb 8.832436508051343 8.219619686025672 10.047807706347344
Rb 4.6060912231123465 9.29378576444636 11.86154106066422
Rb 6.531193916356073 4.849609474274064 12.60029726167014
Rb 11.828207308464144 14.959859587475691 10.680279138391688
Rb 7.665044146359108 12.859211731288962 11.536454150498093
Rb 11.376751653989734 5.592055269396519 12.737265082328813
Rb 12.273063071383328 10.538601829080129 12.261978301210169
Rb 8.441160619807036 8.971612868759479 14.667590909331116
