17
Energy = -11.71918622 eV
Rb 10.220894904739394 14.643937131870393 10.761686190711275
Rb 8.678762971509453 8.858193949040398 9.029223263537782
Rb 11.287686510787482 12.566357204901907 14.74956217643806
Rb 9.056984534971818 4.3209565416635005 10.629971193538074
Rb 15.121157364279304 10.111661779848799 6.139614601246448
Rb 4.944368624615214 5.100005700071842 8.543585074726924
Rb 11.354099990051102 12.681373826366166 6.701073649530181
Rb 6.090966298229344 8.567340771321462 5.29992214653791
Rb 9.069018294169915 4.802294930895089 6.00283339812227
Rb 7.004519417642297 11.722999929088292 12.894370523602829
Rb 13.625800707117767 11.181065708430642 10.694848729006418
Rb 5.9642548958409 7.068095473997267 12.94483116346079
Rb 11.073843358465735 8.583825251386942 4.272621055137394
Rb 12.815746828111584 6.888295723518078 8.6476219978857
Rb 10.811071341348088 8.280340235711925 13.049138415428834
Rb 6.86756318815726 12.95888668224575 8.015250899584501
Rb 3.88996078204106 9.541069171719574 9.500545533582477
