10
Energy = -5.53244345 eV
Rb 10.869920716356308 9.157406130677924 7.2874676243743695
Rb 10.26049321351364 13.83587784056816 6.098466304768134
Rb 6.980569126039514 6.519186817993678 7.9594935284600234
Rb 13.790042784053842 12.913135848385359 8.530623716413984
Rb 6.63924589106418 11.166554718823134 7.9536770275800075
Rb 6.320582259302522 4.273902348977869 12.107733107662972
Rb 12.35530817741909 9.557706054407776 11.759939678593932
Rb 9.542693493502913 13.054566638549618 10.91446941697438
Rb 7.635401689377185 8.961665280082277 12.08229442279062
Rb 10.585126306810011 5.539381978973136 10.285218829820503
