18
Energy = -12.56488031 eV
Rb 6.451821118707609 7.134859660343026 5.163208676591217
Rb 10.97958388330214 7.004360895536928 3.694850463751653
Rb 13.563907731574842 10.835222921073866 5.685669386358027
Rb 9.007842525894498 11.277532697340082 4.107570197441593
Rb 5.918398873769284 11.405634250010781 8.035643864838912
Rb 9.725415684346055 8.855864607004529 8.050937901604806
Rb 10.288886978586723 13.653053455653316 8.106364578413567
Rb 9.301570626692488 4.16325027996942 7.627980317430899
Rb 13.622594389483636 6.475697998720694 7.666241645704631
Rb 5.378979603495751 6.697367010442209 9.73014488665819
Rb 7.3644478653339736 2.9888570157526884 11.739911093260895
Rb 11.699412180052425 14.588400304641574 12.475859193558275
Rb 10.806910228132853 6.267577718610424 11.811690730911431
Rb 6.906803996223495 14.657683025706806 11.278299793318194
Rb 13.424426446594442 10.697752871916826 10.413226467527545
Rb 4.3733329509617676 10.52302232261527 12.340984263096221
Rb 9.155678700145657 10.684862593304098 12.621047282383504
Rb 6.890930183909869 6.949944338565133 14.311313224358107
