14
Energy = -9.18663479 eV
Rb 1.2628600445652354 7.9063063334277475 3.946393117918589
Rb 10.234863455418655 5.752854874697521 6.864206537986425
Rb 9.29706639429951 1.7096618574543436 9.21088094186093
Rb 8.834595907695679 5.8124521374416265 1.838322504129673
Rb 5.294083127234906 4.2195424314597565 9.956947295926431
Rb 5.300079289806186 0.4575378836242091 7.004789575952827
Rb 7.026685939726806 8.78911244175221 9.051189925770263
Rb 9.246573346151001 1.809741322633814 4.42528940208541
Rb 8.604166744004196 9.946863618144977 4.680695887739229
Rb 5.667949883076552 5.827162326801707 5.29809374389281
Rb 4.138866826713817 11.319787889789561 5.68891259953668
Rb 5.250723254907846 9.252729996102929 1.429745161036561
Rb 1.7708064576360656 3.5217217748713514 6.281324767366757
Rb 2.353636046344002 7.957481829379344 8.606165256379144
