12
Energy = -6.84590637 eV
Rb 9.984889962773513 10.554121004388941 12.336626923879942
Rb 6.050035682281164 10.827805056367856 10.286382003612157
Rb 14.098945096430144 10.979786944179668 5.475748416125155
Rb 14.235612957901765 10.414943360210772 9.989195558265047
Rb 6.552855713137792 7.6654576816247095 14.07910552095567
Rb 7.193020667079537 6.07673247096955 9.657436854569596
Rb 10.174517717455501 11.363687122725809 3.256263119368676
Rb 10.74236381167424 6.076809920364001 12.555398683796062
Rb 11.195416297823312 7.668789428585014 7.907584292790109
Rb 7.041962925029047 9.033946547512116 6.12753815530363
Rb 10.08294348159951 12.233630600354713 7.92770347176281
Rb 2.9812350711933853 7.438089247095458 10.73481638395006
