19
Energy = -12.17653099 eV
Rb 9.072311986657677 10.051233064083457 3.0594608213673156
Rb 5.112883150368338 7.951024026143062 4.98112485437184
Rb 5.7227008854524675 12.827464010123425 5.55150996969183
Rb 9.533281323344415 5.623375962775852 5.313655243464545
Rb 10.466029497742715 13.615233518108438 6.167096424366509
Rb 12.96705550232556 9.316678231526211 6.013248312598126
Rb 8.568559579456412 9.572527696467548 8.003016308080744
Rb 14.135169557355777 4.729753152250499 6.70751919622328
Rb 3.854115653652401 10.118775217547192 9.23963071691866
Rb 15.282352948089919 8.13997227861313 10.18533047859489
Rb 10.980992500868489 6.019379714322346 10.028031941245557
Rb 6.151308435096889 5.519268536957773 9.10369673320401
Rb 12.140637978013514 11.75195093707007 10.363883086993448
Rb 3.5659351797741135 6.8459509452696095 12.901388731207662
Rb 7.421518084836765 13.855892570788603 10.055778994514291
Rb 8.14875404768945 5.0959481136884035 13.701399047952334
Rb 7.401624405290262 9.618460117680204 12.613274104912055
Rb 11.947071982776619 8.549401397843955 13.995270107431987
Rb 9.868651422175022 13.138664629707474 14.356639047828327
