16
Energy = -10.85583667 eV
Rb 8.703568627045044 7.04810892944223 3.480386549374725
Rb 7.706438342776234 11.468712534730358 5.338244997123382
Rb 12.760552504646112 4.74655515029452 5.076909751079199
Rb 5.739016384898386 7.191584577617277 7.240208684587639
Rb 8.537758655638632 3.4530217255424764 6.802347889942452
Rb 11.888756287203917 9.153362382554127 6.5415904681786
Rb 7.1020705900736045 15.9659725536517 6.605752746319482
Rb 10.45047153006507 13.820648753249472 9.324697868503842
Rb 11.944172327951524 5.582484550851953 9.824790373907724
Rb 5.802671440874462 12.903321175603672 10.25687550500485
Rb 9.383362091364269 12.443139298446575 13.869413804317848
Rb 13.021646551244897 10.429696258638522 11.61743259403441
Rb 7.49364890157218 4.8999020650760245 11.34680116690494
Rb 5.75785839984386 9.343440297043829 13.515120827710243
Rb 8.791517590054612 9.286717586912875 9.92331047888334
Rb 10.22206440161726 7.568906787213662 14.541690920997064
