13
Energy = -8.4810163 eV
Rb 10.792095783299246 13.690891112176878 3.988709542589327
Rb 9.509538357417698 5.260441168690862 6.852148380535139
Rb 9.278410618597196 10.071278795912642 6.743859111050836
Rb 5.302485003103836 7.452037691167654 7.312257140707225
Rb 13.55221956159643 12.350055842262949 7.590198722329008
Rb 8.875334395677683 14.810287242605272 8.164743939729725
Rb 6.100018961559351 3.2506514622197633 9.755941816287544
Rb 10.66558985996572 3.3519932503909633 11.145154249192311
Rb 12.815739316193351 7.978237139608535 9.496760485157733
Rb 10.766480793269857 11.909045867256715 11.484443816617949
Rb 3.7997089381965674 6.868447076143842 11.862405271912829
Rb 8.43494662136843 7.494432730004942 11.326802430732373
Rb 6.076088863216519 11.48085769502101 10.245232166620042
