14
Energy = -9.3349312 eV
Rb 9.32357462174428 10.509576940514716 6.272785929439274
Rb 5.036045565773925 7.892205946664914 7.074358376757126
Rb 12.297935510172541 13.746124598420169 8.95180434409209
Rb 9.700584254664166 6.239806642480571 8.101781138916252
Rb 4.718670278830114 12.342071604636978 5.280146322288949
Rb 8.281114143871156 15.149836036555588 6.85740232727895
Rb 13.49212518572998 9.069340724520346 8.052784512284417
Rb 5.511875673997432 3.586903157964284 9.003220789980652
Rb 6.274043543350746 11.823961387681207 9.818101282974988
Rb 15.034714782820013 10.985783692749488 12.106247806599429
Rb 12.795279684916911 6.472335967547351 12.195039892063976
Rb 9.378948366362238 3.2447265343050526 11.838791264746055
Rb 10.259578672964066 10.402779252851024 11.576536863931649
Rb 6.769156511263413 7.408194309569306 11.744645945107349
