16
Energy = -10.75991671 eV
Rb 8.14978030063012 8.663489176778908 3.864483697859038
Rb 5.177625955321961 6.547718010728461 7.078399964572153
Rb 6.406032544333008 11.045145266441237 7.514172160108072
Rb 8.740314024645684 4.042387367037257 5.089718007747212
Rb 14.083207169403504 9.123522019889036 9.215925867012057
Rb 11.005901226752156 11.452571279689128 6.352414370820258
Rb 9.73855039488369 7.199492495280913 8.254412404406537
Rb 12.700610972404013 7.079344724154085 4.8076156419900204
Rb 2.5043730056103155 9.801712727486548 9.838831151306517
Rb 13.576100727340968 13.90237762152557 10.158984112568874
Rb 9.977728257217317 11.351662743868273 10.878149120849988
Rb 6.67453605751282 8.05373313632569 11.511961656122356
Rb 11.455405906988538 7.090795608151303 12.740283409586599
Rb 5.529144146902376 12.302568774093706 12.682774065953058
Rb 13.942590858862824 10.79853470531338 13.80610537138548
Rb 9.387184997713932 10.594030889760212 15.254855544235319
