10
Energy = -5.92331439 eV
Rb 8.846576054142254 11.189151730736828 3.898423468377834
Rb 12.005859491515638 8.665670545753754 6.7812376241489964
Rb 7.702762374202425 7.393100471732172 6.93243380124131
Rb 10.814857631714402 12.778622502190101 8.205943026944004
Rb 6.521286808030501 11.477603608489611 8.322566587923102
Rb 10.551509766207252 6.005022641990404 10.45361084123672
Rb 6.687992932560038 7.995286925881078 11.527197024284646
Rb 12.765284217766661 9.813789847746463 11.294689550475406
Rb 8.891563823624738 11.813250278979176 12.422703281642994
Rb 10.137864816761601 7.7940593630262285 15.086752710250497
