19
Energy = -13.26570271 eV
Rb 9.635354539102243 6.190273524203643 3.3013540452044814
Rb 10.591761100950327 9.890734644312335 6.14467223322026
Rb 14.15765666278227 7.763050950223525 4.565700346849399
Rb 6.638054946533426 9.9667233479573 3.715513892569527
Rb 8.811274882914534 14.178951257177367 5.837449095910905
Rb 6.6889205174012245 6.294351410319939 6.969809434898363
Rb 11.418379353254181 5.127799567987016 7.603508325476671
Rb 14.19872560595908 9.015693954871802 9.357526488268617
Rb 6.437907748160378 10.997397757401721 8.251685187751427
Rb 3.2751314388072243 12.249935767869356 11.100621598195415
Rb 11.142543557731639 12.92090995146312 9.94073985749067
Rb 4.92306443614363 7.601723086429369 11.45910009004953
Rb 9.57277718179939 8.287329446979376 10.431939416436862
Rb 8.033555730841911 3.9519345863824213 10.996633498334333
Rb 7.079683261500808 15.288614583758925 10.213515161350049
Rb 12.692124048702965 5.482133058235353 12.376033958194558
Rb 7.639187983815123 11.535523175687086 13.110493769598602
Rb 12.337235204256665 10.10158331869347 13.679657026143177
Rb 8.507721217757197 6.936396028461095 14.725105992471827
