18
Energy = -12.55104197 eV
Rb 10.912587162244085 7.766150225632133 3.7313000009576904
Rb 7.029443895664976 10.203440474747248 4.654518951565355
Rb 7.68969349506667 5.375196597737647 6.493409757526304
Rb 11.66451459982836 11.497434353791453 6.433459796319839
Rb 4.0028989056023985 7.998490052494204 7.808837269440487
Rb 11.847241650049375 3.4538810010331513 5.5482984937954765
Rb 3.1431372608979466 12.363490834549184 6.521117503237162
Rb 14.151909451405482 7.435031530335237 6.931989693505503
Rb 7.410387352922038 13.863393674825906 7.507575787638145
Rb 9.959348570150766 13.150918776832496 11.410098429075283
Rb 11.095142745737595 4.928995906445074 9.910318283024846
Rb 13.332071126429396 9.66960583017483 10.906191506837205
Rb 8.856222612461737 9.201108680692618 9.060970045051821
Rb 4.948376231830229 11.367419663222512 10.895114740507541
Rb 6.586692169054204 6.539687051968268 11.78868369969242
Rb 12.24752849693874 11.369985791921495 15.091656442953717
Rb 10.755679746301999 6.900595231086377 14.098008743681017
Rb 7.664933613378493 10.212983408474665 14.50625994115483
