16
Energy = -10.77493954 eV
Rb 5.4743458464173225 8.520292904715399 5.411010027861169
Rb 8.193577272291115 4.44988027168333 4.797101775460018
Rb 4.335606317274465 13.074334744128814 6.803466590523004
Rb 10.601981329469428 8.526787296630378 5.9297764409902145
Rb 12.6004710641088 12.220479180077247 8.246411160903419
Rb 14.98079749124533 8.38257282278826 8.069490574404092
Rb 7.825283762988424 11.21206483928168 8.665757798138728
Rb 11.816818735799187 4.654812424756519 8.131277801064899
Rb 10.872368342641446 8.568776833747883 10.771180350281716
Rb 7.0845054667473315 6.310130446035469 9.107758203474603
Rb 3.3388139339381966 9.268306861349036 9.77295451642516
Rb 5.093307565355863 13.483849453455894 11.677588916040841
Rb 10.037207701554136 12.868486547872813 12.573910075390643
Rb 14.62720721368102 10.821932166533594 12.29846821756655
Rb 13.981223505572583 5.922952645531037 12.299397694418012
Rb 6.586658991271637 9.164515101768632 12.894624397413388
