11
Energy = -6.91703052 eV
Rb 5.318152338995117 2.8494558348345085 5.161463569715262
Rb 0.03875894140355769 3.126628185926723 4.006553123518846
Rb 9.92915001558878 3.598486967587258 6.680955404546907
Rb 7.971777846891796 6.351704543231832 3.268366200682763
Rb 6.773747757726717 1.213541013972625 9.462776374516984
Rb 2.2076628876151894 5.556825254701929 7.496643737920762
Rb 3.1329156245556335 6.35504163192521 2.5887646321907565
Rb 10.185176431148987 8.347522875950709 7.060401807445699
Rb 6.59623101581436 5.914511615970875 9.251666462851956
Rb 5.372156228959073 10.346355290092804 1.5878371445880892
Rb 5.2483702393356815 9.114026113840096 6.208670870056877
