15
Energy = -9.99724607 eV
Rb 11.379636885434293 12.63045557046147 3.6679174511480324
Rb 8.759333605019084 8.501117998489383 2.832636393800126
Rb 12.542556070480005 8.415188237633652 5.589273664526014
Rb 4.785109260127013 7.563648025893627 5.211173823127334
Rb 8.379440915008523 10.880976760367504 6.812077228819405
Rb 12.55425094508864 12.50616491506912 8.289822652988377
Rb 8.666836459617771 5.986607642941652 7.123326309464383
Rb 4.178085277617561 4.5471228245344255 9.06660169953065
Rb 11.366873851857084 8.126286680786752 10.144301872525249
Rb 5.509224220770089 8.898753394283824 9.742172298217902
Rb 8.68498120067973 11.602284054127937 11.592047120834684
Rb 7.899906025450936 5.475140668107849 11.936025678394003
Rb 13.348717080165963 11.5009679165153 12.912815707998266
Rb 5.628643652832891 9.02178326684872 14.311008677935588
Rb 10.359069314966547 8.386166809054153 14.811464185805331
