15
Energy = -10.0465571 eV
Rb 7.538214689500711 9.408050319684898 3.249830156712846
Rb 11.78239795871357 11.093654390106458 5.271348724045009
Rb 5.838125677883917 5.272050376858082 5.147717774582443
Rb 15.207940142556248 12.280825109719292 8.469822717222646
Rb 7.386297772652493 12.429116631760277 6.941365879492173
Rb 8.882408551164184 7.9073069391053075 7.451151251574142
Rb 4.134383250730816 9.183392353770028 6.95906975201692
Rb 5.48669851100646 5.82717405068572 10.142801184027697
Rb 13.434511979707219 7.889051790602666 8.596549940294878
Rb 10.86112749715063 11.630496329013232 10.121334481598256
Rb 10.186287437710302 6.95017545052789 11.846366413113781
Rb 6.484824867971 10.238491618375425 11.109355202068203
Rb 6.345619864156195 7.127885725778335 14.768009349561488
Rb 14.175669728949353 9.852771192266024 12.741705584371413
Rb 9.844127383456932 10.498193035056232 14.772206902628906
