21
Energy = -14.7905968 eV
Rb 10.660877141616062 8.056476363454879 4.451626918617775
Rb 5.971947390270505 9.69790131046958 4.623792596241127
Rb 9.81808311415486 13.03425150975901 3.892573536919773
Rb 15.068622550545616 6.787863975502666 5.74449411844294
Rb 13.594585512238561 11.295575068891358 6.809462424502603
Rb 7.470019994676021 6.233167836406072 7.501529000640536
Rb 6.123235542268261 14.144230560516107 6.88542532857995
Rb 9.100164373586953 10.776276706556047 7.91904013366255
Rb 11.329789407184816 3.755258041481391 6.603419268213429
Rb 2.9136260244000916 6.580441234521799 6.760061005867505
Rb 4.51885520040756 10.19665924362492 9.241327642022762
Rb 10.79990093098982 15.103113731955396 8.35559991699582
Rb 12.284563600263198 7.446388729476025 9.326669409134485
Rb 4.668818082818356 5.773115840027472 11.339663501214579
Rb 7.585623852049493 13.389504564883238 11.589666434990601
Rb 9.48371408324455 4.1563328380106475 11.32419340033567
Rb 8.213856647722828 8.66626288932437 11.867231621736387
Rb 12.113717920488032 11.691604476666555 11.639893197047298
Rb 12.159378709778801 7.332448098073834 14.031714455253722
Rb 7.755377056082484 5.8829127427581716 15.531977249374563
Rb 9.36897801251931 11.003949384946333 15.564373987511948
