29
Energy = -20.96173177 eV
Rb 2.0902343971702626 9.888347021238125 3.542923629332578
Rb 7.175284156386897 9.812672898740228 2.668577156829162
Rb 4.427531141105785 5.79562008871873 4.196900265709848
Rb 12.790956143633979 9.464765368437424 4.06918694491753
Rb 5.248229733010703 9.418218758184501 6.879188864790977
Rb 9.216485373757008 6.8470819643633085 5.85655565980148
Rb 14.444402384729107 12.95635231748691 7.3519176307799565
Rb 4.861322992904623 13.572001180175958 4.864538630506474
Rb 16.875766875453387 8.731949090069604 7.314746618663647
Rb 1.3767130735599962 6.790498601292059 7.916287305644534
Rb 9.47326273532691 12.070187431350867 6.344772827718626
Rb 13.71943672585283 5.053409742182981 6.405698708706102
Rb 5.7679026446158845 4.961378669835474 8.874692746426705
Rb 12.546984465222884 8.92095473276914 8.709749811063475
Rb 6.156513387666305 13.137794970169919 9.814126349597922
Rb 10.587890967798403 4.622526787314926 10.042385353288177
Rb 10.91054740850531 13.109030834484043 10.776307311458469
Rb 15.215942774921796 5.699332133529692 11.074875197188796
Rb 15.068610433172621 15.195302976725808 11.549602205833548
Rb 1.4903905724066153 11.605383479080034 8.01781713432249
Rb 15.72583887915938 10.57113012430073 11.691266266854297
Rb 7.313740435538187 5.848715803304496 13.453964353512308
Rb 2.5116227438985956 4.526948116271408 12.043949679890279
Rb 11.806584982839917 8.165494227225935 13.496642321886416
Rb 8.396516238521611 8.958943857522272 10.16229344429391
Rb 7.9346352692787985 11.152134773226967 14.071338434657529
Rb 12.199297620873411 3.620559099084796 14.282914059080545
Rb 12.83712634559515 12.493432678457628 14.963770267170583
Rb 3.8576320657807557 9.03723524314316 11.590413788760754
