21
Energy = -12.98701632 eV
Rb 11.641689960344408 9.28601095166104 3.603049956143537
Rb 7.559132910281898 7.039851322539836 4.884470992419632
Rb 11.83703986685751 4.9216517552901475 5.63868866374262
Rb 8.38610633145242 11.974973657938506 5.947332719292824
Rb 15.431934585757023 8.290553179181678 6.768180816789999
Rb 12.933689959717546 12.789829023605687 7.128765585429106
Rb 11.044597764376881 8.749933879496714 8.187058745097488
Rb 4.146125359026002 5.6969955918286805 8.032693512956305
Rb 3.9446490654734103 10.062415812809892 6.004164667512013
Rb 9.551430061823709 16.098472205893447 8.378010622614928
Rb 5.526190106529804 13.5285507285117 9.443651586811981
Rb 6.923498971925949 9.168092797138263 9.475437447020902
Rb 8.722110917396218 4.756458398258549 9.32144847658036
Rb 2.5088339338486763 9.577985589016244 10.830122981265482
Rb 13.25697258521574 5.4981636171998565 10.55112610367557
Rb 10.121056903689578 12.706089280631055 11.242244962890561
Rb 14.276086329172713 10.322409853758918 11.223322774479675
Rb 5.878633830571491 6.232734350195458 12.846290810831892
Rb 10.319101901457014 8.520765696033035 13.21510796947557
Rb 6.3422467862962035 11.120199485884319 13.728014011336997
Rb 10.122265446874732 4.131256401216052 14.024210171721473
