26
Energy = -18.59203754 eV
Rb 11.561487510002106 6.876244429681887 3.603159795009816
Rb 6.068408950276719 13.07241857315676 5.526059502231655
Rb 9.045422262002159 2.858028641644475 3.0057470132155046
Rb 13.889975630577549 11.386852235520946 5.80821271100537
Rb 12.277049880923057 2.6790027158033043 6.385369132910921
Rb 6.632302670753142 8.429656154255929 3.1956887723102834
Rb 9.576411391715219 10.202962923765938 6.245692467084773
Rb 12.901116603877623 7.210714108919993 8.182792346769293
Rb 6.256796126535552 16.74742666254042 9.164952524634849
Rb 10.484100780846324 14.868772438546305 7.349269129064089
Rb 8.17238301645093 5.524680404384102 6.615083610706833
Rb 4.684977667876399 8.81627304506567 7.624074270217478
Rb 7.8943448562896625 0.9744647920615647 7.5323520137203
Rb 7.4427894964796195 12.397796331784212 9.910635673831948
Rb 2.9382122693127357 13.283498999206582 9.577943886300188
Rb 8.783749398467323 8.129848162905192 10.369946138607444
Rb 14.919051349385615 3.486617867049941 10.174077013892925
Rb 5.351256639743837 4.896392273483525 10.352504081225415
Rb 10.204570038591164 3.5798254304973947 10.672273298486981
Rb 9.91932918339196 15.698625770577584 12.061159482032703
Rb 12.629127982354737 7.44527078534084 12.963823177472811
Rb 4.612035820042808 9.341575987573314 12.370726770773071
Rb 12.414225947148223 11.523283855618606 10.363929110495034
Rb 5.5114235233873785 14.39531859877907 13.586425038770745
Rb 9.064178316143163 11.03574181151087 14.104006594620964
Rb 7.87901322441019 6.2524475373107755 14.367836981592395
