24
Energy = -17.14460102 eV
Rb 9.95712205685129 11.436078266330778 0.77139203621525
Rb 8.225363340200177 7.26188877605771 3.669082931763919
Rb 6.924609559443318 12.117515222825974 4.168789401236745
Rb 3.837695641481101 8.333883256303464 5.790043889198906
Rb 11.522867924753248 14.896178169090035 3.8348013639359064
Rb 11.785350277647915 10.312398726796259 5.246646865616427
Rb 6.513892592025876 4.743155629746528 7.758040889614656
Rb 11.404073969591296 5.695197362190836 7.261520057605223
Rb 8.000062866630516 9.468305717957865 7.906940370223045
Rb 15.39082715148399 8.532790686015863 8.050664996559457
Rb 13.944810533660085 13.82768976495299 7.857366326778889
Rb 9.165874357477703 14.063181684310306 8.320106929293491
Rb 4.3436887768549415 12.484243083147097 8.526274303231528
Rb 4.009364302654529 8.018648705210582 10.756896287179416
Rb 11.890159415444879 10.329524193510382 10.433874534532062
Rb 8.625686227041522 7.061826848732088 11.527002161373979
Rb 13.239160454819492 6.0365987061570126 12.027990504425201
Rb 9.86344538048148 2.5536065933825145 10.779935932097024
Rb 10.726386517667692 9.492490166689137 15.083029700828801
Rb 5.52561905846743 3.6484103313288854 12.878197841728717
Rb 11.35590461170471 14.203866613728037 12.791791530592413
Rb 7.091878581157059 11.847512087940355 12.517180020651242
Rb 6.050965326659303 7.919490202584609 15.483204060645622
Rb 9.56990628937147 4.680234418581713 15.523942278243272
