20
Energy = -13.84576471 eV
Rb 8.611143619479076 6.829968350969516 3.476294193510758
Rb 8.15814582722256 11.867776214273478 3.301828582898343
Rb 7.395249305675252 9.341223503351285 7.138815123190551
Rb 10.742611086458863 5.459859277350205 7.435055426106971
Rb 11.94504291972961 9.7781732069139 5.384914992170359
Rb 4.956049249298506 13.237751004411127 6.966298360964866
Rb 14.34569472905224 12.462977561135562 8.70834372603105
Rb 5.9513396114914645 5.0250350208393355 7.395858110352243
Rb 9.756547149182792 13.632753703329406 7.4745231564383765
Rb 14.76812968871597 7.5692147959279374 8.78628559735134
Rb 10.749386206225548 9.707594066675991 9.9837470439798
Rb 3.5932410869273252 9.179521555901 9.652986040142276
Rb 7.168262900228046 6.8146451160618255 11.524266529598323
Rb 11.189494512906984 13.835218003994004 12.203406412304927
Rb 8.795966756708596 2.4487122179611225 10.35250161907735
Rb 14.243431133160554 10.062564799518743 12.97963463050405
Rb 11.769213671328744 5.796717683130359 12.226297983188026
Rb 6.774908720169192 12.3882829597708 11.224481163334643
Rb 4.624938317739008 9.739604874675743 14.356447053387983
Rb 9.462856117921442 9.824058693430898 14.429666865090015
