22
Energy = -13.23226411 eV
Rb 8.922099903998811 9.745867863955592 3.4287332123553163
Rb 5.658759916050268 9.45173888013163 6.878844348583382
Rb 6.7613477798767505 5.347067601031321 4.808872446874635
Rb 13.738625878854117 9.656283297611674 5.587386721671657
Rb 2.038327470102695 12.564916986569854 7.1622375917048045
Rb 5.986037061136442 13.66201270034958 4.885101933144412
Rb 14.217980153009867 5.172160252377603 8.473176428157172
Rb 10.077075379971271 12.384445196486881 7.097589874422608
Rb 14.368651023592733 13.694461095128396 8.284102722793259
Rb 10.195191792823609 7.284206140711968 7.185939008825344
Rb 9.783391030374043 2.758225945000664 7.870620865083683
Rb 6.335709382712211 5.520701540219989 9.713458046845213
Rb 6.181554393494303 13.50491389290115 9.670649059401065
Rb 13.399377519160062 9.498948004108138 10.307578658838777
Rb 8.585791007027703 9.574581335304115 10.719069871889422
Rb 10.833231875702827 13.508866588702709 11.636654169729646
Rb 3.868619169695728 9.561211865368103 11.260841812201454
Rb 10.8792778022134 5.442988133259543 11.764356162529822
Rb 15.559950137589395 5.9221476646869 12.852315286967285
Rb 6.969247350266567 7.102392543464631 14.271236148076245
Rb 11.335639573334952 9.433998724116531 14.536284961712845
Rb 7.020315235792191 11.924064585293808 14.321151504971217
