21
Energy = -14.78987658 eV
Rb 10.73452023801259 8.264812996756328 3.4723563660633308
Rb 6.1058036174932395 9.811681556964958 3.845201994190792
Rb 7.221656217232481 5.219478642720335 5.051827618022469
Rb 9.892494986974295 12.748854253625188 5.357884820072061
Rb 13.35068433659836 9.860354470290499 7.227097235949166
Rb 13.599988530603047 14.493958446029257 7.952249428620195
Rb 8.596332878569049 8.877499169587399 7.592073951863169
Rb 4.007385954733617 7.77685169919919 7.829822841012048
Rb 5.567348023703758 12.456559305120107 7.986830849431577
Rb 11.633001308234396 5.211093820493544 7.244236164970932
Rb 7.527724829154638 4.822286081687127 9.880407926897371
Rb 15.378701906447251 6.469880762663121 10.031302145231445
Rb 9.861177346439918 12.766222375841425 10.174311868836105
Rb 2.0096609345050767 11.294886107392733 10.8220671269608
Rb 11.113277594660318 7.983500781001688 11.260437341348585
Rb 11.776803773966488 3.420467323595226 11.719091827359556
Rb 6.190772765570172 9.128325275957824 11.80776811437952
Rb 14.092324302653811 11.43392877353858 11.73240736044933
Rb 5.8940586009220235 13.653595012185992 12.708409835500891
Rb 8.524931785359467 5.985609507451043 14.485945680188827
Rb 9.588139393139578 10.986942962870533 14.48505882762507
