25
Energy = -17.88381937 eV
Rb 10.922050252778398 6.888868637420534 1.8259308174332185
Rb 7.075748560437889 9.756357445364786 0.9179295011304998
Rb 6.355522826468792 5.319142076797119 2.7889848544665785
Rb 11.4441057744219 11.650911546628091 3.0870679954670996
Rb 10.058786160392359 4.199575435563334 5.9498603258837415
Rb 8.286483586786533 8.962612741377038 5.329829030851032
Rb 13.200027156487945 8.268558325249275 6.228366490505892
Rb 3.602156450025974 8.959209727295736 4.744103065869528
Rb 10.055388094635497 12.758604699461765 7.793279578541675
Rb 5.478279152534932 5.606254541334552 7.838189478694766
Rb 13.276962213427312 4.693326137216889 9.901307301888512
Rb 14.530324908617647 12.889361980622319 7.274592752821173
Rb 8.869372931084486 3.1631480461924197 10.819017953719026
Rb 12.373562626779055 14.350559699271397 11.961102850838719
Rb 5.625671942297277 11.213399458789574 8.743777004747004
Rb 2.143148110475637 8.595932083885831 9.911967564201035
Rb 13.687389140918814 9.702695507758174 10.937578443050345
Rb 9.569845160186736 7.6783967578325125 9.38335105550146
Rb 9.013000458102194 11.064478926728398 12.232056020257613
Rb 8.6507856536251 14.205734911128243 15.656728505309829
Rb 4.545151190503995 11.636111056629995 13.627532292949038
Rb 12.386543899061916 11.107360536949948 15.709061386745535
Rb 5.986887108720095 7.027008445266375 12.561737536007275
Rb 10.917454144214348 6.642276007902164 13.996922043743712
Rb 7.810983132546531 9.525745902864701 16.64535678490721
