20
Energy = -7.32718444 eV
Rb 10.109849963298402 8.71598358255228 3.0311321756847094
Rb 14.52458657283064 10.25935602246646 4.534088235680825
Rb 6.173762132390684 11.19712634413194 5.018183583391306
Rb 10.56808864558113 11.610933473161584 6.651714200527244
Rb 12.426237625448671 6.719191487854137 6.782112887927345
Rb 7.634720825548561 7.048210811118625 6.6385512177621555
Rb 7.701052345832559 15.139339317860122 7.739861446173815
Rb 3.2349762198944974 8.130757833566935 7.7544324500768615
Rb 14.320494059308484 10.468541954455935 9.337564672579743
Rb 4.975729314449586 3.5751404240291498 8.263480462990941
Rb 9.520435818029243 4.0264300425466635 9.813888452210573
Rb 9.823344193909586 6.035992035391707 14.251389759435813
Rb 10.639147825540253 13.346066646734753 11.157018976090507
Rb 5.893392445719374 6.780671566825122 11.574428912623809
Rb 6.3872497093047444 14.921266487759068 12.459886824501185
Rb 6.147476724537509 11.206986468779531 9.692515594206464
Rb 13.808189048700108 6.0309094462981045 11.35254355012367
Rb 10.062452946330799 8.690423348972077 10.36515793089454
Rb 12.719082349927428 10.029078904027537 14.024190543780282
Rb 7.871599211096191 10.609461779146724 14.099726101016659
