20
Energy = -14.24321572 eV
Rb 10.585050382227323 9.601362214958346 3.409917485027933
Rb 6.413174179088682 6.725700689858039 3.679446640751762
Rb 10.866935213444261 4.887055511165617 5.022546447352859
Rb 6.08130240819196 11.593554385253492 5.227212911434697
Rb 10.579535632265586 12.806899529603783 6.974645383576946
Rb 13.544274217947558 8.395006836558263 7.06104603613715
Rb 8.315721383749292 8.220983777019498 7.4418022788093765
Rb 6.726390504589999 15.574270447328654 7.963470197084294
Rb 3.5162545277233193 7.781142868680519 7.728479038311631
Rb 6.450921322405953 3.7429678853436936 7.702190985148426
Rb 14.074977528328013 12.069161664134658 10.168050178663815
Rb 10.074618685720509 9.480224622160526 10.860834812694213
Rb 10.696716466997344 4.73008251510706 9.881206697985045
Rb 5.389334153071568 11.467022534400934 10.15890166268019
Rb 14.349951387173135 7.352755833459686 11.740573468267256
Rb 9.421288951868137 13.965943552764474 11.684524931471763
Rb 5.895422826954881 6.420553060764463 11.732096706894604
Rb 12.087366374804263 10.743146352196659 14.653125874253682
Rb 9.946410188872537 6.2278720130813605 14.445090712829181
Rb 7.020611629708228 10.250551671292833 14.501095515757278
