23
Energy = -12.83137703 eV
Rb 9.323882621078717 13.059161257829354 3.1343583442817002
Rb 9.543121235495606 8.073621745757105 4.406632832050836
Rb 5.345864350547262 10.438475006931558 4.891187996018224
Rb 13.195153865878847 11.267386307788827 5.599047581487414
Rb 13.96873149445499 6.348907149509828 5.458715004956007
Rb 6.265246999661544 15.01406538851723 6.508265131503836
Rb 11.155334173187057 15.64494169113599 6.667675103595253
Rb 8.933641243760029 11.530815066652451 7.55733223782135
Rb 9.693334546871014 4.009313924386021 7.154987489707227
Rb 6.502261611325067 7.154431684322273 8.305239854816996
Rb 11.444032304192179 8.001718224815184 8.848336349707631
Rb 8.428840418525564 14.69142917992765 10.941126373175376
Rb 5.881622348947693 2.8644679619963536 10.61642889142844
Rb 4.715370795282504 11.266984101911044 9.766309963434278
Rb 15.851204357963846 9.189843887198245 9.140603998309095
Rb 9.573679986038389 5.220126914817029 12.043044025856904
Rb 12.714583340605014 12.651447246581165 10.396618312732453
Rb 8.575232940571881 10.018763673390835 12.005691682872202
Rb 12.966292409754463 8.748517124036614 13.237809281299523
Rb 5.10028212730294 7.0684285898530055 12.807986149314836
Rb 10.815794941098968 12.728365937230631 14.884946710606059
Rb 6.914011784754927 3.2124418907941457 15.370337410365119
Rb 8.886283624637905 7.590149566554524 16.051122796595816
