27
Energy = -19.33426973 eV
Rb 7.436018995287463 8.735112107395267 5.52482828727354
Rb 7.740120724322571 13.387174254942188 6.495864177574316
Rb 12.087419554172115 10.608993950626328 6.495864177574315
Rb 10.888867550291454 5.9731193891529895 7.4460657708406455
Rb 15.755540617337106 7.513409645118027 7.207258339898033
Rb 8.837208105865791 17.327522263549497 9.58671171902437
Rb 11.709006445395882 13.733116350179156 9.498345885740903
Rb 6.609137018563894 5.932924131624479 8.81666325546612
Rb 16.425675779323488 12.133876579741939 8.870333647685815
Rb 4.849350482094005 10.46519660410165 8.257509412597027
Rb 8.686887647573807 9.700048968207504 9.160097869415715
Rb 14.649931250441137 5.530399065349589 11.437682992366751
Rb 13.176281580384822 9.100637805452598 10.404879473934162
Rb 17.640742277158783 13.633642655682236 13.098876030277482
Rb 6.378408751525172 8.809756236576769 12.796080522598013
Rb 10.292076920313132 10.829683769379946 13.363835077468668
Rb 9.843724804989456 6.008864722070846 12.3360944059754
Rb 17.64074227715879 8.897326989983432 12.556143786310098
Rb 6.870859676347012 13.524760666165877 11.30061880655002
Rb 14.666357692032223 12.584044475344712 13.253082754836026
Rb 13.858636766478858 7.943442488827147 15.25225174481885
Rb 10.933304257191406 15.552500327369344 13.963023551245422
Rb 15.699129271927307 15.695720976884903 16.263434190910342
Rb 7.3206081995906125 12.59750022418772 16.076711737432024
Rb 9.125970979136275 8.016113261070233 16.723318607055372
Rb 17.231672468833338 10.997393425828053 16.888124658121097
Rb 12.542977204124776 12.004893237974974 17.416540601102735
