25
Energy = -15.20602225 eV
Rb 13.658235718427731 9.74293152022344 5.7242731878323925
Rb 8.599886519379316 9.717547157744262 5.641822397706448
Rb 18.360321970926428 9.794411105703277 8.057987350446654
Rb 15.820506858021439 13.853289433161374 8.091436488846712
Rb 15.057702872915055 5.864031236905993 8.491917500708539
Rb 10.88531616392997 12.788761586775502 8.012586816950057
Rb 12.475969268819753 17.175878263554047 9.197472619347291
Rb 10.443892758082482 7.386272790012602 8.640856566255863
Rb 6.572701334350007 6.21383921669636 7.544817187556337
Rb 14.222917367920152 9.963736525549054 10.295907378236755
Rb 18.360321970926428 14.067860221449685 8.886188928096447
Rb 7.236514822028267 10.531751435333312 9.474485933477563
Rb 8.667349946187398 14.695770194600808 11.728388316568747
Rb 17.418235108499964 16.762466721880415 11.501636489346783
Rb 12.495584471195912 6.214026762894331 12.82957516425872
Rb 7.236514822028267 6.661951013601465 12.301702401373136
Rb 6.746791626698461 10.936044496359267 14.412625975552599
Rb 10.291041661751406 10.42739256090688 12.3836978513342
Rb 17.979229440700436 12.215990615679294 12.387787379770115
Rb 13.387974827005179 14.131012623484647 12.388156406961242
Rb 17.2585990098432 7.2696405837047475 12.57774356664491
Rb 10.597999243164756 13.23300515770592 16.093655733553494
Rb 16.25563563355387 14.856290748696361 15.896288945407104
Rb 9.797811882996346 8.293159354927237 16.377614438607274
Rb 14.310952966900544 10.23929460592532 15.161795087282988
