22
Energy = -11.1196187 eV
Rb 12.101830686826856 5.320948014302838 7.128473622365409
Rb 10.948459592459416 9.880069102481581 5.232119070408806
Rb 11.420015991496973 8.764613430024836 10.18428931377329
Rb 8.637594475291571 6.034600103363449 3.7011149230134217
Rb 6.078520757813128 10.258967949182706 4.915835887706559
Rb 8.176844585185906 2.5553582435231825 7.542405947006537
Rb 10.120808513417147 12.467155013618772 13.027793179509834
Rb 8.803156334448957 14.212486548017871 5.277393912602544
Rb 11.502903336976061 8.172690550860029 14.757573148061267
Rb 7.685070687040594 7.092152095120798 8.061260809010882
Rb 7.932092056497983 16.114871411506694 9.811843319954454
Rb 12.297861648215298 13.246684692465184 8.59368358031032
Rb 12.053732369297732 0.7144600174583087 9.110575134521863
Rb 7.970374005541998 11.552030629217528 8.99379130743643
Rb 3.840305875359455 9.4297851295793 9.444803169872811
Rb 4.363839820930825 14.091562766265668 7.656063947943187
Rb 15.072164450058764 9.457882722581662 7.471283762138526
Rb 7.165101291499202 8.512883023264466 12.962416851125514
Rb 9.952310309107567 4.55510356912346 11.526080930441882
Rb 14.720600570802567 11.101311811916235 12.22517069737018
Rb 5.071794856087298 4.748816956688625 11.04016312229233
Rb 5.2499401530878 12.880888586879742 12.5011867305774
