25
Energy = -17.84149467 eV
Rb 3.54714517362108 10.144237619961098 5.417574574179208
Rb 6.6124369353460715 12.530681213321564 7.957599385953558
Rb 9.565751009242987 3.61080650378688 6.096204550483244
Rb 12.041022066082549 7.7879148223134536 4.350324905037323
Rb 8.904055820856557 11.738464043612451 3.798029554297751
Rb 15.698788593124306 8.484588951510274 7.628998404839921
Rb 7.825110643774506 8.14973318603834 6.41437965697028
Rb 11.809372061028398 11.604185847882281 7.473867275525868
Rb 14.498333206284594 3.797949608326585 6.597261871817273
Rb 2.109819045454407 13.156321742967245 8.92564120913102
Rb 4.533341172491713 5.118879801284692 6.357745587560426
Rb 5.679867698651207 16.538952442546666 10.013664074452983
Rb 9.568512605945916 15.853389434569694 6.878614360007883
Rb 4.084319818619664 8.657536242851544 9.809865013113889
Rb 8.721054558596677 9.554700408814094 10.792726857288324
Rb 11.710080755001098 6.699605627743122 8.890540975290223
Rb 11.787164127174911 2.1835625146339224 10.093827172474537
Rb 15.499801975845976 5.23560274563462 11.162941591896896
Rb 5.422021657786033 12.53116755829684 12.64055451762439
Rb 13.34820272195709 10.261542633053496 11.743436313318536
Rb 7.356456681607196 4.9348799012909845 10.252931802283593
Rb 9.965827827497456 13.995063419628398 11.266462271856858
Rb 6.239033844196338 7.625653700499347 14.133877791819186
Rb 10.98291693279882 6.25298761580929 13.528907067322137
Rb 9.76083572138155 10.822865067990223 15.045295869821269
