28
Energy = -20.2706235 eV
Rb 12.224751790398182 15.601352860596936 5.438899122402074
Rb 7.9652287125287184 15.992843449000853 6.9578448716976995
Rb 15.844957341358798 16.78405230053873 7.642779013697565
Rb 9.676262492470093 11.156950578183833 6.819653015741614
Rb 14.642088967442309 11.940407053713272 6.8741830619083695
Rb 12.096867795826256 10.55296643902825 10.731080941518346
Rb 11.78703237674134 14.886662513303051 9.066429476388837
Rb 12.328951142443957 7.573727085362289 8.244588156671378
Rb 8.195629560321095 7.985520421911782 10.522911303125374
Rb 11.505763531543645 19.390366355779957 7.927626368421791
Rb 16.132747562777983 8.603153686542226 10.704630992177153
Rb 8.60158394755107 17.400555424527912 11.660543093424888
Rb 7.31582005968156 12.781367545894286 10.721239960992413
Rb 15.87474112130665 13.603579240817584 11.411881483643965
Rb 13.849201837759678 18.07567279395967 11.898582125725438
Rb 10.749396193606524 19.390366355779957 12.421300693478416
Rb 12.279393794580532 7.011878746306239 13.108848901974442
Rb 11.50014507208423 14.08186684314013 13.517767575025186
Rb 6.041208518184296 9.759007994780072 14.049918945437065
Rb 9.731839601920035 9.974526721923919 14.561360221202444
Rb 14.550779103331676 10.383461473419372 15.00632126074449
Rb 7.280015221207792 14.165555294957505 15.370291445850496
Rb 7.940565864459677 6.715564575601554 15.460873685036841
Rb 15.117058915275722 15.286374660703853 15.929122065125465
Rb 10.723970273616136 18.010084386652846 15.822857099647225
Rb 11.881058607124755 7.573727085362286 17.948017700451302
Rb 11.33376465809618 12.575378103035453 18.061442038427792
Rb 7.434314468499266 9.637750128410364 18.478355030975457
