26
Energy = -18.59907075 eV
Rb 9.242845649022685 6.977508352766795 1.4017446457932625
Rb 5.581027784419346 9.222764590654597 3.849798773000385
Rb 10.105407661885252 10.695128607325838 4.418507828129528
Rb 10.184676326207024 2.7368692399601233 3.9205665633279887
Rb 12.964318100679057 6.820806515658229 4.546253712032582
Rb 6.454164548616119 13.786282619191788 5.909476220253946
Rb 8.365376962483243 6.291231413776175 5.910216011194758
Rb 14.44033516756921 11.299363136570786 6.686234304155771
Rb 2.9210874403186704 11.111245852899527 8.1957143172366
Rb 7.158590913282788 10.020295946806257 8.40947082895862
Rb 7.282589376646286 2.350855327841507 7.795831899191004
Rb 10.546611865644763 13.614932333475219 8.599726475989344
Rb 11.318944857781515 8.760068364049264 8.756963548118193
Rb 15.481918641791694 7.541484258513692 9.542084091122764
Rb 4.247849361998689 6.396298808732865 8.676586764405728
Rb 11.693173025843786 4.207063475362202 8.692367561098417
Rb 6.287212697766226 14.14210300052622 11.05608936324493
Rb 13.849348161727637 11.656550975554287 11.690862730555805
Rb 7.938514990293561 5.800678735238591 11.48345453416557
Rb 9.309873013525577 10.875716487784914 12.465609443459424
Rb 10.38568014806827 15.35259595917441 13.427380994598211
Rb 4.801912797730481 9.546976304260602 12.593716788966315
Rb 12.182700748561714 7.094188972809377 13.129420899619229
Rb 6.816352794126477 12.914726687251138 15.770410971246797
Rb 11.55622398595823 11.737204902539936 16.33429541645092
Rb 8.147818959455037 8.311615112678648 16.001771295087945
