24
Energy = -16.57938297 eV
Rb 10.275289654211292 7.84044646372225 3.8421319093582436
Rb 9.187404890409207 3.2869490341384235 5.3506538200792235
Rb 5.904454922832133 10.907880747399295 3.8007815787424155
Rb 7.571623331198404 14.702966828539335 6.5670091590226445
Rb 11.217980550011445 12.705095513323391 3.9413398902283507
Rb 1.7989916298595516 8.688831161709222 5.382475418809047
Rb 6.143793778096662 6.903864266929776 6.29287593443575
Rb 14.150269356952133 9.9161594419032 6.955620916796452
Rb 4.452362653873828 11.22153135601416 8.260638677735521
Rb 11.453514696931396 6.130175186153516 8.26467089450793
Rb 12.335843024182376 14.081095366177738 8.510404707307249
Rb 9.265561070967395 10.548853204011115 7.288667493133274
Rb 7.4502724836721015 3.891813361193326 9.91630545400847
Rb 15.476979936344893 7.124369943941949 10.853991854058147
Rb 8.066037269057883 13.097983846181998 11.178771752205348
Rb 3.0682447515593902 7.0150172404923685 9.83352429543892
Rb 11.227047942790568 5.92150845734613 13.091606249896095
Rb 16.411666514504002 11.710777565079189 10.99469158959114
Rb 4.452992790412287 10.43924177631035 13.176401097566488
Rb 7.655197198232338 8.323447949034563 10.705157833140335
Rb 12.069088418988123 10.247077698761073 11.24985936106754
Rb 6.298924079298209 6.012355075899788 14.245448151382284
Rb 14.518703690676901 9.111092554271435 14.98161242798138
Rb 9.239476041222938 9.863186637751879 15.007080209793198
