26
Energy = -17.57335101 eV
Rb 16.599835410410254 7.900765469276894 5.082400515896891
Rb 11.154780254881874 6.7027089731677085 6.833521077031122
Rb 13.23459963590639 11.123734481365478 6.39528300276013
Rb 8.476852128197365 10.515600071081103 7.017536686121406
Rb 18.098103858831674 11.283501667059848 7.763080627490034
Rb 15.26246949924158 15.297103497813536 8.021986051740056
Rb 19.95819766942409 7.164824574461443 8.323338780070666
Rb 15.190587341247092 7.593945133533422 9.151692209504203
Rb 7.582182735555665 7.067338262994968 10.040159519481898
Rb 10.736601945898729 14.189604273479425 9.456702131982613
Rb 10.959745639431777 9.558250360271586 10.520948332197618
Rb 21.153031254765818 10.861557492603476 10.542138282632786
Rb 14.708496446330397 11.868362859035132 11.101734196554395
Rb 18.663896947722503 14.039729092213019 11.790340259292623
Rb 18.420706128643523 9.316956248080183 12.476084742705345
Rb 16.840687926984337 5.178455162684571 12.366153078468715
Rb 14.131373989985804 16.121506602416833 12.697289061805703
Rb 16.093549099234174 12.426374217673025 15.673507701629616
Rb 11.763610127198413 5.178455162684569 11.607482170889996
Rb 11.149072722090498 12.73957985092333 14.154508173940473
Rb 7.157572032631643 11.45964003729361 12.039996217896173
Rb 14.019665721730554 8.341125431465116 14.355471097012233
Rb 7.728605124850306 12.164555089736695 16.87319101052537
Rb 21.153031254765818 12.159611010316693 15.19852180218523
Rb 11.878390445410988 10.562961926081979 18.06873621696981
Rb 9.17781321815106 8.258232822115612 14.655140236152691
