22
Energy = -15.61980172 eV
Rb 5.992935589540692 7.647151355403929 3.981667753480562
Rb 13.098297719267396 7.764523605890674 7.759039848960778
Rb 10.123616571360579 10.185919049559905 4.510506141217586
Rb 10.225729666398157 5.097815583218908 4.851802347767206
Rb 9.59107085937694 14.983356354324043 5.990837095225649
Rb 9.206108474761702 0.48157464906728964 6.303776827511925
Rb 5.772703180984664 11.971979727871568 6.5851121419562135
Rb 13.819824310382717 12.549601521615262 6.971313041471616
Rb 5.978185351935568 3.712395286586696 7.269020345878938
Rb 3.314598691128313 7.927523185257061 8.18674667405228
Rb 8.14386029710175 7.747290513724334 8.31401337550707
Rb 11.700321806165693 15.737942356133717 10.468192404379964
Rb 5.312885500020613 10.885437690825569 11.464327114654386
Rb 6.998212479714081 15.388303510880032 10.274087602686595
Rb 9.807438148037928 11.52923216023339 9.334179580170415
Rb 10.416985537786589 3.8772437440777354 9.765323554878835
Rb 13.826776615738764 10.937331185851166 11.684558752211968
Rb 5.859855611192268 5.8540380821358164 11.983560974585533
Rb 14.437749223320953 5.940951664351817 11.882787234528681
Rb 9.423609733451825 12.718610124670846 13.813657711168528
Rb 6.596208238838224 9.031605859135079 15.668917227473624
Rb 10.212436684966937 7.889583080657362 12.795982541704
