28
Energy = -20.31367955 eV
Rb 10.212630429735745 11.713724728724301 1.6282102517883323
Rb 8.350935449767803 7.525346344062164 3.751231961539434
Rb 13.315833075053275 8.429861451787593 4.168463209345326
Rb 5.871110858944269 12.384548720761837 4.154881046285075
Rb 13.87763706071344 13.488193906484671 4.498794445211295
Rb 10.00952958315753 11.444244099655457 6.247804131415781
Rb 10.916986385037735 3.4655874087840743 5.656444759694471
Rb 10.576151281605455 7.198441193136531 8.154776908656578
Rb 5.961052343488921 8.81252867519759 7.8042815304292334
Rb 14.300674883195342 10.59878028707083 8.654629277510335
Rb 2.603032892165111 11.71390152612604 8.556476282204196
Rb 6.74728688548659 14.340290050866916 8.62938905356174
Rb 9.463607206059487 15.799306424087778 4.526474191147295
Rb 14.700875576099326 5.43770687050574 8.365603480986767
Rb 12.940665130821301 7.3958158418094095 12.691296342490748
Rb 5.2594164873804905 11.011966118571022 12.676560892887315
Rb 6.729526134107798 3.9315698537330546 8.237228520259734
Rb 7.9877685589452785 6.87181344790331 11.97143305607566
Rb 11.899079166920846 15.146147837492238 8.868959399565359
Rb 9.687538836708649 10.997797863919427 10.758978905494983
Rb 10.843320369955435 2.9931153421390406 10.980468423645585
Rb 3.3177492978532337 6.6035781813217715 11.335098936188011
Rb 8.913166117467455 14.789217824923043 13.081351929513767
Rb 13.365121818492984 12.450417090520876 13.16096543239268
Rb 5.365402677307487 6.9009046432133525 15.868578900993635
Rb 6.155915281437075 2.7512029572993657 13.062262226181748
Rb 9.881538583119905 4.748528438655171 15.716152878999399
Rb 9.494827720746484 9.803842963021477 15.54158371730932
