20
Energy = -10.92167851 eV
Rb 6.01189004513243 9.22028133361534 3.5985416916199373
Rb 9.895906042191418 12.002681498277523 4.0046887841640215
Rb 10.535048461963296 6.953812853789004 3.892888317008817
Rb 3.9919872370021543 8.318683561232056 7.916004615500261
Rb 13.178221246543096 9.777638041212345 6.776036291353302
Rb 5.768859654956516 12.813326123375884 7.683503620824341
Rb 7.315427846647651 4.74897797867723 6.933080501801954
Rb 8.451001577015909 9.128491828286009 7.271300387128602
Rb 10.5667815728655 13.544171815465804 8.487003906874614
Rb 11.678962775205932 5.632436822652285 8.641766769594614
Rb 15.090081191863833 12.948691713409618 9.574491644918355
Rb 14.44186532683412 8.531572841368275 11.242213918212487
Rb 9.136711433920432 2.3896820157282685 10.832425769208212
Rb 9.921671759507904 9.704890623525117 11.06061970584603
Rb 4.226582959180866 10.721106460945071 11.884936801060087
Rb 7.484402995987549 13.87761341307579 12.113253204230801
Rb 12.087038992750024 12.717178531323329 13.337541394581898
Rb 6.599404096202579 6.3950048972996 11.494586416446325
Rb 10.981882759350812 5.93860211726075 13.430142367981164
Rb 7.728965006231583 9.727848510834136 14.917666872997454
