21
Energy = -14.75934304 eV
Rb 3.8623573651280485 11.052115023251826 9.91876743985194
Rb 9.029051864716507 9.64168796299522 8.94968036494768
Rb 5.504711489433456 9.815776282842762 5.580407064235782
Rb 9.687939006941267 4.25116321258326 0.8962023657759497
Rb 6.394054032668824 5.098737137900872 4.8935073499144
Rb 0.6555770666534341 7.536033502369418 10.276635324124733
Rb 4.946700571544186 4.1127737258732795 0.13229134095842357
Rb 10.716668183208489 2.409456998270147 5.162688467480291
Rb 9.78013661731224 11.817311828821776 4.642481999959445
Rb 6.672750605765915 2.609895238111735 11.939591615338575
Rb 3.0265789225752684 1.8206447943319874 4.051226293405577
Rb 0.7632995032048753 10.249936153761336 6.142446625810267
Rb 2.6753130406107166 7.754679801969601 2.2293759954288235
Rb 5.3272168738134305 6.520696477243006 9.21249287037159
Rb 7.565703409550456 8.495211701170787 1.4848467699630492
Rb 9.904017318145929 4.829909272756613 9.240885325902576
Rb 2.599984319836415 2.6888448450340423 9.291522565068515
Rb 1.1461917136293696 5.614639101781183 5.98184076906425
Rb 10.751874809356812 7.254635138779116 5.10580458574268
Rb 7.27252198347328 0.4542797718221925 2.434140566336575
Rb 6.729611815122463 0.9838325410214243 7.445424813009774
