28
Energy = -18.43437479 eV
Rb 3.5381358967973395 9.938032409387429 12.774916740139037
Rb 10.567092147469122 15.448049739219051 8.339005195921361
Rb 13.854227709104087 4.694044943576789 11.230391273124958
Rb 13.693117918205948 11.552319955631527 7.263274763029829
Rb 6.462123521076857 13.450921012190038 10.55703938801
Rb 6.17825063431405 6.23817947317779 14.611856668776294
Rb 8.920231019345234 4.212592416193554 11.176216581450047
Rb 12.959189084333177 12.454664822833413 15.33176783606797
Rb 15.048219992330921 9.805060642984714 11.92681634870457
Rb 10.936672888480645 11.853623629571397 11.226062120532255
Rb 14.498144265676023 14.804969249278665 11.085474265916837
Rb 7.523719109836364 4.156469371442664 3.2461568243201464
Rb 4.0800151344277 9.78065317528277 7.8997491495479375
Rb 11.100032519074249 8.249243573233604 4.330354025605858
Rb 7.508090844742232 8.805673582314085 11.055497576506284
Rb 11.252100875258849 13.285647483907617 3.7520385030176393
Rb 4.024286832123299 5.319168329891896 10.36053879995613
Rb 10.90270534523814 3.4931779338214572 6.834235753739935
Rb 7.429446983510259 6.494398483518451 7.13372839349914
Rb 10.051069183106653 15.810996087430057 13.31228406878993
Rb 11.131554467142136 7.794732273439525 13.969346626292404
Rb 6.365712864209086 8.904719549769908 3.378070304892714
Rb 3.312315550018424 5.42297885037511 5.459745323977994
Rb 8.571085790886597 11.285034137889792 6.9659274958871045
Rb 8.081633310889162 11.621876816630373 14.971211254466178
Rb 6.257145437537686 2.0265839471030076 7.37529658048154
Rb 14.740890694643532 15.976277605157046 6.149828752158016
Rb 11.669680810673375 7.776801335199081 8.940060215638212
