24
Energy = -16.39121121 eV
Rb 10.535809129262248 9.770373220074845 3.2609737150972484
Rb 6.106623887092476 11.438800002732064 4.942028390661336
Rb 10.559909586869606 13.200702370447315 6.78590301813259
Rb 6.336229220331906 6.533082353431284 4.125863224018266
Rb 13.804567386252403 9.574995393640004 6.956351144160817
Rb 11.45465774451794 5.4723345406531045 5.299139033681273
Rb 2.198764197485228 8.858805949996844 3.925480523320019
Rb 9.01592478780021 8.70153364199877 7.490838423676127
Rb 2.2934481572831475 12.332009646238113 7.474538316468352
Rb 4.385160669717034 8.103216209375127 8.140330158728508
Rb 6.686668664166066 12.419685089983064 9.592201145388241
Rb 3.627467105564331 10.47080268647158 12.295513991216355
Rb 12.332512306867342 6.107203107723742 9.927698617550954
Rb 14.536327155007902 13.610419949520915 9.732790788724747
Rb 11.155372419716306 10.728673774795071 10.86930811874146
Rb 7.960167107915896 4.388995051801944 8.618915952652884
Rb 15.581930728893179 9.180400868003098 11.984007886319548
Rb 13.42944046997327 12.654707765824261 14.462593436590014
Rb 9.995955716587988 3.715779627625381 13.096377804082204
Rb 8.144448232412504 11.7398851074866 14.201948774695277
Rb 10.189398029869801 15.191525994630846 11.359980023852392
Rb 7.464321209121005 7.632852789406396 12.025658791696452
Rb 11.678686552329003 8.016879437684038 14.540994281533894
Rb 15.072500494095946 4.702626379588322 13.436855398143784
