29
Energy = -20.85608158 eV
Rb 11.795815962233808 15.509706837991313 5.174365223018092
Rb 8.702074608759 18.94348814951369 6.315012965921281
Rb 7.130101487686263 14.391781828501555 6.315012965921281
Rb 13.516381901143605 18.99444474583687 7.90817855036003
Rb 11.179626642207147 11.390764673811223 7.956531659208973
Rb 14.957058573173981 14.439425869669817 8.694704899123472
Rb 13.484450868442249 7.3100860591172445 8.430016788206178
Rb 19.302933861244213 12.40274869599759 10.505551186842924
Rb 10.22274364290852 15.926562280268708 9.192593366159983
Rb 18.48436693995539 7.847457422950856 10.147895764312977
Rb 14.999341008519254 10.35124240656327 10.913360025262149
Rb 5.987641552501609 17.084456838401447 10.066284500703535
Rb 9.378148859279301 20.190224072807467 10.52422539574763
Rb 7.199461918722402 12.467990167589843 10.915512812728354
Rb 10.531209778963188 8.634885065555155 11.995942500891783
Rb 8.678085712278687 16.566279703531055 13.92602926114855
Rb 11.707035181496703 13.121437626774364 12.475988284018309
Rb 14.862260631875118 6.545285849206789 13.108128139448345
Rb 17.961355935376968 17.17501203253545 11.09373534077041
Rb 16.03556187654238 13.949273725586044 13.764209248324772
Rb 8.687427766801628 11.921242748351196 15.751228055191133
Rb 12.485498676994613 14.901824577666705 16.762846189835482
Rb 13.421907572904697 9.961786916950212 15.668553936592922
Rb 4.819653823935756 14.687856744725563 14.104000065013306
Rb 13.36056027941164 17.621213364811926 12.572491016634869
Rb 20.328841980430195 13.99892576691348 14.91781287655992
Rb 18.234646603858412 9.637996691996317 14.481358802611991
Rb 16.636937381976356 12.438310721534725 18.163558879649894
Rb 12.14015573179301 11.339644369579085 18.163558879649894
