21
Energy = -11.12730198 eV
Rb 4.468419267432093 10.404064564614494 4.407722476252977
Rb 12.372650130788047 12.263004194259546 5.063144646463818
Rb 8.886242547733373 9.020474029798416 4.774472052851475
Rb 9.864993673587982 4.4191102329905725 5.626026616723622
Rb 7.732209340613735 13.536379495626507 6.227711036606146
Rb 5.404509877739376 6.234382494116933 6.750893236477223
Rb 13.135080109564552 7.814992874434882 7.019290324808923
Rb 10.378102434452721 11.141649163403974 9.105940188403716
Rb 5.502669418019239 10.403292708505763 9.000336983710676
Rb 11.704867039649246 15.587580049805585 8.752809231524688
Rb 12.972854775142379 8.219319451482304 11.905473682581812
Rb 14.98949786053405 11.780768033643744 9.211762804563051
Rb 12.459313119610087 3.8153555856756265 9.775207822629106
Rb 9.056926839026975 6.99106627756067 9.405655597074093
Rb 4.173566629327082 11.144363028169595 13.466265333869924
Rb 7.54801957857852 13.961174704626787 11.362764969841013
Rb 5.231961947039963 6.648327517339235 11.880823230713348
Rb 7.56576741400483 2.5932241409822048 9.718468130555847
Rb 12.091942717121979 12.943056519555077 13.030938535971902
Rb 9.599307971159702 5.05961234794565 13.604138907528275
Rb 8.58505515075461 9.742760427342809 13.634112032728423
