25
Energy = -17.94894502 eV
Rb 12.335969180717399 5.9502035907626265 2.3801465818206737
Rb 7.281487176310022 7.674111566777256 3.566906450172348
Rb 10.806201095196744 15.154349980806277 5.949087039320391
Rb 11.731412832834176 10.861201082394121 3.316851523926445
Rb 6.324088015443069 6.140163031731369 8.103832790228982
Rb 9.306031742701547 3.365759962325864 5.327036472270655
Rb 15.648493437126602 8.224375741861563 5.323537594072468
Rb 14.142481047162642 3.778861920699988 6.488759541507007
Rb 3.466451558159993 9.591993254861908 6.395301341623446
Rb 11.006771581615181 7.573493582107964 6.5889409855819725
Rb 13.324340346117166 11.700024085836116 8.066805995435573
Rb 7.917059033508779 11.509891402412665 6.400764198967047
Rb 10.530404787588564 4.144126671190903 10.176462870009717
Rb 14.54642264479105 7.229582918959278 10.05313936814593
Rb 2.365671909301178 7.532514970094999 10.814415641770749
Rb 9.810891073154158 9.065099052804076 10.49153739597244
Rb 5.68830014011482 10.89389150263107 10.536441333092185
Rb 9.574462525926673 13.880524405296592 10.68648764869999
Rb 1.297623710800713 12.20556254406413 11.261675272432143
Rb 6.706209112454997 6.472175893535295 13.088272694824974
Rb 13.229023251636274 11.248300592031216 12.931665424618153
Rb 11.661747552040639 6.76573394215434 14.20730790996537
Rb 5.109431935069806 14.232435265049896 13.903516948140743
Rb 3.6204510956969767 9.850696420411216 14.995900332542899
Rb 8.477371616164508 10.863725020832574 14.854005046491196
