23
Energy = -16.33592875 eV
Rb 10.132864582116346 7.95942474325502 3.425673824287074
Rb 6.152318704857082 10.353961804951261 5.048025243540916
Rb 6.211796700012589 5.397733035075601 4.8612158882966225
Rb 10.786278467950543 11.866337865480535 6.093956569479481
Rb 10.992756169848755 3.657235329398196 6.227334394215333
Rb 13.490697887833159 7.744620485242634 7.065306343746498
Rb 4.128715158402213 7.720672478016249 8.707618116632302
Rb 8.862060804386765 7.539469243937183 7.84875798590319
Rb 2.854184800702368 12.764626169927991 8.318136820152676
Rb 7.049219703175474 14.906052070205206 6.730248214437189
Rb 14.69810143639675 12.154042897981908 8.768609798025615
Rb 7.102148389836965 11.288499675910135 9.588745105999305
Rb 6.876415952063085 3.6631346995583653 9.387946849302306
Rb 10.463659080884756 14.42840782569865 10.25524037617181
Rb 11.43257501078614 5.003347294455879 10.84826294514013
Rb 15.386626225859706 3.515743699802824 8.504051211771927
Rb 11.393527536577281 9.866007622657381 10.903205114207658
Rb 15.428364721674825 7.465118669508222 11.363327214999908
Rb 5.463278428185555 15.148359999046422 11.470171767141487
Rb 7.232122447360164 7.18119446235958 12.59373412132084
Rb 3.7690426474840675 10.609934554489282 12.700129327205461
Rb 8.389182671764802 11.704168684449249 14.037105005734738
Rb 11.354616312348513 7.712460529099016 14.903751602794806
