30
Energy = -21.77122628 eV
Rb 9.75113168024761 10.18861327065483 5.376367686116703
Rb 10.9970699088419 15.368992173068051 5.6813984325706315
Rb 14.373814088845666 11.800959343585307 5.776352379448006
Rb 15.726293255414197 16.54410837213828 5.776352379448007
Rb 11.966648464955032 8.005947744151486 8.279805058274276
Rb 7.666114525470842 18.707840243198 5.932938871926186
Rb 6.741990380829523 13.679139767809058 6.584999334967737
Rb 18.10338290977484 13.833390866835037 8.370627853721745
Rb 12.314571541112594 19.424350139630782 7.374382172845305
Rb 10.5471842261629 11.932838415784534 8.648003923937202
Rb 7.166084341691193 8.495144039149666 8.792894036178586
Rb 13.766952178044246 15.171059952172579 8.994046074863036
Rb 14.743436530809443 10.591727817066879 10.557965877372881
Rb 16.799369516557242 18.38992215158238 9.54792293207747
Rb 9.096696964542396 16.337897384176657 9.611187338567419
Rb 16.246597475640712 14.414472579990374 13.022813319459738
Rb 9.140508832650285 5.606060978063332 11.495323142683361
Rb 6.790697181385165 12.510736116571932 11.536428904950917
Rb 8.699696144205001 19.424350139630782 10.438274452826095
Rb 17.6195273219528 9.354522670763895 13.965430380377489
Rb 10.324787830896948 9.20892990883759 12.278269456950214
Rb 6.659846915728552 8.137650557805044 13.638448526711377
Rb 13.887215735756696 6.945500936892425 12.843578731353267
Rb 12.552911908634963 18.427955939469634 12.17899155415026
Rb 11.55637136383214 13.842829419020035 13.061305042332906
Rb 5.097831952788316 12.47578982795749 15.51768580549965
Rb 7.8770638274921305 16.411527677791412 14.22777000397945
Rb 10.102467187550108 7.448559513419534 16.034396422540272
Rb 8.788920446271105 11.55690141814373 16.089220552545434
Rb 13.517687053081787 10.41176778411119 15.5564123559695
