39
Energy = -28.98209717 eV
Rb 12.136053803185574 5.592889292522194 3.7220847291849024
Rb 8.837150257881877 9.972487499180398 9.189461243840425
Rb 12.183538403029482 10.704542184333285 2.4900115149990296
Rb 7.93109587509115 6.631113389395745 12.008923251954121
Rb 9.361438409454243 10.944590454934314 13.977304975061214
Rb 8.569390410445454 7.495531707235949 0.5806007684753716
Rb 8.657560036844423 8.744096663092565 4.879714374130637
Rb 7.669279953960316 14.375630760694028 10.617131375167789
Rb 7.495141477871315 4.134715092267213 4.338482640147911
Rb 9.831248322857924 13.220148229261213 6.32754871937256
Rb 12.077425358984538 15.531342666752918 3.3902530719129214
Rb 5.101038176420918 10.231681200227733 11.490309476675149
Rb 7.015431188269735 3.4319734911169366 14.787794021277408
Rb 5.646077753031059 8.299177412590808 15.818247909236742
Rb 7.550476711714901 12.189340545719489 2.1314269622007314
Rb 12.055301872503037 16.733066297761024 8.933703328343963
Rb 13.136818427958517 9.225518131313873 6.825321669309932
Rb 11.278629850569892 1.6046206290928595 6.800274012125393
Rb 15.004381371026755 13.517383281037585 6.734968690435391
Rb 1.3851691109282365 9.38260909850321 8.83502637217407
Rb 4.338055712502815 8.320218283589304 3.3931780135851963
Rb 10.102913543874587 5.667696463864766 7.971135434513964
Rb 14.781362117794727 5.018350308135193 8.545479225249982
Rb 5.126605103930582 11.799217035247189 6.777614558729884
Rb 12.341291842258372 12.454544594352882 10.433418705831409
Rb 3.2635915365228296 5.892508232787644 12.216649526691242
Rb 16.499634857036817 9.969251636376407 10.287535797437874
Rb 7.0059710710556615 2.593199424051917 9.683245802452985
Rb 15.900371293931624 14.874103465834658 11.6262535475264
Rb 12.380412930293437 7.964013457523686 11.403257553658081
Rb 5.285946263722507 6.843116794344799 7.839999537709227
Rb 11.511534618065891 3.240109345377769 11.885267296562711
Rb 11.261789679620719 15.318350593253143 13.856363565607065
Rb 2.574325172066765 13.838541528767788 10.734165737591116
Rb 5.380176941439098 13.412590848225301 14.851774301184129
Rb 15.725693854602289 6.053252974327275 13.523348330765808
Rb 14.272035947251492 10.952935042427608 14.531726310182885
Rb 1.3551374369631288 10.282962473151803 13.9305139040543
Rb 10.998678634463252 6.5707548007531 15.658659074065293
