31
Energy = -22.67328888 eV
Rb 10.746955365011635 9.216647627605585 6.17850281833379
Rb 13.172566481359624 13.450350901566269 6.53988299801807
Rb 7.132202871577364 8.998948256277767 8.789727924440594
Rb 15.236373699499095 9.209607719251425 8.22052420670515
Rb 11.769924230724657 6.34814697151221 9.494748195677479
Rb 14.8757018128687 8.971166416588336 12.276352179466015
Rb 11.418040460293275 11.181612193197292 9.263722743306644
Rb 8.182880082755455 13.296471547189181 7.344042171745418
Rb 11.059620425374996 15.923711144368612 9.65143715491132
Rb 5.882328036312991 9.273320675688613 13.12275686527218
Rb 12.1674333926849 6.348146971512213 14.37711400149302
Rb 15.582779450433833 13.419489297667798 10.328193753159065
Rb 9.606103316210119 9.185246989384295 12.867005382509296
Rb 7.72243417595963 6.012114808514739 11.913100117198972
Rb 11.974933677602218 13.086170453614576 13.251516129049097
Rb 12.701126803023397 15.277837053956754 20.46270180089101
Rb 12.375271643544545 18.70955082478295 18.330896429660644
Rb 8.39096884620061 15.878001184652637 19.49180493254314
Rb 16.556897603353875 15.936733528870645 18.71097087244815
Rb 9.893784390603043 11.233875934916561 20.46270180089101
Rb 15.249297450217497 11.37330791129165 20.06430411744114
Rb 12.310482454520399 14.264478495992035 17.536862140220435
Rb 9.4224709178196 16.762179416073 14.581024672045846
Rb 14.634488367704417 16.799539899007403 14.212984665113066
Rb 7.797866511352291 12.416628905386904 16.163228351604573
Rb 12.593824212838134 7.21020497296446 20.083582430240924
Rb 16.574695337942643 12.495676394877052 15.316377459777078
Rb 12.449878442724838 9.8795344789639 16.484164588067927
Rb 8.361879263047058 7.744410665084168 17.289375727871505
Rb 7.2833812213921885 13.357770449299696 11.327315824700152
Rb 16.452862652439066 7.869683783897182 17.043011121032823
