33
Energy = -22.65883822 eV
Rb 10.730531933073424 9.789165342590545 3.2170901324793526
Rb 6.190450637218958 9.306818436509143 1.1414685451276192
Rb 7.046405363488837 13.447904346297888 4.233440046916256
Rb 3.618417492307838 5.921090156275052 3.8986573438473586
Rb 8.427357789244898 5.328682257277787 3.096099182052103
Rb 2.7427435248254706 10.743057016194793 4.269230385259099
Rb 14.55199207613489 9.644050161293455 7.201218959674185
Rb 10.685741182960871 7.001088289283013 7.109702479423096
Rb 13.38133426669013 5.825995745906181 3.6689618482030206
Rb 4.903022740155697 12.505648463146144 8.493487099330238
Rb 6.699410735382793 8.995980194994734 5.615446833726268
Rb 6.3998784858566 4.449273670119556 7.5894386834238325
Rb 10.15675258464685 11.973129832496232 7.3978759177680855
Rb 3.0000850799884096 7.935499420823281 8.444479527433572
Rb 10.504602564943562 2.359555378834791 6.594730705462268
Rb 16.362222692115353 6.9776436475259125 11.142080553763472
Rb 14.49800249104103 4.27225025609216 8.073517188376641
Rb 8.124782826267046 16.03795556193176 8.887274791153743
Rb 7.464026078108149 8.474313673106359 10.038186665142073
Rb 12.575120055202406 14.21963347622106 10.790280370442664
Rb 11.99115247701281 9.282676552548017 11.107027249524544
Rb 10.229486005362656 4.719937438639627 11.302535788328344
Rb 14.509733712186325 2.874865786639397 12.505827839638803
Rb 15.822531859278909 11.296782172224006 12.637582240105505
Rb 5.230726400431602 5.414892146353113 12.34779191440787
Rb 8.383783809657631 12.469135084029856 11.922654191580294
Rb 4.885378438045047 15.368521757624256 12.632235311858643
Rb 4.261614984690643 10.375590621546522 12.953007937099745
Rb 9.460411700644379 16.344012340735635 13.955010143077612
Rb 13.23775404832025 7.026395232707058 14.905523312031686
Rb 8.59537357105297 8.338316234748348 14.698729153225914
Rb 11.752705229821856 12.02390223519426 15.23481199292757
Rb 7.017249895440565 12.697019801689068 16.335378398789107
