38
Energy = -25.55185381 eV
Rb 11.393869375534322 12.907489545013844 4.98857126163514
Rb 9.812797229347197 17.68907402784131 5.340919042026918
Rb 6.6377012592747135 13.804695455993437 5.811991343348669
Rb 14.210715054252145 16.565678202340166 7.131450390827218
Rb 13.27340660152532 7.723657264572014 7.246651588755503
Rb 9.030981270651615 9.955154691453666 7.854791727833313
Rb 9.828272788649047 14.867901755332703 8.370257768379865
Rb 6.588952126888628 17.659713153198975 8.549093369525073
Rb 13.689187674364765 11.85301274091338 8.621847275302542
Rb 11.136498808353892 19.416896629091745 9.539124415535692
Rb 9.636155793166024 5.564671642514227 9.710580850099337
Rb 6.060512074559453 12.972203529892425 10.238148691170439
Rb 17.464144806910365 14.148646005380414 10.901986228431651
Rb 16.82924638668363 8.585302772150307 10.852358384828358
Rb 16.227521342551018 18.885503586806752 11.747329138687057
Rb 12.068068599485729 8.253167175301567 11.593324307702604
Rb 14.28745415248958 4.745533900508383 11.317846720655755
Rb 13.053532288158117 15.686805099323745 11.56965515323685
Rb 9.878452733077554 12.163308057136438 11.956293878503763
Rb 15.853911891747034 15.39994053704083 15.54337290357635
Rb 4.532674436790649 16.460685127009064 13.140872514403064
Rb 7.150299296537495 8.498872378906224 12.466864380844646
Rb 10.377024161779875 5.579519452979484 14.658738415228582
Rb 8.50868911997905 16.805660115735648 12.59308323645583
Rb 16.776449544884052 19.41442431870535 16.86481096490843
Rb 18.677546337273363 11.481641266378666 14.984447971599595
Rb 10.851837583601931 9.614537800955416 16.082383953515933
Rb 12.26123734136817 19.014581442332304 14.814512378986647
Rb 18.67754633727336 16.616948457276575 14.3123497499553
Rb 11.299344735037042 14.369951853057518 15.717621416022109
Rb 14.377937574613876 11.591790207854139 13.492226932796296
Rb 6.588952126888626 12.645735123540737 15.21746500912956
Rb 15.127141887291831 7.7785565780667545 15.29727691719373
Rb 12.92524963253908 16.728588049903372 19.266872097397897
Rb 6.884245476875667 7.939544965436544 17.188660727252344
Rb 8.116543537809598 17.172059100167 17.325738971911264
Rb 9.67702340715561 12.744827147576913 19.575573978165576
Rb 14.56792703364091 11.732911541346796 18.284550491412944
