37
Energy = -27.64912702 eV
Rb 8.074362930661813 12.32198665990318 2.960754750642997
Rb 12.826658140017976 5.406831267665211 4.1443032927437
Rb 11.159719154697196 8.973960938461518 1.0364893957501848
Rb 7.602620540721345 6.716666261650958 4.340402510426179
Rb 9.41645203005673 2.2003179805906043 6.7749488387533585
Rb 12.706465371013254 13.632790090143217 2.7622029350148507
Rb 15.609610539746772 9.723031345136398 3.2899181659194956
Rb 3.828548067332241 11.187191930600878 4.570735381247633
Rb 10.13771315284891 14.506383185568147 7.23454396339619
Rb 11.433471283209311 9.983729377457303 5.499090814851223
Rb 2.836480317480805 7.60535564311403 7.457934165097158
Rb 14.133951343172201 3.14328196697343 8.613403683248182
Rb 10.934569710930765 6.382570510041967 8.335550924792242
Rb 4.476843949674366 2.9446019309929663 6.194301315441327
Rb 15.634323941144434 8.042913013131196 7.877623628762143
Rb 15.018430042386594 13.087490333544007 7.154382436640357
Rb 5.6767802953318 15.514935360241518 5.968833164480652
Rb 7.209886183551992 10.211373994811952 7.706398737600451
Rb 3.383573953053427 12.80880215567763 9.300602101090917
Rb 11.876852050204318 10.701993002239979 9.951898597898825
Rb 6.649777195002601 5.490829117567806 9.31874784047163
Rb 15.924950869358916 11.508077860762809 11.802896068414027
Rb 6.190600018515509 0.8687455969420923 10.441274683850613
Rb 12.088392836792824 15.104391019946341 11.766413383800115
Rb 2.4282481595952268 4.019228001669296 10.74819547917819
Rb 6.914722901820258 16.613514289396488 10.662029290019284
Rb 10.37249076860218 2.9366055707769 12.018370138464373
Rb 13.837215464211587 6.691427186277795 12.438321899920497
Rb 7.867109135901766 12.283475350739689 11.661299683825925
Rb 4.030430212250974 8.793216417071305 12.180413753081828
Rb 8.940808881429943 7.834135330348872 12.352106792395741
Rb 4.102398622677778 13.655113768359797 14.051142448271069
Rb 11.74512787257342 10.982036108846682 14.832619968194956
Rb 6.073585881729128 4.481663121832146 14.168142265336805
Rb 8.624887660334895 15.007977588901353 15.353411272133874
Rb 7.009752131601525 9.969830591550792 16.091370161621374
Rb 10.484232595626958 5.925570336325517 16.200970272483907
