32
Energy = -23.35370886 eV
Rb 13.567021844902829 9.448040331702378 6.321343350882369
Rb 15.85971763341264 13.668076074976923 7.517058421437515
Rb 10.772009847153363 13.614549982951969 7.07096607408049
Rb 13.425496729675412 7.130127033586093 9.472651825363393
Rb 9.097614703542364 9.091631931447745 8.707738941465125
Rb 13.058333767985747 11.182941899545941 9.688580966502329
Rb 6.784194509451255 12.798627191672939 8.349639961355267
Rb 8.715928136478265 6.060563543223981 10.747359229021948
Rb 13.198258052894692 16.20893880694256 10.040855742766624
Rb 6.104310468008566 14.880838595012708 13.796242216936774
Rb 17.08512836243647 13.459813839644955 11.612317585555967
Rb 9.006640994917928 13.656662002920354 10.86428389927296
Rb 17.33231934856327 9.312003527845604 9.472651825363393
Rb 6.801930013178178 9.944774574461318 11.637438882151383
Rb 10.50794468116049 8.928294382557326 12.772868094588237
Rb 15.619661350083128 8.908937052006587 13.329355923956657
Rb 12.829131399517642 13.09034042584609 13.755319432326957
Rb 9.703727563532507 17.18961767451846 14.05224930336799
Rb 12.649256011818986 5.866832649821464 14.100472058726764
Rb 8.416291825968036 11.834250433306893 15.635082640839961
Rb 14.761180709159028 17.47265799019692 14.900168649572588
Rb 5.335947034335121 12.271735997477274 17.950521676847572
Rb 12.602533979269856 9.326740568675927 17.25620449004974
Rb 16.376075787474676 12.827421911835772 16.910920817990974
Rb 7.236625938311047 16.30895570735994 18.152865929225754
Rb 11.681686774855956 14.446495206702236 17.732399090894425
Rb 11.409236391466031 19.34363914159527 18.042610121398827
Rb 8.880718831060454 11.548373218791331 20.44028187972929
Rb 15.287613143073353 16.859220439672207 19.74066799714885
Rb 13.996864606451485 12.233978339119489 21.281037137041555
Rb 11.986222949791744 7.936705331108802 21.281037137041555
Rb 10.769445872441077 16.114914796837585 21.399460778614145
