35
Energy = -26.03432486 eV
Rb 8.70026127897575 11.944245278537249 4.927840538538727
Rb 13.171042947232827 9.90865777493859 4.664421666010166
Rb 12.784271387458908 15.054950303532276 5.5280933393571345
Rb 9.540541958330362 7.841009572393085 7.241096696483385
Rb 16.46500781854374 12.172703534240476 7.241096696483385
Rb 11.975026582543672 19.428439688303513 8.598035334039574
Rb 6.947748487085168 11.030269559226957 9.265079735349618
Rb 8.5448615420635 15.57272897294247 7.956592491309982
Rb 16.70678754700049 17.243380069340482 7.536636816022288
Rb 11.394128129684711 11.605622485774457 8.526298653997674
Rb 14.353462129923376 7.7153218392747895 8.570090193463205
Rb 14.525738281557652 11.10473979836574 11.733048827246025
Rb 18.42853992070719 14.186639637484554 11.299690989736423
Rb 13.375008030321688 15.528448444786493 10.176786341710033
Rb 7.741873832226249 18.693578247964105 11.278546168307786
Rb 10.422706172735943 8.019579879021197 11.821968765150311
Rb 18.488245849498696 9.068052829206348 10.828413970289269
Rb 16.47845014625492 18.734222711331583 12.394538352027478
Rb 6.790061140593316 9.691892905069519 13.878736393398226
Rb 9.658196330418999 13.977359221881171 12.810938361633541
Rb 5.443451209028192 14.38132165278501 12.616790691695506
Rb 14.78023330620083 7.212101285404598 13.967274115168902
Rb 11.680867045102788 18.7977497834949 13.887253491952453
Rb 14.500866691633615 14.88764857038114 14.652191676768917
Rb 17.616993114239587 10.92302391912743 15.495384593403934
Rb 18.873593563294413 15.80848771420746 15.95856713092926
Rb 12.002748367591451 11.125200864046601 15.720925742840146
Rb 7.287365835216444 17.486805610139672 15.890979899098845
Rb 15.147099977831632 18.55513023351706 17.420895706305597
Rb 7.341056920040921 12.765179567425427 17.299102945238314
Rb 9.812412247252185 7.6697104873739725 16.845043956380632
Rb 11.107102335031616 15.75539364076645 18.166780182664123
Rb 15.363724307107963 13.379789602370002 19.11394591612587
Rb 14.57413668494359 8.387470902742926 18.649607975022118
Rb 10.85549208271963 11.11400851485678 19.113945916125868
