31
Energy = -22.71129498 eV
Rb 11.143851643337118 12.338544007369563 5.64423395855203
Rb 6.977827621222316 12.44035255910631 6.961895162643692
Rb 16.241163812275325 11.89062856555299 6.526338731785732
Rb 13.925924347716045 16.249303820849747 7.166394266915615
Rb 13.125105137411426 8.201746835062083 7.820974129964226
Rb 9.255890365157251 15.522458456038907 8.06573390524695
Rb 8.982052505163635 9.938318768662075 8.712522139040226
Rb 5.37819879239299 8.357499527701997 10.316923754822628
Rb 13.19103644065858 12.48209748880413 9.11398056608783
Rb 8.809246266291632 6.388617986096656 10.96833018912537
Rb 6.506926858479867 13.24808345653383 11.09010104490161
Rb 17.33470421545115 14.865965737192607 9.747516169984818
Rb 17.030208791971912 9.790978234934558 10.145421429666735
Rb 13.122074668915387 17.103050208404007 11.187204468040216
Rb 12.662956660052254 8.230637657944966 11.871219134269957
Rb 4.419391173114261 10.367905432921608 14.951625515916525
Rb 10.286609401295637 13.249923619522566 12.272898850499233
Rb 15.072069591999572 12.47625991936103 13.618679243842427
Rb 8.268030650685951 17.310118660404562 12.712982606374856
Rb 16.541363946429765 16.72839527606414 14.58928755008625
Rb 7.888570295851573 9.504625523814918 13.410267422924216
Rb 15.134851875997704 8.11149330457158 15.960935510098478
Rb 6.2912853577001 6.651185622683825 14.677086019895883
Rb 10.345585550373547 6.920258182829262 15.914224871446203
Rb 11.258153357641072 10.892751716144424 16.093373604282142
Rb 11.78425620271775 15.80708821470082 16.078467237427706
Rb 6.977827621222313 13.71215721278894 16.176650004906982
Rb 14.86527674323476 12.664325798941979 18.58305158487193
Rb 7.183169031036967 9.068880313596454 18.33026351852548
Rb 12.13536412636929 8.510984711596821 19.970557485626497
Rb 9.934062746231392 12.959346807133013 19.970557485626504
