35
Energy = -25.89818724 eV
Rb 13.142032916008283 13.804582488581877 16.18686611680741
Rb 7.0086050032749645 15.486338062481657 9.665485158114114
Rb 8.46154095589281 13.353387066985546 17.54065457094026
Rb 14.14230504686 11.560736405270609 12.103297199365437
Rb 10.384099271589822 9.138352015715776 9.983596980756333
Rb 14.019510970386014 7.097040787500457 12.232068830165892
Rb 15.69026752035949 17.73146383334992 17.18037087786678
Rb 10.191446325619172 18.451465015116497 10.503187187119808
Rb 11.19065590086234 10.856798129332306 5.565419070178247
Rb 13.306382347341122 18.708057722276763 13.495344199687782
Rb 17.712287061974365 6.183647161129975 15.397016380885134
Rb 16.67047283936748 13.18780396689685 19.333693436334112
Rb 17.23752485249858 13.949569931486941 9.344793529494606
Rb 18.018862386711383 13.96342717109323 14.546075048273908
Rb 12.066943289014613 15.889579601204671 20.190653615966188
Rb 15.32009529678709 9.797403346725657 15.923149574144226
Rb 14.696296986686542 14.162931965745416 5.484421016058639
Rb 19.897823641885097 9.99766152553071 16.754906296389187
Rb 6.620875111876272 16.595597706016278 14.389226888663343
Rb 7.735196960103601 18.107442927755738 18.97754144988193
Rb 9.923822118381931 13.844721140014448 12.794701210301671
Rb 6.7319384030156195 11.281736944718181 12.433965445344871
Rb 10.680851888808839 17.737562928823458 15.404450905095885
Rb 9.788625905799254 15.86836086174801 6.173074459503369
Rb 15.11518559010429 9.676326664546192 7.882315407385936
Rb 18.439431099954383 9.418168708420867 11.953207874251591
Rb 16.54856369301504 8.01786753504656 19.922653759878155
Rb 13.075741258638338 6.341954777968595 17.176071203009048
Rb 12.081820514763088 18.451465015116497 18.57221006549678
Rb 14.56210027761171 16.552228817180126 12.389062407370234
Rb 11.993792008569944 13.782283174118572 8.886610375776197
Rb 10.360476689316407 9.437834776414514 14.988245287701204
Rb 7.160141704585675 11.51260027422579 7.882315407385932
Rb 12.13220715315955 10.536936348710059 19.621558642634227
Rb 14.231125325057091 18.0944368034827 7.9173975971211075
