37
Energy = -27.52220505 eV
Rb 13.275130348309553 11.442478362384623 6.200552919318784
Rb 18.459846908379546 12.035775752173619 7.5773780865414615
Rb 16.29736511045568 7.53709508057304 7.95360316477586
Rb 8.280532859269096 10.96953205578385 7.040156262293447
Rb 10.147845032558331 15.585160028650774 6.554605235927169
Rb 11.477757796352615 7.757893844315907 8.906551839093703
Rb 14.90964883500452 15.74037333075497 8.52922903413049
Rb 15.328157280616336 11.132675140420067 10.135010741320079
Rb 19.682012101750363 9.324895097733968 11.519767367441613
Rb 11.015708752064498 12.839018707341344 9.820305977349324
Rb 15.377267055676285 6.5268693853706825 12.428645756325606
Rb 18.82572634567546 14.510425189910583 11.742547622208386
Rb 7.192100778522592 14.61742067151124 9.759295736720837
Rb 7.907216325335615 9.835648644646984 11.58475753911175
Rb 11.011719407320907 17.80015928976809 10.518597958205827
Rb 12.15919373317436 9.850228848805571 13.181778661620632
Rb 14.028260239451601 14.763706481411845 12.786374085507898
Rb 10.14649617455665 6.157379787936454 13.674436984976868
Rb 6.300595154754816 7.280778255672551 15.681288695673095
Rb 9.196639043245685 14.642969545892347 13.962817384844064
Rb 15.91814476653532 18.795331925489865 12.277875986108276
Rb 9.43915804962316 10.22370221037205 16.40930337472937
Rb 17.358950088864013 15.858952848487831 16.496219809012796
Rb 5.773583899820063 12.308171517203359 15.50649277925625
Rb 16.555470862263885 11.151186407518795 14.616791571024596
Rb 19.682012101750363 12.080986578795745 15.88442728767648
Rb 13.869182657856394 4.403109102558933 16.303279547309522
Rb 13.044485066559005 13.03502860476162 16.9135563965986
Rb 8.926464929165835 14.555377697696851 18.883723274165586
Rb 9.75389159934548 6.5268693853706825 18.686999209180005
Rb 7.051461581173174 9.994838327868147 19.883357657255452
Rb 12.538311388041063 17.75089045863012 16.165024332896667
Rb 11.551439742669478 10.816785713946116 20.933827419527404
Rb 18.69783908249454 7.3838413091203 16.20442709518979
Rb 14.03990435396625 8.285200850524719 17.63498793953709
Rb 17.107949657444447 11.736275679661722 19.427149133858247
Rb 13.925533642040136 15.504444898797898 20.581582985889117
