34
Energy = -24.85065559 eV
Rb 12.905739029525018 7.106804526227557 1.4528874047526572
Rb 9.931071487835608 11.245046431564761 1.453324420530182
Rb 10.984116335780207 2.724505937448477 2.6980630343377867
Rb 5.202725175248452 9.801560737817296 2.501506605537644
Rb 6.398572468985306 14.358016856168673 3.3892939529216015
Rb 8.893272431779595 6.757703281658472 3.4351889130650846
Rb 10.99096852261339 14.944770286518354 5.304967627834482
Rb 13.135370964005952 10.336923985029077 5.04242951124473
Rb 8.274216108767485 11.009632006922649 5.670675888676245
Rb 13.606649736701502 5.502105109033105 5.88395227693026
Rb 3.735668790230544 11.537493919404099 6.977979566607672
Rb 9.254699767142428 3.0121141450830002 7.291043928121722
Rb 5.54996167574107 7.011369479549348 6.8109394066882825
Rb 7.187191457388005 14.820792124123587 8.593392223001512
Rb 10.280387158999746 7.648931794303935 7.968779709352714
Rb 14.962210019025314 13.894254218781759 7.945287651240105
Rb 11.057107335491486 12.264291788827748 9.20652344770094
Rb 11.261884058954292 16.72225552304014 10.196697072367646
Rb 6.872249056043176 10.262910994668571 10.208131262119151
Rb 14.454483430245759 8.9875843454012 9.625111225349027
Rb 8.552282502647785 1.4725359296526284 12.359908055381522
Rb 3.2096640752187424 7.54181651209187 11.092580328027498
Rb 7.439086946345438 5.61420463976351 11.100626379406672
Rb 12.278773041170888 4.68413705936277 11.122487011034682
Rb 4.970698624991234 4.334180064139904 14.733759617752073
Rb 10.594714179982065 8.969026546291902 12.557201989813954
Rb 8.730132700648966 13.532151782232972 13.411548905091408
Rb 13.520168115342962 12.513427813026553 13.23804786131343
Rb 2.1247782716912 8.182396046500655 15.520172724223757
Rb 3.6596920418236922 12.182335314982376 12.791607652591704
Rb 9.832955024716394 5.373509114562498 15.411819974500217
Rb 14.196265823979022 7.669056950551963 14.753176908563406
Rb 6.6261596825234825 9.030522743110499 14.937016664117042
Rb 10.863481281584885 10.48902931532902 16.851268122974105
