38
Energy = -23.98444178 eV
Rb 16.759789798904727 9.399351009066827 6.843419680118201
Rb 10.023021056103655 15.832693455140662 6.447176566312565
Rb 12.693600071731876 8.442993306330907 7.969128842827591
Rb 10.942299574331793 10.585532082837428 5.289118335595924
Rb 14.040025600410425 13.258363139564997 6.843419680118199
Rb 7.3942075454575695 12.281795277273726 6.1601331003671405
Rb 16.659258990097186 7.166645231066858 9.30011872839071
Rb 7.7577401747005545 16.012058635038 8.707945151939084
Rb 7.8107923374890955 7.781265077296864 7.070310514664748
Rb 14.544551162639396 18.106450943172206 7.341964767463917
Rb 18.829005584763518 13.6847079955407 7.516834331252667
Rb 20.175159822295612 9.151449976916266 8.9171104629776
Rb 16.59859158781377 10.594354713825808 10.133276726042505
Rb 11.255176812054032 16.08665272669722 9.785978676413995
Rb 9.376712006726505 12.160735484044416 8.109111463237344
Rb 9.942636412263345 19.59837622004241 8.30811448371349
Rb 10.749272389715914 5.932143746139357 10.208562869755678
Rb 6.322453962040436 10.880873208818942 9.794977087120573
Rb 16.067771009371214 15.461493335409225 10.972980131235397
Rb 12.37069451828347 15.454315891859512 14.176196418976437
Rb 9.292546942759525 9.020027623088039 11.418705327657843
Rb 7.115910045751931 7.236105007493042 11.519188808785414
Rb 13.466582958771843 19.59837622004241 12.12317844364596
Rb 8.069582722601892 13.658778323323073 12.543901172269983
Rb 8.780134464678323 18.454356902989762 13.023938629937344
Rb 19.572600890021086 12.940245980279478 12.277850956437627
Rb 12.640935876454549 11.99539902438513 11.348756161682344
Rb 18.621438066561794 8.178771145542516 13.528497218727434
Rb 12.078011856236719 18.88188838136032 17.012063199459877
Rb 13.81758495274976 7.5885117197052425 12.77879970188624
Rb 7.412098572755053 9.957369786169146 14.741004275797419
Rb 16.026729075042205 12.164931892454097 14.713553781240313
Rb 9.741142550420838 7.3366084351768395 14.888154574277804
Rb 16.588406519525925 16.99054207472795 15.444115819261835
Rb 11.045000937897447 10.890090676911283 15.685336395831824
Rb 8.707272856596061 15.109456642707816 16.94318577319128
Rb 14.99527580459939 8.39464241344068 17.190620349358817
Rb 13.613271677447665 14.199750016305869 18.343599157484125
