39
Energy = -13.3520737 eV
Rb 13.628497557671794 15.913655638860567 6.01037630284227
Rb 12.333714968769284 10.980118245477898 6.696216054611695
Rb 9.18244384527093 14.659432742603345 7.729275770669213
Rb 17.081675481391215 12.343042480027936 7.345032775355487
Rb 7.212574010384315 9.693844162959165 7.704798435179504
Rb 16.106409402225065 7.3250682374977565 7.031128808790988
Rb 11.864054531445593 18.5491674789848 9.494597884073732
Rb 16.949192940961456 17.25578441406995 8.929538295602988
Rb 13.692139354647528 14.147871195098366 9.352244109249767
Rb 11.53252757914008 6.682997887176091 8.596738454607774
Rb 7.123063211253465 17.988303728189074 11.335668066982661
Rb 10.520022892137588 10.895373745895945 10.40980542352068
Rb 14.956611215136363 9.671384138849131 9.919041538038929
Rb 19.42146180458896 8.81039522921602 9.92807370429593
Rb 7.057071713605885 12.936117015294718 11.489148862309156
Rb 10.353399442650968 15.116332606346731 12.446537353499398
Rb 17.89057019315978 13.139857329513436 11.425336333269744
Rb 7.821444155278677 7.526328875939015 12.254847981708378
Rb 15.833457026408597 6.024653225841347 10.923950831611537
Rb 14.60623584065777 16.9833819227309 13.210115965497469
Rb 12.359878555349857 7.488570648045908 13.42931997571062
Rb 20.557862519294666 11.292747317779268 14.82051458173517
Rb 14.671437488953664 6.41964264955246 17.072736482830614
Rb 16.915698460369146 8.708803565536842 14.261731106628462
Rb 4.397718115479608 9.145868708465835 11.1707164287799
Rb 10.656651037384883 19.036509155539356 14.781715639749848
Rb 9.52743376555739 11.225781078557558 14.86727002584745
Rb 18.97578126809554 16.773257854383747 14.14836737891354
Rb 13.837902119986314 12.199624212452214 13.648053769924502
Rb 7.057071713605884 15.230153617748357 15.770433090911387
Rb 15.296575891299888 17.894566264145922 17.827032785666418
Rb 11.827893139459333 14.874249218712263 17.098635648244063
Rb 5.9809707609583125 10.237360265635749 15.76372394947388
Rb 16.85039189450504 13.494109168280968 16.75252815721651
Rb 13.188882415295708 10.102876392508902 17.8129754079656
Rb 9.338180150635626 7.204854196824605 17.127219864187214
Rb 17.71663085538571 9.367818766160653 18.95189247925438
Rb 8.765912625171106 11.788295363239971 19.31639036965187
Rb 14.555144543729002 13.572687192356259 19.31639036965187
