37
Energy = -27.22276661 eV
Rb 8.617050535447977 9.867325006684425 1.1789324072989142
Rb 8.19993562511892 4.8482822005949275 1.5376514618112425
Rb 4.3562817396443005 8.055987589249819 2.7341325550820943
Rb 13.129241346692734 6.880381555033713 3.599049449243325
Rb 6.503197576329047 12.22774651299202 4.828546543103506
Rb 11.341087987046334 11.400723849246985 5.236332783405192
Rb 8.4910360961682 7.47296148973136 5.032226469809467
Rb 1.7890421858621615 11.137787635189042 5.786341881875791
Rb 5.272278154920073 3.8558911506645805 5.44249810423143
Rb 0.7935584372114022 6.289143278469324 5.919366218821915
Rb 10.547225579893045 3.1970093550592615 5.931000841450886
Rb 14.27606732399252 14.626765722400346 7.7668253875527435
Rb 15.793315700412137 9.659225082717509 7.014934235984383
Rb 4.561328079607659 8.118978563451618 7.550216075290244
Rb 9.125646244702988 14.648366324466904 8.308713127444726
Rb 15.665453701124067 4.619116423066107 7.547575591031751
Rb 11.928747592363173 7.179625567249666 8.063509021145629
Rb 8.297736093210393 10.017641379578269 8.711846776863759
Rb 12.12106704552858 3.5053774214980638 10.832432490664537
Rb 12.390849888486143 11.305766166722172 10.058919246628417
Rb 15.122639154905215 7.798183007212608 11.616529526372716
Rb 4.58474673138172 12.925490059768684 9.594189298815689
Rb 2.8698483963265082 4.564380127537358 9.91278972998748
Rb 16.392769890160544 3.407294657727618 12.460162148265566
Rb 16.246148744961435 12.661693346128986 11.778180732264312
Rb 10.143093721494552 7.577003235633229 12.521656182846563
Rb 1.0126781573884365 9.276560506849977 10.206998026402287
Rb 12.006762181396898 15.459162201537861 12.404599192631618
Rb 4.585837595821493 12.739583027044022 14.683745998204644
Rb 5.385029590688886 8.365839850644832 12.319809771827986
Rb 7.691668181087788 4.993909911064327 9.463901164034946
Rb 6.957785236563054 16.467834902815415 12.397851316320999
Rb 8.529870792950737 12.195588520923588 12.580917484791296
Rb 12.802422319807786 10.927187259839053 14.862835545757417
Rb 13.118867652583043 5.790902924215955 15.463229891931803
Rb 9.079185939492225 14.469712413964254 16.37035152410834
Rb 8.390806717173195 9.585879710970444 16.40150973464178
