31
Energy = -22.58397727 eV
Rb 8.741738326696053 12.335086039198266 1.7553935391890212
Rb 12.97222599957715 9.862056163551204 1.9065445440465227
Rb 12.730174124284803 14.545443336679167 3.4185211895048697
Rb 8.623585983753076 7.4556700771434326 3.3303447328871028
Rb 5.852548606212435 10.786138777539625 5.606992521993529
Rb 8.370455146979019 15.221335961804915 5.757119270344738
Rb 10.78870492694184 11.036167657857751 5.6143931570226115
Rb 15.400440498359995 11.334967629429702 6.022927312036371
Rb 4.605509865158485 5.726459686990101 6.774587149413014
Rb 12.737294316655877 6.53645403543994 5.928140175173412
Rb 8.828033991900892 3.075026817427624 7.075551805652981
Rb 8.64171331839167 7.576101762334105 7.985035539081553
Rb 12.642541742268586 14.527560227575723 8.442838428170798
Rb 8.515977271722093 12.006183934346536 9.409594803015837
Rb 4.643650641546556 1.283714052199901 8.969816351295625
Rb 2.006782983252856 5.148135889701904 10.949676475655389
Rb 6.533022336333586 4.6995997265199465 11.20982055154306
Rb 16.027938355128835 12.354298195503546 10.950399642586458
Rb 4.673359104371327 14.29016898386615 8.883160403154267
Rb 12.811231245620984 9.399016383527384 9.6903883748434
Rb 4.407602060310153 9.266486873000218 10.130042239726025
Rb 11.656352484251553 4.710231838739024 10.6479025615268
Rb 8.860873565642876 8.431896385176694 12.446051508845345
Rb 6.294878090942314 12.123473526083599 13.645591636946204
Rb 8.789698900806842 16.340281813229463 10.607984486191969
Rb 12.973118232705223 7.883007613063357 14.305025660335277
Rb 4.737133615489926 7.442642984021481 14.637540246037418
Rb 8.922052988241447 0.8195105299750708 11.493797266787526
Rb 11.456289092790827 12.639193868627013 12.971956739877635
Rb 9.372656886043718 4.489344861115965 14.98648356201271
Rb 8.772759092087842 9.044688162799869 16.836721919569953
