39
Energy = -28.9710548 eV
Rb 12.182844888608058 17.3409800338928 6.622376732941929
Rb 11.862260431735566 11.740482764150332 5.037857269686474
Rb 7.846165309484026 9.429999550270542 7.730570611906959
Rb 11.978088745817242 7.119332535846669 6.08598414290407
Rb 16.335730036391585 9.430869432957868 6.90801739759497
Rb 9.7396058607492 13.935017537295076 8.383742997251593
Rb 19.42320995614544 13.218979579343172 9.111223732299456
Rb 14.940985423130808 6.367728632653606 9.93238972068889
Rb 5.590831928075143 8.031140248737518 11.552902108131486
Rb 12.619007284359622 17.67454951490627 11.055967879689797
Rb 14.772310421688015 13.855278616201659 7.860491794359308
Rb 16.775814609173388 17.88028221174873 8.447537264372569
Rb 7.755895735272902 17.96793793983604 10.087277581872565
Rb 12.300159756882689 9.846123182584902 8.77732131165107
Rb 16.25841427393912 10.605141513419277 11.151171785460669
Rb 8.872092944881631 10.459967471300812 11.769914362837808
Rb 19.432876222553787 8.285061223450164 10.202949723199179
Rb 5.761693323527701 13.15378079064224 10.536303924835643
Rb 9.815615319223465 6.3024086341185654 10.375961480217004
Rb 12.811502033184407 13.138334624116379 12.032769844505637
Rb 16.90335191850827 15.39986792327501 12.73496809928164
Rb 12.715027314574984 8.420942765979607 13.241777578871895
Rb 9.034351028466231 14.85980042029672 13.209805604878953
Rb 12.744679806249957 4.523596983396656 14.269823462143469
Rb 19.42320995614544 11.481340384879665 14.30003904087456
Rb 5.630054606804785 16.650111646304662 14.27194716542251
Rb 16.97645428175491 7.119332535846669 14.66545640879902
Rb 9.435744514312729 19.071992940631052 14.761269801859779
Rb 6.410110078422272 11.478539292527556 15.38548880814024
Rb 8.6326982555335 7.142159242664332 15.325697797323437
Rb 15.277637289407872 11.563901291297121 15.59102344845855
Rb 13.131432163907606 15.943425687047217 15.925979426086009
Rb 10.724408179217512 11.504533790920737 15.967136011948233
Rb 17.659668248402966 14.627268762107622 17.76973845306527
Rb 13.14264262754823 7.78747583945125 17.940178143844925
Rb 8.624859601661916 15.039994334006522 17.997680995583142
Rb 17.757121761011316 9.800791279592103 18.899723550205188
Rb 8.655949463487996 10.063653497326232 19.616494386570057
Rb 13.263755967583613 12.560945960422 19.70829897763104
