33
Energy = -24.22165522 eV
Rb 10.120537852442721 11.423265624601548 1.2177493216423003
Rb 6.02490707532994 13.598535218368932 2.991118350484129
Rb 6.022764906122905 8.761539690661202 1.9053158951577145
Rb 10.347996568485506 6.6897530587331175 3.2671060425978125
Rb 13.264506946339036 10.767903430276387 5.04885023769555
Rb 3.86746876927709 10.334764023519357 6.165196609544639
Rb 14.384633410857594 5.846850729937476 6.402379691047699
Rb 10.79923550483608 7.659445741708954 7.905561909259216
Rb 10.568874505088635 14.939203541532125 5.0208872523928525
Rb 8.44011626288642 10.60454857445854 5.254429186948948
Rb 6.672910053015436 14.353317928416379 8.015622779080294
Rb 6.404921272260958 5.987077099120705 6.230249918994851
Rb 10.193216511476743 2.982013013886503 7.422117060190648
Rb 10.86531626081929 12.356423582974832 8.950836055285562
Rb 14.625785117328652 14.514122608839871 8.053654495251621
Rb 3.456171260351373 11.646119480135836 11.16285542180354
Rb 6.996252524475721 9.74463958602817 9.608991333139544
Rb 14.751226513053815 9.615720958962191 9.805738399218354
Rb 5.733109490932925 2.014231586518813 9.430221986635853
Rb 10.638512671596684 16.66101950926792 10.401503469180122
Rb 3.6948171339959406 6.507226526606179 10.41828737942107
Rb 8.204459694806557 5.460328830890294 11.008154076768655
Rb 12.999451830088441 5.0950558584973145 11.423228429842975
Rb 13.429743165873896 13.196610397718102 12.963884070752435
Rb 7.947507061548463 13.302834884155294 12.822447845376999
Rb 10.71722807183569 9.23235567675231 12.451903668200787
Rb 9.66595746733423 1.4816174930773423 12.345284950630992
Rb 10.792809281243853 16.043395291608643 15.397334882994242
Rb 6.408325833741732 8.690177832343519 14.336035871028916
Rb 14.334965037716753 8.460361339835504 14.890000714013002
Rb 5.571463350206846 3.648080175744525 14.111101087992486
Rb 10.125223615545423 5.646237206808595 15.442958805001687
Rb 10.354965988823846 11.160604507753058 16.55437381216282
