30
Energy = -21.82666002 eV
Rb 8.697512092997215 11.225478847929304 1.0208580555044393
Rb 10.772892397394454 6.620422673941451 1.4180909886738375
Rb 13.198504192090379 10.573563560714048 2.8758025925428927
Rb 5.908201935350008 7.15539813634929 2.245353194415164
Rb 9.947792663550553 13.817683753059189 5.210120912901464
Rb 9.148233475537005 9.065398833336626 5.138352343743128
Rb 13.354807020137462 6.423187141047834 5.6304836352522765
Rb 5.160965729380023 11.758045220775156 4.666198602056424
Rb 1.7080966051129318 8.227594739190556 4.285539557141849
Rb 8.569155318274161 4.226083371073649 5.418255906828417
Rb 12.96684778114143 10.95013053326513 7.886722580495636
Rb 3.822125863414301 3.8186313281018083 5.392273518116849
Rb 4.9012296205030985 7.695203554827155 7.674799964208647
Rb 6.705376535233674 15.797167851055447 8.565397065878374
Rb 7.590411802468304 11.493757581192341 8.997066872437665
Rb 11.186637271309841 14.653883300895505 10.6740775228932
Rb 11.793044016766869 3.1682173956584725 9.32685391778834
Rb 9.797755803086492 7.177286418994002 9.152543072465983
Rb 6.660801835343894 3.864936337108743 10.346564265202108
Rb 7.182585713785223 13.166955594997294 13.658669626535394
Rb 5.931925830903874 8.41251789279783 12.314634049096824
Rb 15.287996744366966 11.964148006569722 12.239014256179638
Rb 10.76445056085668 10.171947723700367 12.35532714212063
Rb 14.5368628776566 7.20722063318419 10.97195298230421
Rb 13.886677683999345 8.7522153316095 15.617635780428339
Rb 10.35558275892391 5.504130804331075 13.734960302526105
Rb 11.932284615150003 13.431206525001242 15.5236515505618
Rb 6.086375128760549 5.463237308723931 15.878947377206552
Rb 4.382672073170982 10.153457130746729 16.40266833423396
Rb 9.092837761250303 9.391536177738779 16.70782773817571
