35
Energy = -25.8347815 eV
Rb 15.21587024041554 10.648436423777063 5.00990401047204
Rb 7.538865222335017 13.697868616109938 6.797413695662246
Rb 5.941256405713495 9.15391536175926 7.673699188933434
Rb 10.099810799940599 9.775220330753905 5.446108999975223
Rb 18.237821696390455 8.067791723896711 8.855480731223563
Rb 12.340022807804628 13.84835407029771 7.235882746373913
Rb 16.82979298194457 12.919225027195615 8.895657276348695
Rb 9.235765148617263 15.988109590040192 10.544775047008304
Rb 13.529327718017157 9.009381240656122 8.429792072786862
Rb 9.224015795427833 11.112222955300819 9.50147159946155
Rb 14.255914988532359 17.21230228963642 10.609646449511294
Rb 14.648430000334903 5.587052164532438 11.413312120072819
Rb 18.94157981703362 6.804987843108631 13.767066891379116
Rb 9.617991252034127 6.603068667324319 8.994076197267622
Rb 19.404915097032575 11.022100510694472 12.412921670037475
Rb 12.959256498231788 12.937346839770541 11.354324361688203
Rb 5.60672724612437 13.026291942914249 11.040574063567473
Rb 16.094897088308386 9.760821785883959 12.508078726369062
Rb 16.944532490864898 14.515450343180229 13.787217717524408
Rb 10.836488997915712 19.039187492713115 13.353170137009771
Rb 11.512428269779983 8.665116584954914 12.73936998608132
Rb 12.077932116631585 15.874949532524724 14.705209518178366
Rb 7.099048038385644 8.295435346899623 12.383094434341578
Rb 8.73707821036032 12.36705225742866 14.247807499745598
Rb 15.244864805421711 19.03918749271311 15.265080511249455
Rb 7.538865222335019 16.796218919404147 15.19478618736484
Rb 10.26105598817951 4.932231624243025 13.691522038607479
Rb 13.402736935238893 11.64240453655588 15.845908146921522
Rb 17.885512985744683 10.615262880059538 16.86374010621303
Rb 11.20211291661188 18.662247576762432 18.151340576332263
Rb 14.651242567135071 6.919077274842498 16.074809489452388
Rb 15.064421787639814 15.179096724272535 18.419434943320542
Rb 10.002385429028461 8.759016540039054 17.201589479040916
Rb 10.243420312166922 13.858166906680795 18.675306940915476
Rb 13.831826505273407 10.611546066829924 19.16864082251572
