35
Energy = -25.80290004 eV
Rb 11.368904217063971 13.592950984987928 4.983434011417686
Rb 16.04734237383463 14.512760059111312 6.227651534514731
Rb 14.225683120858726 9.807267639320406 6.276265708959176
Rb 12.393151282977769 17.750386651907558 7.8119254005561345
Rb 9.353008546110471 9.793302747234689 7.811925400556133
Rb 8.115207568321942 14.930816311531848 8.596034392017595
Rb 12.802716448046668 13.098316222035088 8.918620807503247
Rb 17.241280020583858 11.479004790782946 9.935023936576172
Rb 16.120029569732345 16.45571992334088 10.76983962465449
Rb 8.44153302548243 19.47413608722971 10.801101059231508
Rb 13.217909671005154 8.37415097517525 10.746817737577764
Rb 5.498076131826014 11.216952040962326 10.751539759713655
Rb 13.28492553433021 20.330748881991212 11.896194401612343
Rb 11.308551818640975 16.331099049539823 11.97951852520624
Rb 9.521249576382823 11.878929229212524 11.91542645658706
Rb 8.470859168671083 7.3571427873287485 12.36855418644359
Rb 14.200131532900022 12.755696043615496 13.081391357726654
Rb 6.573075374376426 15.401373022706482 13.334421518782426
Rb 18.340904035611842 13.625631160433107 14.814761183357833
Rb 10.458973540208495 14.106141795164618 15.906953744119125
Rb 14.66647325095072 17.17302227871068 15.52534407300407
Rb 6.82076749323125 10.953273397334058 15.797639931941626
Rb 11.588514999081482 9.490377978501956 15.262569962908241
Rb 12.99829254277999 5.41830155641391 14.634887391836013
Rb 16.455556554199205 8.80874528075579 14.557152015307924
Rb 9.796751962270804 18.72834871161243 15.808927244483057
Rb 18.366260361831518 10.606532479584638 18.85738860073244
Rb 9.067636300442796 6.758596437881681 17.51097959313615
Rb 14.483122595172192 12.452871347863514 17.472219177048704
Rb 17.19172376095477 15.4811878729212 19.434627961366566
Rb 7.170913971784651 15.160884445142962 18.569820295976072
Rb 14.049121799387082 7.821041698328678 18.839471251789018
Rb 12.101181785812233 16.047579418311212 19.74369195418033
Rb 10.100591426887785 11.140313331696566 19.581349367731658
Rb 14.636096074233055 11.955773266490326 19.74369195418033
