31
Energy = -22.2163668 eV
Rb 6.108773175618667 9.21297468906935 3.8869954384602883
Rb 8.018178155806698 13.754330239101996 3.077151308430071
Rb 11.30797312718311 9.900224178762342 4.229030148843428
Rb 9.821156967062194 5.187353861488796 3.845327161236596
Rb 3.7411970343900984 13.153485586423379 5.731882176656675
Rb 12.156440590476906 14.538788690909254 6.582814904026883
Rb 4.8225100479887475 5.095627429407998 6.318718973957365
Rb 10.190002823972263 3.0195413060774343 8.433888879724362
Rb 13.5575961021257 6.340520398883781 6.882477871061898
Rb 4.327372267675671 9.414963240897034 8.537471093467468
Rb 8.739528362899122 7.415623800942424 7.445876771087716
Rb 1.4064312367025098 8.434493586684635 5.337069943459224
Rb 8.115705687507809 12.06833750891951 7.19466906918336
Rb 16.134941355070882 10.625994337525606 6.743217873149682
Rb 7.358181652147683 16.46482305757991 7.118387822148114
Rb 12.264716314874724 10.46295103574272 8.949754705532749
Rb 1.4536207961349477 6.264427913318172 9.87531843953652
Rb 5.263207269237195 13.71514502509229 10.58665687882017
Rb 6.335700469662591 5.262928621342644 11.067396496880603
Rb 10.231678209031276 14.262596007182664 11.137491425988154
Rb 8.155962398313072 9.892381581582272 11.369103702272024
Rb 15.25020175111326 13.300811987443963 10.757723717630167
Rb 11.41348501444093 6.531303496312248 11.270228744032767
Rb 14.546994323015833 3.3358831655414534 10.909556977929379
Rb 15.986677757877102 8.174425069432846 11.026515861836344
Rb 3.8814173262578926 9.130101415017506 13.107684125638496
Rb 10.302078222531048 2.7277200587081807 13.424693344843407
Rb 12.499505531282116 10.651626687851476 13.74567106408506
Rb 7.620578879562865 12.305805116091333 14.949259190151734
Rb 8.980221743265677 7.262528234385266 15.194834452906429
Rb 13.78307542206307 5.8673926875735 15.038241452315528
