30
Energy = -21.76283941 eV
Rb 7.380055073072529 9.141406123641728 0.5189984975873161
Rb 10.36480147681957 12.704278696513638 2.1529342011108183
Rb 5.5409801853404534 12.828837666162052 3.1119323141689836
Rb 12.017492992646352 8.016379969546263 2.3905574806207404
Rb 3.9052849379747214 8.202043056991256 4.004462087205116
Rb 7.825288375547867 5.106009754222341 3.5261493206120518
Rb 12.267582388662207 3.488968703668222 4.327276921426523
Rb 8.394887819127769 9.60613316585799 5.172290885371674
Rb 12.918289944418305 11.337513003966382 6.266111765716242
Rb 15.520270472010102 7.3099170391918395 5.736240231401755
Rb 8.919297975095072 14.292323725749544 6.856639548770965
Rb 11.205510073571919 6.621123029671748 7.440298610840384
Rb 4.83749348896639 11.717802589963773 7.8823911540073
Rb 3.956886234910041 3.5577727725586037 5.9963569889331465
Rb 8.40050720007746 2.783913415405309 7.913029972990589
Rb 6.058823383854161 6.9673166712108445 8.398671915454106
Rb 14.107311988038518 9.064528178659266 10.672762397051883
Rb 9.37154505255741 10.34124151774948 9.637036903122622
Rb 7.480133533471413 13.973148512249592 12.01740479699391
Rb 12.334308693978748 13.93881324032921 10.916354562368461
Rb 9.912895760118934 5.818358710688191 11.904003415401274
Rb 5.308241085627595 9.581180308236167 12.388836007464192
Rb 14.829156303838866 11.837963999470443 14.62574242804189
Rb 5.383264770599086 4.623701416008733 12.582425649003715
Rb 13.204499197567674 7.2498545830329695 15.476175066892274
Rb 10.870230276780825 14.644539464842959 15.650944908444202
Rb 6.55853608136373 11.677931368729162 16.665038959173174
Rb 10.212053580216875 10.327970019095984 14.113084418031415
Rb 8.209280941487243 6.494077333758241 16.306326322960054
Rb 3.6588826467698303 7.698743897338682 16.303314203344193
