32
Energy = -23.45585657 eV
Rb 9.61219897713376 7.734738915610716 6.678242768823171
Rb 6.355529342686408 10.882943280875748 5.643613398870033
Rb 11.187389454818538 12.288019944050097 6.64303102487873
Rb 14.220331949493557 9.304902633968318 7.871357294757027
Rb 15.273571814731232 14.175315379833268 7.66060111838922
Rb 12.109196115974976 17.273897641534177 6.523257553267413
Rb 5.908494788691336 7.892657203467128 8.029283619009554
Rb 17.47793868265515 11.155455657123769 10.326886632384335
Rb 6.118521418415262 17.130527062565655 9.064975335908326
Rb 7.436312649388986 15.563424155254292 6.678242768823174
Rb 7.703764360313715 11.739063676370597 8.828104359777168
Rb 12.644307794723817 5.950854264136647 9.41602812225439
Rb 4.475069608520171 12.72198488164308 7.8009045219056325
Rb 10.81240988407839 15.164136363241854 9.340864927242293
Rb 9.12553761154322 18.763502606956585 8.35022485474153
Rb 15.741687826414648 7.320578216227404 12.236779500398697
Rb 5.977870343892467 13.743974253052285 12.457394516154126
Rb 7.968838845005303 17.53568039488894 12.669624094050315
Rb 14.018212200754155 18.763502606956585 9.691415060386905
Rb 7.774847777263395 6.081536030780518 10.561036456200727
Rb 9.39618722720597 12.686457219726156 13.071342659718631
Rb 10.854415914077759 8.613500774819853 11.331828715718204
Rb 17.153832655507635 15.65710088277589 12.241282973022823
Rb 13.90834848293513 12.083007645859569 11.895884780228856
Rb 17.425802056463247 11.38922690801567 15.100600616672105
Rb 6.127097334155611 8.997767056616986 12.570448131016514
Rb 12.536131635834277 16.418415519521126 13.811889604544481
Rb 8.155981820869195 14.451309603118045 16.82307576620632
Rb 14.157998078161285 7.99426594296232 16.60704735457771
Rb 11.304731065028555 6.0839221047944205 14.164847079958
Rb 9.505182611932472 9.031898429868868 16.19346331081037
Rb 12.952719000053715 12.593120069669842 16.733105594059655
