39
Energy = -23.52599016 eV
Rb 12.500896602230124 11.975275553224234 4.827981251147209
Rb 13.297735990484007 7.102425153627281 4.964300603776839
Rb 8.539762033981878 9.09593907444563 6.671134764550921
Rb 17.16717182597631 10.060514943892475 6.652387856840477
Rb 9.805763017254666 13.545922043829039 8.227333169621744
Rb 15.028383764026545 14.010791009938599 8.19637973049906
Rb 12.839865855920527 9.560111302736546 7.956802747552067
Rb 5.938143203413108 11.757519571904766 9.9314306348221
Rb 10.704293463628435 5.773300840731037 8.523037609349863
Rb 15.930895392308877 5.773300840731036 8.514090442259665
Rb 19.878128190715575 12.970097694604577 9.535620510259392
Rb 6.344179611690573 6.4061760115603645 9.771620099931388
Rb 11.941324897566949 16.572695998076192 11.87769127972939
Rb 9.073923577104763 9.153090884827444 10.636598584266327
Rb 16.69097435991109 10.09620484091388 10.76635938709107
Rb 19.878128190715575 8.036210118540223 9.572252998399842
Rb 12.741340717956932 11.992751603492474 11.70779252240141
Rb 7.4871551972930535 16.6529616490571 11.015471883837682
Rb 13.19282827310274 7.24404646942068 12.014104535088412
Rb 8.603060383444232 13.085166790511376 13.05804704511152
Rb 16.59099109280579 14.5033849503119 13.127602220943446
Rb 13.727651900577763 3.514082533505717 12.097274722569583
Rb 9.00735008719625 5.772219999126946 13.336914243169662
Rb 5.319549462259557 14.184568045798278 14.737469161215234
Rb 17.547417911289237 6.133805772434993 13.574348902660814
Rb 6.566478219285101 9.102465003680052 14.270270269520491
Rb 19.79912635866715 10.679113417757979 14.268169266594958
Rb 15.32871703863469 10.047137654073888 15.196273111565008
Rb 10.630708658969041 9.391959418911453 15.11435731883974
Rb 8.976665626434132 16.881066156913864 15.874607993527128
Rb 14.262040668338638 17.700465082438484 16.317314461376142
Rb 12.461089878558887 13.652799362460195 15.864672356284396
Rb 13.538035778947162 5.820551006077924 16.652781981930495
Rb 8.197422464596436 12.26309379207002 17.8949753071633
Rb 16.59678919838482 13.367375161324288 18.126039224188638
Rb 17.614569129943906 8.108727719063348 18.43684824482639
Rb 8.629795573925154 7.210122526572479 18.323236155622233
Rb 12.817121177387603 10.130404423340124 19.280138682413686
Rb 11.82125880839248 15.286619921695786 19.8681635312835
