46
Energy = -32.43863682 eV
Rb 17.68234416286778 13.124930688548314 7.7172124873044226
Rb 8.501744767196367 20.055976658506673 16.747702865944316
Rb 6.355640507275718 12.612027220996193 13.982972178918171
Rb 7.777087213873341 7.985042117822107 15.61729735493794
Rb 11.145230474292493 6.769545155624267 18.485814023302904
Rb 16.776971152795323 12.962659699774497 22.67777345312874
Rb 4.851608418058943 17.263986221126096 14.320996511115546
Rb 14.474000558758947 17.40034604065605 21.56202258978168
Rb 16.460743285964202 8.41372932440838 7.707850281812566
Rb 15.936304665866015 6.889737605265893 12.161347146050321
Rb 19.90409766476722 12.432035576592062 18.59239879592865
Rb 14.227175158727038 9.574609662065722 15.75027543444605
Rb 11.51014376389788 14.395156519319169 10.143674645745984
Rb 18.921174994788622 16.746702640641992 20.140237311949676
Rb 20.647795590077543 14.904995520648825 10.949529767476335
Rb 11.994525660182301 7.796358234051577 9.526724942092534
Rb 10.778756250085873 14.344617485004465 21.74160000595424
Rb 15.555001842382888 5.361890792050302 16.819251561167917
Rb 9.76737280252704 18.981558590332675 21.311682170457434
Rb 19.075185624879193 8.509281207067342 15.476486381228641
Rb 14.13834550130976 16.27115134625364 6.667381951575065
Rb 10.168218259350194 11.8438933201248 17.51303181395095
Rb 16.29087164232731 17.58858937818012 16.22970276138118
Rb 13.219246140029485 20.99883453223639 18.552337239363197
Rb 20.973078344009647 16.39348356523654 15.716075342158259
Rb 14.967821679764622 11.259322452837269 11.034672235413572
Rb 7.7770872138733385 20.441325974316015 12.12467459083793
Rb 12.457998195210326 19.360659115648335 13.670992805698262
Rb 17.82649433487321 13.016274809042807 14.42920796293352
Rb 20.973078344009654 11.931712264731555 14.447473879110614
Rb 10.875564087640194 18.754181547164478 9.124333470873143
Rb 11.723807399481334 16.708317464703125 17.8409206864172
Rb 11.474526763465299 5.768748275406115 13.933905905828075
Rb 9.484255546758051 15.13599246065929 6.142750109841995
Rb 12.850587743535707 11.573948171327471 6.764175645786353
Rb 10.475649315935538 10.589939977701631 12.899730838458206
Rb 19.59472469277226 10.088083650800824 10.947503976721084
Rb 13.297414532656594 14.199149165885128 14.39425055951562
Rb 15.96102828093373 16.445170056223628 11.204833027215468
Rb 9.149411580246063 16.129105198520048 13.915239711675733
Rb 7.278528135851784 15.651314322049338 18.383720908906202
Rb 12.798635896860867 10.077846301371418 21.352577102047032
Rb 16.896625788874573 8.954797976819187 19.67428242673922
Rb 15.089312863243181 13.421590129102617 18.627541368392336
Rb 8.32099964051326 11.233205004869241 8.829961477869054
Rb 6.8717380487435324 15.902446460902757 10.014498813422767
