45
Energy = -33.65967709 eV
Rb 12.32651628729111 8.073822851310418 18.436420000078908
Rb 6.709135703908855 9.002281549430723 12.252294644227847
Rb 15.242104220428129 14.977995152716563 15.904607401203721
Rb 11.433077050184432 12.588754788989162 17.206945201267935
Rb 9.21920105594817 17.02884350217227 11.454693092308235
Rb 9.460080067896431 12.349187653583039 5.530539695790169
Rb 10.54619960999803 10.686013430838171 9.502051620466185
Rb 12.13316289852892 15.447206704994436 8.225930210372242
Rb 7.029182894703257 18.85787517873403 15.253597688205568
Rb 19.99772975412218 13.465440242785428 11.562650237751248
Rb 12.078455266622665 13.534768350886003 12.574994743545153
Rb 10.781249857703543 9.301019232751555 13.93663953518279
Rb 17.66688261765816 7.977593843499243 17.507616197820223
Rb 18.82023750264145 8.90825903171368 12.836803444554775
Rb 11.764685750822762 7.779258457727906 6.368908359298
Rb 6.8787670289954805 13.121953492106043 9.259999299405294
Rb 14.265692085206027 17.749319224832263 11.991813992010382
Rb 14.93537255804897 20.1639724784549 20.195111053480908
Rb 12.932382570475148 16.095914767554913 20.195111053480908
Rb 10.673751908583663 20.336729708018364 18.767866928325567
Rb 7.029182894703261 21.142874486232465 10.80409129668583
Rb 16.44655302552302 12.993651805469938 11.607722871681549
Rb 7.6784682004652245 9.846686994748282 17.634629817695092
Rb 7.153971961557095 8.55301088773975 7.287123441710855
Rb 10.93167903326403 21.189899731927937 13.792760912532145
Rb 14.503288395420853 11.754878241006123 7.055933173763126
Rb 15.019910237421524 10.374811496198753 15.035925499460772
Rb 7.561394844174181 13.518364505107579 14.224186787127891
Rb 11.320358217240706 20.21870217744146 8.782032346177454
Rb 19.2347817697482 12.530047105215722 16.154148375233422
Rb 10.686703481675117 11.620778495639726 20.428405786257194
Rb 18.892054610811776 10.834106717667847 8.301722599048677
Rb 8.854318512037173 5.692889575003828 15.415049955371211
Rb 14.908851937077237 19.65091581681172 16.582939070561817
Rb 4.8065268405889245 17.055339695149005 11.037739072708058
Rb 11.074093034737718 16.953419647303985 15.690911673548358
Rb 15.567386412669187 11.87602161802277 19.65875482508184
Rb 17.55561811153011 15.886961891284564 8.522460966296249
Rb 14.128758837120794 5.991879467400892 14.348601310113343
Rb 14.622410162125801 8.53161967367355 10.39555907550827
Rb 18.77501912169634 17.002058082982042 13.766769591471697
Rb 10.311600624830671 6.154082003153265 10.525623003332349
Rb 7.591473197344249 17.339780553970876 7.265272974634496
Rb 17.736225386601845 16.62044173919022 19.387559780000778
Rb 8.068296069038826 15.245898781484685 18.908500591982122
