42
Energy = -31.37435452 eV
Rb 17.543622151585918 12.358340705824478 7.950247534227666
Rb 13.702392495371921 9.179806758052536 6.281595214839165
Rb 13.552768150072852 15.132622246856315 6.1866364648198475
Rb 17.942130422182643 17.426588087103244 7.236540989297918
Rb 18.26764057441339 7.289051275445209 7.428168817145318
Rb 8.722352153633553 12.038487753072955 7.863113796489014
Rb 10.051760130121249 16.47353601638137 9.686499405378552
Rb 12.647348083877246 12.166621632881965 9.266857919413123
Rb 20.200123243237535 9.441725567485765 11.226536066322259
Rb 16.5560875009107 12.320660471198721 12.281355563336685
Rb 13.662824568171994 19.775663722333345 7.950247534227664
Rb 15.406885509708287 8.451329707833136 10.289620601616427
Rb 5.804526194529753 14.458086864356742 10.68488474106355
Rb 17.56423451634468 19.875285458913925 11.132792994441987
Rb 10.36524640928848 7.667982113441065 9.62897314015924
Rb 14.170436241236661 4.966091130299689 8.16726262292735
Rb 15.083065136832577 16.02660918063994 10.235084317963608
Rb 9.042205921341003 12.024979834551367 12.181575401282482
Rb 19.96821996207799 15.405382033912122 11.085451029377143
Rb 5.8377746217377515 9.584455486517076 10.666982213396023
Rb 18.067780963414897 5.1698904044507525 11.334729960261205
Rb 13.157664539861214 5.45485112806588 13.13261523184577
Rb 12.637032894327854 19.262398234713714 12.972109425202076
Rb 6.027305547273121 12.0882004882142 15.29709526040259
Rb 12.738163620141458 9.636975102856926 13.649018152212246
Rb 12.413651475099819 14.54375126462165 13.787339185125813
Rb 17.149615590047254 7.8476755408924115 15.039146103398457
Rb 16.63821595120679 16.83049279570472 14.921806577394733
Rb 8.867808986494015 7.624252312977749 14.301193110414017
Rb 19.895209328076596 12.44663599260123 15.279378978354892
Rb 21.428296642247222 8.453067216222205 17.094564709344365
Rb 15.208071715146703 12.264485102559584 16.694208755228974
Rb 8.624612024523465 16.372086170703273 14.546808425063524
Rb 13.180817178823732 7.765001247765031 17.985799061154186
Rb 10.15586587313936 11.44229142231645 17.07046965901466
Rb 12.612986894141699 16.57285014853962 17.906428937497196
Rb 17.656649422072636 10.002034743318823 19.91852822896431
Rb 21.01905914213285 16.728112019067147 16.63443565294899
Rb 21.42829664224722 12.702791552209051 19.58610548907724
Rb 13.146104793390096 12.454452165633416 20.359799015453955
Rb 8.804260312972112 14.789781817658882 19.368597695795177
Rb 17.478385361334183 15.043058957050901 19.697952366734707
