48
Energy = -35.74971872 eV
Rb 15.163354582231353 18.32154362385518 15.625582965490292
Rb 10.444808237313024 14.051051249331554 10.797022462575336
Rb 21.861585622801933 14.026072023045197 8.665686079822406
Rb 10.529715624952777 17.86665830100405 14.091205078504801
Rb 14.33763421561093 9.642723958773686 16.879530187247052
Rb 6.671341592260868 20.142791348243012 8.097693314258164
Rb 21.954202199353745 17.797280030205155 11.844489903281815
Rb 14.94441509424414 10.466007085768991 21.71398225816908
Rb 11.404029791928949 9.327721813540391 11.752128720974405
Rb 13.131133628223585 21.663931538956398 12.349384567672283
Rb 9.409024897809848 9.492853380928816 15.808555109543303
Rb 12.876675857711046 5.970942625698952 15.588509270251704
Rb 11.316827779196661 8.07897029510183 19.84360803773118
Rb 8.136552978854574 21.311627051323573 12.654937045025918
Rb 13.17295074929529 15.615727669866809 7.2276342519942345
Rb 17.502103811504565 12.981234342654982 7.112068665299376
Rb 22.839641019022498 9.395437042917225 10.67991951063272
Rb 19.229304670226174 10.471458634059777 10.318785798345656
Rb 8.667051519576825 14.187748422524537 15.692905660673235
Rb 17.70623360633155 11.951879847621978 14.74154460256343
Rb 8.295154776643836 15.522596439024081 7.488851326104858
Rb 15.832882141063404 8.444366283150343 12.379695702103783
Rb 10.325940019307748 24.366316384624938 13.165490361120385
Rb 11.456219615188195 17.037371401101446 18.60516327850915
Rb 11.093857947272033 12.436023624202754 19.268864522022135
Rb 15.662017967967955 6.477096015449379 19.855310103943502
Rb 7.310642586473229 11.456345196498287 12.070246120536835
Rb 19.93548104063784 6.295414336517462 11.111702950795395
Rb 17.69311387765577 20.349310019901093 11.623665841729409
Rb 22.34167130027587 13.11310814750658 13.470400403966645
Rb 15.865838113240285 14.216743341280683 18.701993548057246
Rb 17.904245107148025 6.236381103738534 15.772621429698464
Rb 18.85756874076109 9.7659442489494 18.71236004892731
Rb 14.28622387815341 17.166262474962675 11.135473817210046
Rb 14.956707314774542 9.10309679037317 7.68814185129253
Rb 10.147269254385478 22.345237054491516 8.76061545914257
Rb 14.841329122068897 12.46160606336703 10.593435647538318
Rb 14.373223295437343 20.673528057526134 7.757854118542048
Rb 10.274246532161655 18.654098397725697 9.570704441249815
Rb 6.81225335237003 16.55977980540974 11.619408538651413
Rb 10.870955408245425 21.68373056984129 16.55564032266009
Rb 13.198468583836025 14.96209870011139 21.71398225816908
Rb 18.002997440045437 17.569867235526406 7.744769909584543
Rb 21.34373306071703 9.103096790373167 14.67271353665285
Rb 13.08642584031949 13.6817457401715 14.838008078618945
Rb 10.30259613292468 19.565080692909454 5.6164844297872385
Rb 19.53334167418694 16.19696172873275 16.057030620864015
Rb 18.36568967049425 15.160898127528187 11.62535069727363
