43
Energy = -32.3369757 eV
Rb 15.133233320305887 6.009167374294055 9.4983506135655
Rb 11.697822799179557 8.529897522164834 6.911183054829245
Rb 10.328691666358376 5.924844775127236 10.831973366238772
Rb 13.777154284544482 6.361123185399824 14.494918904639878
Rb 16.233330712420575 10.635496820083029 7.709400893591711
Rb 12.979457611374677 9.722199515417277 11.19878414514009
Rb 17.72322231971044 9.109611991116825 12.290917970403157
Rb 8.214909459216777 10.49098591627706 10.252791643044688
Rb 9.543528116193452 9.092771414348212 15.122955147076231
Rb 11.8629305189274 13.415722652385819 8.07567677536054
Rb 17.31983962941273 8.411673969760669 17.34432822038669
Rb 19.643929200841878 13.50184506399163 10.168035380664174
Rb 14.224701967517928 11.185547098258397 15.499745984985932
Rb 15.443039223077275 13.685317524916291 11.715855159713323
Rb 12.39549965783438 8.734154450438577 19.0240232144164
Rb 15.937976160336802 16.620977969341972 8.058148320259372
Rb 10.775826799844284 13.273712708191477 13.048623224026668
Rb 18.715466097866145 13.081926475375898 15.20061117835922
Rb 6.518174974742337 13.249837433347308 14.900553819867522
Rb 8.940980072228962 20.539939125141014 11.111190465622323
Rb 14.152494282717193 21.188882639566568 9.7712874189967
Rb 12.364306571307505 20.783841812007882 22.77326631398299
Rb 11.328412167891223 21.482999195760264 18.87355848718978
Rb 7.736625196422532 20.950351897782852 21.222514317971296
Rb 9.44304817242074 16.37208507665498 22.431257398726668
Rb 15.451707235864834 20.70878207084746 18.60949667000628
Rb 11.12570967039023 18.704168975695744 18.66236002903959
Rb 14.4574300372822 16.532239210298314 21.39418409327456
Rb 7.709076025469057 21.482999195760264 16.304438164183583
Rb 6.518174974742334 16.68154689829043 18.49128213973928
Rb 12.769259921810404 21.131726429423107 14.514624346118815
Rb 12.095766584234276 12.283023654206973 22.47398262013505
Rb 18.43937208507473 16.860500489874703 18.247931684316345
Rb 11.04830852606946 13.78347865903405 18.009277454113146
Rb 14.41062667059257 16.201771024328696 16.017382901706416
Rb 7.674188342179475 11.75669281404509 19.977569788419476
Rb 17.204672038792868 18.32817983757048 12.971903144308214
Rb 9.438909642222072 17.30734756183964 14.728114913163042
Rb 16.174051350871807 12.532296378129885 19.65002336682066
Rb 5.087429637485168 18.03015844441732 13.623306192758111
Rb 7.79474229616505 15.675083031363805 10.115030167273295
Rb 11.066812511212513 18.231648453333676 7.191332928834075
Rb 12.566410500605596 17.241915332023165 11.40674580314202
