43
Energy = -31.19752458 eV
Rb 13.175743700297208 16.35696090495285 8.375115574917329
Rb 12.712141848539822 12.535201701031761 5.624540071532951
Rb 16.704615751229895 9.425060044749952 6.046858240452303
Rb 17.364210015385417 14.321345685559827 6.900942724341477
Rb 8.03661053516684 11.136726120210689 6.97990311411944
Rb 8.326992301674945 16.131341726282585 8.375115574917329
Rb 12.02277383193338 8.049726256740719 7.7966018994826145
Rb 15.928790684464497 19.105371840641048 11.25041592734114
Rb 13.685787041845005 14.435561444957969 12.796020320060308
Rb 15.10022899205504 11.603350623327811 9.396222677861221
Rb 19.697700096555447 10.42474926492508 9.791478253751096
Rb 10.56344170478747 12.36432748055066 9.60208924821141
Rb 10.893640471469817 19.866470814127712 11.130106651575408
Rb 16.231120012670402 7.1470260291432135 9.992724286765418
Rb 6.137125349888494 12.801164815470186 11.044479218907286
Rb 8.308301487557452 8.103550548731269 10.837006326970371
Rb 6.061649517574498 18.254361837222753 11.636618782756727
Rb 18.245651815786445 14.892178952727688 11.427614456683681
Rb 11.68754059842128 4.995020914790684 11.108355007438156
Rb 9.504269793362898 15.839919509171226 12.556454251885306
Rb 12.478587415764437 8.949089668005607 12.134759538989591
Rb 16.714484594787766 10.304725890841603 13.616361432016548
Rb 9.276547086615837 11.567930375990002 14.115904924142228
Rb 14.902062389240808 6.280559306512854 14.971344726618344
Rb 20.08745776095909 7.355732679397784 14.393472522499549
Rb 9.674120880240151 7.05648612968239 15.489325621676238
Rb 5.794643722037704 9.403174489388615 15.251211612976018
Rb 20.55783275019274 12.593331984878086 15.163797635165364
Rb 13.378633828446922 18.60705196045967 15.292583508024666
Rb 12.9373589363234 10.455697883635683 16.42797871461855
Rb 6.458551833550159 14.565848696801043 15.849623711816637
Rb 8.4140113206117 19.1024009567232 15.659682026367033
Rb 15.9516850826673 14.029797784327725 16.442621029413996
Rb 18.4214497242146 17.771332845443144 15.526127859160656
Rb 18.430084049661083 5.851358400280728 18.50391162715796
Rb 10.931995620449412 14.98436257308119 17.38128404343
Rb 17.130757822325442 9.862671414807977 18.552529841518208
Rb 8.854933380360771 10.378364973277904 18.82747286581912
Rb 20.55783275019275 9.206176893783214 18.682051425459267
Rb 13.21925998427765 7.338016005602806 19.47113145410113
Rb 19.40627257676289 14.05464293985537 19.652390906112625
Rb 15.378337230244172 17.147583529492326 19.716965483500303
Rb 13.610937051025465 12.520604451631135 20.671490593364744
