43
Energy = -32.27544767 eV
Rb 7.266346459427066 8.77912847439669 15.350819824993076
Rb 17.17718194672743 11.638021353344051 20.48516682701656
Rb 15.409583699440793 11.019397749003542 16.030590030363953
Rb 16.49875656730524 7.264416311069508 13.66070536144695
Rb 19.367054059611657 10.621017040751108 12.37044266729817
Rb 18.456678617470114 19.531139152657612 19.22078077513776
Rb 6.53552183967976 12.98606885478446 12.81268914004143
Rb 15.477347447439977 15.474587873924687 17.54099737572118
Rb 14.251838878416525 21.036822304786657 13.065420219556485
Rb 8.012106278076953 12.863913271290585 18.02723537490546
Rb 11.187116561484622 12.721858536495903 15.30892949671039
Rb 14.33230614846069 10.560605520606812 11.542306074446032
Rb 11.338980673114566 14.495060135924062 10.922175353434337
Rb 19.98237902326006 15.46959601885276 10.762489286266584
Rb 11.841975357025037 8.09305791820651 15.003719173195337
Rb 8.321132346422411 5.9717490462197915 12.0622121499622
Rb 16.99728654482973 8.528350008803805 8.776748131628276
Rb 9.711759574078698 8.381706338773954 19.23645177899912
Rb 12.420068785820819 12.244383407046548 20.044217933429945
Rb 11.678184387107182 16.078349044995882 7.161227727903899
Rb 19.671065055394614 13.897447157591033 16.112687780276893
Rb 17.68913922294968 18.59503604870911 14.424380428366508
Rb 9.645338380384002 10.090254473842032 11.540659828159525
Rb 20.556860025750765 11.640791459297581 8.243972761954652
Rb 19.441861969197134 8.846126709450118 17.11097639864313
Rb 16.034170934103997 14.42616024136414 12.760287040306562
Rb 14.730743145774909 7.9755138993919354 18.982014757861585
Rb 16.118576821847117 13.684961995502976 8.287192627181836
Rb 5.423781712295604 8.819922613224694 10.510875152834377
Rb 15.403563530162694 18.151662557495644 9.826313390587588
Rb 7.695148606245512 16.683149766777735 9.680940710661213
Rb 10.775633715226467 19.69000436722927 10.473822544808975
Rb 9.944419985156818 20.30155068918243 15.291194464689312
Rb 14.86991321108575 16.377206223023425 21.07342334294381
Rb 12.255491400268022 10.815741873252072 7.680362874417406
Rb 12.719147364843092 6.864673549877963 10.051310700046796
Rb 14.05571801364133 20.30155068918244 17.880746547015065
Rb 10.781819866805993 16.76622366715364 18.68404652687834
Rb 8.070260920592816 12.275955192344343 8.300463108023282
Rb 12.790764067829219 17.39986661683818 14.191192863086114
Rb 8.070260920592816 16.81102428252394 14.558299476272543
Rb 8.384606385788121 7.865587709329303 8.004751850418948
Rb 19.65445047966008 15.585972279645379 20.968633711969588
