41
Energy = -30.53952233 eV
Rb 11.681154244332497 12.612092903440974 5.521872189388315
Rb 12.248536521355938 16.87957559259194 7.520564059150823
Rb 16.804383530386286 14.499833114932345 7.859223115155991
Rb 8.217939528795128 14.802303008311808 8.62835827929817
Rb 14.311874194074617 9.11503786551259 7.985664032841525
Rb 9.104271695806803 9.958442124064645 8.539205717064636
Rb 12.800656809662213 13.035666133638864 9.393920255174713
Rb 16.93334730147287 10.998345661236762 11.076395694096652
Rb 16.164639619121637 16.046999050830575 11.574144806574596
Rb 11.468521896254261 17.154463534255466 11.868124082842453
Rb 20.573788583794304 13.96683307833763 11.573330281048214
Rb 13.589053660860781 12.986868678001791 13.749758941631471
Rb 15.608209121070765 19.541166902950412 8.586034984921927
Rb 5.576085111352898 12.057313125949593 11.227469115054886
Rb 12.41582258270965 8.701816279051684 11.871494457639578
Rb 16.641356402829842 6.800381342469934 12.401350739741687
Rb 7.383214209990365 16.474963764006986 13.475137391168808
Rb 7.744147771932086 8.205638688597704 13.141124650052134
Rb 14.457382116786578 16.924196847348274 15.870606711247467
Rb 19.828766404573635 18.36508487761018 9.949288525776954
Rb 9.314088181959612 12.513696841026727 12.495899029120045
Rb 14.824199365576543 20.61326953076409 13.21220152691364
Rb 15.511594024070874 9.432521710456497 15.540719873689241
Rb 18.824064500860192 18.30955024171577 14.920701620211823
Rb 20.059773684221106 9.360468672845734 14.545215683098505
Rb 18.024130116348363 13.58967504561532 15.461244479509968
Rb 6.899320313309206 12.373828197413035 16.224156633328864
Rb 12.792078775805912 6.228717178819439 15.635952037471379
Rb 10.606659405636355 19.63287240830341 16.158290123503228
Rb 17.305815628389905 16.14155618087218 19.561924476477596
Rb 10.69213239855924 10.006294944248054 16.40358002614955
Rb 10.283258359689219 14.966691961071815 16.287056415928635
Rb 7.744147771932085 16.813386517850937 18.91494461575525
Rb 14.049591419531533 12.934504750790296 18.28044009567055
Rb 15.396743578197183 20.658665362674334 18.135993989741678
Rb 18.12517785174783 10.698764304057761 19.3576545789486
Rb 17.609696380946747 6.486862466868472 17.341915610545893
Rb 9.84270916664971 12.675390977879369 20.43084016479377
Rb 13.710984140579772 8.524286390940368 19.86981337626195
Rb 12.226432399952241 17.0624369826714 20.17570766223065
Rb 14.715299316567718 12.916084142070524 20.430840164793764
