42
Energy = -31.46831322 eV
Rb 7.4188582110722745 8.449187487292784 4.619029776721503
Rb 11.288206810666654 9.913813686356317 5.593085610518072
Rb 7.499411775841826 12.463835271348607 7.292955979936172
Rb 9.36686776158559 16.74757029543297 8.691149840367306
Rb 18.685516094486545 9.270330246504068 8.651610392113021
Rb 11.52614490674362 14.858576350513875 5.661475275553143
Rb 9.068673740121893 6.7685880980250595 7.655684198544323
Rb 5.433800647791432 8.899901045181462 8.085198304717652
Rb 16.205677930790237 6.899821632818276 12.069637071370252
Rb 15.284124314685304 12.488659305959697 7.6284751095525225
Rb 7.326881801800135 18.25394033365584 12.40633660155633
Rb 13.468357952267564 7.8527496284825515 8.398965169357707
Rb 7.01359461025394 13.356200524669699 10.913791780000924
Rb 11.263686984405654 12.306024126571943 9.322698628871478
Rb 15.50057939717941 10.878739943199514 11.57142176922548
Rb 11.551663849495885 19.042562276083398 12.280871536482755
Rb 8.63645877529156 8.938812315960279 10.265298984231675
Rb 6.9266269395671225 5.996384967516672 10.983719983162787
Rb 19.35172110587175 9.783533097367613 13.447909117646303
Rb 18.515961212283848 14.347924307415648 9.798642429643907
Rb 14.408922773849069 17.572360105644826 7.655684198544321
Rb 9.869314759217612 15.10523287963323 13.399091799620352
Rb 17.661266314458352 14.21261239041692 14.590723551905077
Rb 10.950570607069373 5.234312255952129 11.170325666242503
Rb 16.6516651340999 18.604041350139116 12.305235234375276
Rb 12.181620460594942 8.36702138234629 13.240377650202722
Rb 13.902412814302956 15.136962039582768 11.442700149415588
Rb 13.374604244548735 12.341844722361824 15.476103769259081
Rb 8.816898313737955 11.012486300182255 14.485147187200374
Rb 17.564450384042942 15.688584496681457 19.17112277514296
Rb 8.687488377041218 18.37631857147105 16.671044094877978
Rb 5.462871278814253 9.317638840956487 13.414579061773116
Rb 16.017446340470755 8.333459448775809 16.50570297707839
Rb 19.35172110587175 11.368547825946449 18.179592849335375
Rb 6.485609004607546 14.393233357679325 15.793680348621137
Rb 8.22689306051802 7.170475747401668 15.289422098751118
Rb 12.924865300740457 5.362190216606613 15.781801609342683
Rb 14.65325768044931 12.02477553920465 19.84574424048185
Rb 9.798954409028916 13.835940978460512 18.542562598769745
Rb 13.555931530167966 16.983628464020793 16.26447612285897
Rb 11.268766802146976 8.81307672034168 18.33293658900511
Rb 7.258883358728615 10.0842100584949 18.363049878788857
