44
Energy = -32.74027847 eV
Rb 14.377923866465036 12.616314023242943 5.762932551061313
Rb 11.683493931831512 19.469384144029547 7.615210472762096
Rb 15.326184286880752 8.97961819508582 8.198282352840051
Rb 10.229741357871312 9.905831209955556 6.119241248015388
Rb 10.308256467929045 14.976577862781717 5.889432226576837
Rb 18.035972449022154 13.183448469039378 8.846287409155154
Rb 14.097874877204392 15.638924797954662 8.913824164677592
Rb 6.933402475194143 18.43623539273733 7.468501520824586
Rb 13.43001436339101 19.24458624511279 12.052202153479557
Rb 19.477418577592285 9.187691674400359 10.947603364126797
Rb 11.258265925726937 12.01131711118837 9.546544079226578
Rb 6.933402475194139 13.555416400183205 8.3087583146301
Rb 8.64122398044881 20.969941450295817 11.226014075645384
Rb 18.10238671461071 18.043313242406327 9.801887630552688
Rb 7.9211988265279825 7.9412136408884075 14.440459972924444
Rb 7.4123942526413655 9.086000602210506 9.763692372603096
Rb 11.676444979712675 7.916222398566643 11.075816815861618
Rb 9.690409332575664 16.45237329548658 10.143570715429325
Rb 20.4403098027357 14.979175867719679 12.7093416046902
Rb 5.694388436087071 17.252429610555957 12.016193653444807
Rb 16.166356775619125 7.3348365607871235 13.446489461268909
Rb 15.136675948271558 11.195656449023984 12.142810752544259
Rb 7.815756126982877 12.726696509156548 13.260164514644517
Rb 16.54019999080095 15.402392202214099 13.263608124573848
Rb 12.23395823741736 14.486562581850437 13.398267131686968
Rb 12.16732104819233 5.548979804053655 15.24596570116029
Rb 9.283515031997593 17.77004807688815 14.561684414904427
Rb 18.151901810578714 19.479127098468343 14.383864155252313
Rb 6.225767527300172 20.58481440341908 15.58939184720983
Rb 11.70173798870921 10.105075405672254 15.396620505168162
Rb 18.649031698231823 11.180719013432599 15.243490613587722
Rb 10.917958283635675 21.400778605814484 15.551139792632036
Rb 10.352635555751526 7.383076544784086 19.06913670036893
Rb 15.055644231004194 8.547913802410072 18.097089190282954
Rb 6.129555952578296 15.908457770933675 17.1128745016329
Rb 7.390846927321669 10.951886657279102 18.046370184342504
Rb 13.888947931183335 17.866932103191257 16.697406910549848
Rb 10.334064284018321 14.379423262219142 17.495060199554793
Rb 14.897703137815357 13.073066601006984 17.34376992555217
Rb 18.86458402911848 15.769379884813485 17.277252972660342
Rb 9.1081769980344 18.81614682512386 19.08599004804988
Rb 11.851332459774875 11.112730558216183 20.571622894209295
Rb 8.124431604323261 14.3911189723253 20.951391734570862
Rb 12.946944854177568 15.678924398212027 20.571622894209295
