47
Energy = -34.61884813 eV
Rb 10.659958025544825 15.311771343933016 6.79620018078293
Rb 15.492411500953386 14.378181377507754 6.908702250449428
Rb 18.030404641195343 18.065340247865635 9.141769701205481
Rb 8.62743728617346 18.395506368899447 9.54650216594178
Rb 12.336819127920222 11.678738767768941 9.188791275886803
Rb 13.201647940363674 18.564262933922542 9.141304671094725
Rb 19.685352523840564 13.504393104080165 9.503078584250282
Rb 16.68876689205545 10.086958292253799 10.58294233876921
Rb 15.64465882167751 14.753784163154576 11.258162416826572
Rb 7.640102863630571 13.53313853231375 9.92997554393011
Rb 15.868203639557624 19.062123808919566 13.29309738444193
Rb 13.464125443758533 6.930404724714362 12.756811990216026
Rb 19.99071649050541 16.253945735492806 13.2033463670228
Rb 11.080098643577317 19.92588768950161 13.2706246208997
Rb 11.090496071448202 15.312725323096576 11.878373599140964
Rb 18.136350097750807 12.294810994195734 14.681914372911397
Rb 9.367730608705868 9.404765072553804 11.705048298167943
Rb 13.258100161332063 11.320404122722882 13.851850155237255
Rb 21.841666262461214 11.011780431034301 12.920392015929469
Rb 7.26661123687571 17.16525469926533 13.877037391447198
Rb 17.814911340429884 7.794610375352141 14.588902772003715
Rb 8.453489539581483 12.610987761277228 14.879755586036287
Rb 18.878003061345197 18.02158564275504 17.510251780306945
Rb 15.214074629345175 15.306846716635022 15.929332773351174
Rb 14.366757998637619 5.837071506678923 17.396720334484666
Rb 10.974111530882478 16.51925056590469 16.465746406664064
Rb 11.501386013195965 12.316747437081743 18.10426303416601
Rb 10.381268432655178 8.116903576921228 16.254932420225806
Rb 20.527415752591935 9.76479963854042 17.95946921217571
Rb 17.061256751991113 18.50819371120738 21.88136188071934
Rb 22.14898748154112 14.176508982809214 16.95587247507078
Rb 7.615851802005177 15.359963440596967 18.924990775315425
Rb 8.627437286173462 20.1898414231352 17.623111194971514
Rb 7.809417926162945 10.317731129328827 19.363882052422827
Rb 14.013352896370268 19.71109459979133 17.926652562532027
Rb 15.561552046194025 10.297957729524265 18.020795458875387
Rb 18.311835937996936 13.758755049288785 19.589123499789054
Rb 12.199224091276331 8.501305877418543 20.83643376863915
Rb 14.110331431426932 15.337914388816566 20.324389582270747
Rb 17.482067100498 7.899540335051814 21.29300992526337
Rb 20.74161598438238 11.245718920264991 22.505748351569327
Rb 10.753315712407861 18.147719863750684 21.434392728612124
Rb 10.478276809388394 13.181381958152723 22.504413242897222
Rb 21.650593491085427 16.236001064613024 21.473512813161292
Rb 15.38312046042999 11.579746056869931 22.926149593990612
Rb 18.43442979722309 14.764570559754462 22.926149593990612
Rb 13.819612174947387 16.02302478669667 23.154461070421043
