47
Energy = -32.32040116 eV
Rb 10.430999156708385 14.30787971487615 11.944342574022805
Rb 15.650111659646845 8.264749349387197 11.589415235344209
Rb 17.748238541209446 5.743360069519144 14.196462349079717
Rb 17.88954816807688 16.930734822869002 14.70065834977906
Rb 19.978107423146717 9.538604984933016 13.822263927502673
Rb 12.165937692628722 19.1450553978753 11.462245373714408
Rb 19.63731492422154 7.7449221708425195 18.26796733378511
Rb 14.040353554062431 20.175076729353055 15.867839064599735
Rb 19.819587104131685 7.835536140885201 9.236820238462673
Rb 12.179124433580094 10.813407228133263 14.397495627297326
Rb 11.385497113524607 10.658825940213266 6.552684745103298
Rb 15.603961473317213 8.584595352069124 16.45583285812479
Rb 16.54374513300775 17.123346611448735 19.020154882091678
Rb 9.213449081579745 13.20446039438811 16.93824743041164
Rb 11.581435471182225 17.23583120209627 19.132740209440904
Rb 18.251276904959248 12.131295184428376 10.07543750729394
Rb 9.620256385613569 9.451787294621685 10.806747531519525
Rb 16.386688930467386 12.548293566225626 14.113404634238202
Rb 8.414060675853069 8.512603465333326 14.967763040969832
Rb 16.044817718444243 9.234171321534719 7.199724271302183
Rb 6.864308903613309 12.862770049795227 13.053668064764059
Rb 17.278935567590487 20.51062908074101 11.973942006861902
Rb 8.076113169421408 12.512729898613602 8.198731480497777
Rb 11.32890172118063 8.608501299831735 18.5605529231867
Rb 20.136851683903302 11.723437046191039 6.526472822897852
Rb 18.839069069738702 12.635010511532483 17.991183947518156
Rb 11.401768050425446 15.670651781790568 7.59107319292186
Rb 13.520530205699758 11.755205730633717 9.78425236354628
Rb 8.392721052501951 7.576087958707148 7.59107319292186
Rb 19.739872235168626 16.507780463832937 9.76243482991904
Rb 12.067563053581823 6.775712430807591 13.92253513834983
Rb 13.935723929127926 12.786024367295862 18.666768194196866
Rb 21.44551746938233 14.21417746672796 13.905465572764765
Rb 5.643360194992273 8.791531675451827 10.78348233186745
Rb 18.76171449445201 21.010700454416924 16.775428460342315
Rb 15.83678129624444 9.17448478434531 21.03168150441163
Rb 15.502715709172604 18.975217133444335 7.714598485913573
Rb 7.885504969713595 16.971172293355586 10.283781068666261
Rb 13.317358635726336 15.750294125792546 15.213917318057279
Rb 21.814865967218495 12.082423633237982 9.961029775233131
Rb 15.262854641733707 15.860756944209413 10.945750945932195
Rb 8.772338488779777 5.710297493444208 11.185059063186275
Rb 21.814865967218484 19.102528789722236 13.455050641251821
Rb 21.30596839300265 17.02868924290642 17.92833666028138
Rb 9.081089404625454 17.81182761023911 14.963560958894888
Rb 12.26448626082858 7.061861785618458 8.542342343615315
Rb 15.947572312537595 14.150640654377643 6.983895464175202
