48
Energy = -31.02507007 eV
Rb 15.310479190047872 19.380288047040036 17.60184634962421
Rb 20.156994773752444 18.76511485260054 16.61748673055303
Rb 18.6205523184484 19.612203939808513 21.512648633312068
Rb 10.348638292921011 18.139960864953796 18.286145042529682
Rb 8.742492946820446 10.785207755262093 16.195638070148902
Rb 12.779541284304226 9.929017327173144 18.288805129693714
Rb 10.250357209945635 14.847867466312005 14.996141768666043
Rb 8.876583706233653 20.44097167028513 9.691747735276376
Rb 7.095814410331929 8.629157246085079 11.777376393888373
Rb 11.696313554532797 12.480846975320322 7.224073322607584
Rb 7.745531901440831 18.372485943949027 13.969780779263182
Rb 14.279765310585512 17.169985643059636 21.951600994208228
Rb 20.606453457398864 16.396203469358387 12.006646736478938
Rb 17.020256727214502 12.729321477963184 7.747790275074196
Rb 18.77564539440076 15.28653748151494 22.87807297968782
Rb 8.968725192124271 16.614400268927458 6.220100506746146
Rb 10.16192237072904 11.68972052544912 11.510818086270431
Rb 13.502500970440243 19.801276610122674 9.119656740328823
Rb 6.391716722220658 13.719695704981278 12.907352420189909
Rb 20.823067636530745 11.930461972600389 20.491978857265988
Rb 10.009861871949834 16.086671196968645 10.32187216534576
Rb 16.79328662106504 15.725376466192374 14.766207038008583
Rb 18.00837380990569 15.607673127890722 19.385735367762127
Rb 13.669997700980904 14.761398424867696 18.0100396789798
Rb 18.193926595701097 8.276319003120896 9.420199439731588
Rb 12.38237264547313 18.692377847489713 13.763044177491158
Rb 21.382582924016333 16.62448972617951 20.525703472732705
Rb 14.485564342920153 15.067468447028542 10.709244103783202
Rb 14.395007227607756 8.629157246085073 6.347879252623102
Rb 13.905918475479574 5.769023607073861 10.057531513975835
Rb 21.120783806649015 9.45409243752363 15.876948002043068
Rb 5.74302482064856 17.046494736097983 9.348231036280634
Rb 15.29239602924884 12.359942809782234 21.78796234877034
Rb 9.339580662245107 4.658384798119048 11.130491514148144
Rb 17.78438863512073 17.64357017780063 8.568029226810365
Rb 14.288730172535415 10.154712995097274 10.225061189072356
Rb 13.802880805447403 16.401271707887894 6.316620179798067
Rb 11.435002827439778 8.023152534845845 13.658843276902545
Rb 21.382582924016333 14.109386155691631 16.223739902660032
Rb 10.125849976716053 13.465671213138855 20.47923603107474
Rb 17.273404537775388 11.408108848369858 17.31320100915816
Rb 10.094478662474776 8.371775542572271 8.53424663595186
Rb 18.464567390566625 11.979135898415189 12.318844148077599
Rb 6.69622246727281 15.06391149367049 17.681370668836017
Rb 16.353265701798627 8.174832499036892 13.979687014740533
Rb 7.255106345126608 12.451138832554175 8.457921324780676
Rb 16.97613446617111 19.74077602930728 12.659461776070724
Rb 13.807746283444889 11.971874458119267 14.288378703237965
