49
Energy = -37.16269202 eV
Rb 19.393565701611713 13.19192490383224 7.902233922813269
Rb 15.71176846772408 16.33185241931058 6.557487426007493
Rb 14.892458345788086 10.83371262329335 7.664588208687954
Rb 11.294614672978271 14.5109428240642 7.830190822419884
Rb 10.433898711861923 9.738453911519484 8.91678495704353
Rb 11.874987366128243 19.796858378818104 6.934536424105476
Rb 19.304525682315575 17.956990708433846 8.84160738543473
Rb 18.280958421746877 9.599220680644763 10.520503870270572
Rb 15.93691161417627 21.749247263432064 8.45584794436234
Rb 10.68860975821953 7.034323951220133 12.981988349012381
Rb 7.601472624019908 13.006395303230356 9.789668978768553
Rb 8.480508314820304 17.812649183968993 9.732509290251137
Rb 15.846416585713087 14.139295755619143 10.133231947133163
Rb 13.651842130993082 18.059227071178274 10.057354740404318
Rb 11.07852206630265 14.278347879497428 11.874522612571853
Rb 20.098240468498425 13.942661406650519 12.195585073630035
Rb 7.015337395203733 8.722037909513222 10.87240348798191
Rb 11.080604630721082 22.05799765125949 10.78030764786176
Rb 19.63688617303789 22.154054609251418 11.647769126024064
Rb 14.332623862814122 7.237760345762256 9.502997610269219
Rb 4.9933926349629685 16.39076532938801 11.89955239063223
Rb 15.192929947322883 22.434917238898635 13.477657702963961
Rb 13.916953025253878 10.46206160099706 12.020657932124175
Rb 20.098240468498425 18.314275730311344 13.168368741598623
Rb 5.032338970221563 11.510100496511983 13.936943912851318
Rb 7.780444059087195 20.117062006804748 13.899561352417356
Rb 9.027855561954752 10.730232418130795 13.802388590177205
Rb 11.455743268135087 18.27372670395606 14.056657016966586
Rb 19.528836968580382 15.591162015597277 16.781366838419526
Rb 7.045082732588219 7.706486274155668 15.51298640053526
Rb 11.00887702781983 22.698203447153674 15.739003465900703
Rb 15.40115953347132 7.247417935980749 14.419081139659392
Rb 19.155438681953367 20.675780201524997 16.591985074703576
Rb 7.970064045072098 15.33073654811086 15.375271141958917
Rb 12.882120249368173 10.389352303542625 16.381001707477896
Rb 15.239588639181989 14.457261836753334 14.840740020752857
Rb 11.401468750774626 14.617384345978897 17.298496573776344
Rb 17.964253315721304 10.621963908483462 15.566850744077653
Rb 17.164943861673617 18.164407591326714 13.101315384403913
Rb 10.50981532457685 7.515676729160234 18.070792241642796
Rb 14.49997080743718 18.935923787761347 17.46344242962757
Rb 8.132331249140107 10.841832766127261 18.222765875345495
Rb 9.390086737426268 18.942340020125965 18.41822372967938
Rb 15.23178577600654 8.669190251975909 19.453160905776837
Rb 17.667923513460174 17.62853517804959 20.68250901042963
Rb 15.982261927375056 13.161654414887327 19.4932349613733
Rb 8.132331249140108 14.845290329040374 20.73985114483305
Rb 11.54784051316647 11.162733922738447 20.93805335221139
Rb 12.835854333465548 16.451482725209107 21.45515793594331
