41
Energy = -30.6778061 eV
Rb 13.662505861998937 12.017761916354479 5.668209208205141
Rb 14.070801096673836 7.2196614769846805 5.6384593890825725
Rb 13.687209016226749 17.041909779318743 6.461823726006367
Rb 16.675442878742246 13.905258298262437 8.592137597489524
Rb 18.06042651619256 9.796112102505408 5.6254070883564875
Rb 10.439201952425956 8.97952217287444 7.866520037440664
Rb 17.835030261180655 6.089734152961172 7.924076176580424
Rb 12.900856812988902 5.920151817906669 10.175182027758114
Rb 17.02448064533687 18.68532643425612 9.898910908111436
Rb 9.765170170830613 13.739956126135704 7.842611216012961
Rb 15.106645344639329 9.422292790424422 9.16889845045154
Rb 12.721237674001703 20.19045255426308 9.08898741395376
Rb 12.372773834005846 16.489405072242892 10.481796654834767
Rb 9.011319928334492 18.460705477178063 7.9240761765804235
Rb 8.766002945291257 8.61121359490782 11.8772877550262
Rb 20.308017367239177 14.613728639145926 11.985255153642978
Rb 14.127154646850279 20.136484920978457 13.69559943796282
Rb 20.053039932357606 9.944097954002071 9.659605177530757
Rb 8.995016181955783 19.360996676286035 12.288858960945527
Rb 8.154680737749 14.417283756000455 11.902753930843783
Rb 18.887703107174026 18.670611743082485 14.6789314084896
Rb 12.168653062386381 12.023933078055219 11.4465035567753
Rb 5.682574314022286 10.872288946310091 14.901855191777543
Rb 15.739256425583077 15.578145547563198 13.278481507999382
Rb 16.831767507557114 11.18771473763799 12.99250758578562
Rb 17.470649490017895 6.948296265583393 12.713036459002902
Rb 11.228792584320477 16.44207143580574 15.249389926994464
Rb 7.125247716818361 15.314924749776967 16.737212909334517
Rb 13.00828692052093 7.982731124194443 14.434022553766193
Rb 9.798423708937198 11.766804195801802 15.544907513120243
Rb 21.094069605945368 10.072238679538803 14.479031681175925
Rb 8.475851152769865 7.65926785867371 16.534830864721727
Rb 14.08240883528831 12.57915557179435 16.338525562591666
Rb 19.02332238077849 13.883746592371844 16.865623936179297
Rb 15.319136623019745 17.059940727237134 17.9600088837472
Rb 7.602705098529473 10.942869075280584 19.54207073478091
Rb 17.094841051169734 8.983502224520198 17.421110125969747
Rb 11.022471978205484 14.326024468850733 19.72456356185121
Rb 12.116405497801487 9.373552775733526 19.344486525729128
Rb 6.997952469649795 15.258021416188338 20.66191745686618
Rb 15.82474077746853 12.658543227803975 19.72456356185121
