45
Energy = -30.51943417 eV
Rb 7.5698805824080475 11.45925442020341 7.837197227205743
Rb 4.921568760559446 6.615772788588988 2.547496744944123
Rb 5.582449107520035 15.077018106229254 9.857923793538662
Rb 5.497714830954077 2.6549358732642068 5.844810566119759
Rb 11.29454272050207 0.30513552575260416 6.634585488852735
Rb 13.533465556331816 16.3343632784002 6.238569010680668
Rb 3.2242418155600334 12.72020782835337 13.839752744743029
Rb 2.449753528915292 17.18592682923463 12.264853407831126
Rb 6.519302806099804 13.222682865698264 2.249633716038149
Rb 12.38705363441968 6.218430214301844 11.362732382296839
Rb 12.424701368537754 1.5461638587939572 11.452820354589877
Rb 10.883422162555174 7.899922013236574 7.301220409264276
Rb 10.393232053575316 15.238949304816575 10.325911435060288
Rb 6.302909121938282 7.109401332230276 6.746635768611188
Rb 3.557516180462938 10.649329407059245 5.368326089493539
Rb 7.528058789975902 11.904019393401521 12.675955812996598
Rb 8.858478687932166 9.529138974525559 3.422468880180191
Rb 11.459231957111708 13.446554453962156 14.823203717031788
Rb 15.877223291354916 0.35692014610452494 8.617761039462856
Rb 7.428289584631299 0.26409620362696057 10.257158038183164
Rb 16.519707741669915 4.269920567565816 11.360334930000532
Rb 13.708942715739717 8.64321227389958 3.7595482869654986
Rb 1.183145935101244 13.481460372049089 9.20998185673379
Rb 4.619994285447409 4.526021683393519 10.526082101011204
Rb 8.760898718360473 15.477502833477242 5.685669611942809
Rb 1.8850418920171965 6.24346724656613 6.549756010318889
Rb 15.489093370375272 8.872545319926534 8.599699275273938
Rb 10.313518751943908 8.554274109414626 15.352513155844811
Rb 13.475660682657933 4.606509374237157 15.376976376330072
Rb 3.5680537607483016 9.445589050119425 10.141052357925636
Rb 11.87226172039739 13.3659242123517 2.3668790663993877
Rb 16.335580926406767 12.579953012165102 5.18201860071488
Rb 8.623510569725859 4.00802141476248 13.69153746926549
Rb 9.737693739709178 4.704562038054248 3.985815083715988
Rb 11.63715534832859 10.740369621399227 11.085032710656506
Rb 6.832005641299889 16.157957669352935 14.308299533973711
Rb 7.9661388854008806 7.757521107314607 11.008225048882187
Rb 12.072359330733867 12.143809739354486 6.730770198830156
Rb 7.169669442187312 12.036529631369087 17.1935161480029
Rb 3.70680860703892 15.44596462914396 5.644332111904096
Rb 15.136176540171263 9.123426888432528 13.792097198982628
Rb 15.115478732506856 13.58813892111186 10.204840151054924
Rb 13.898499439816804 4.313678974943624 7.0287843176029385
Rb 9.202916731168765 3.8933760397363355 8.65743430486135
Rb 5.302915047253519 8.108305549626845 14.716052563232624
