45
Energy = -33.59016083 eV
Rb 16.789910579819157 9.71137107942195 5.712489177810651
Rb 10.497766436985547 16.255620540163434 6.471647170209019
Rb 13.826615388768843 12.92267926875065 7.637437886594085
Rb 12.981456617858953 8.261893640629491 8.490019085060444
Rb 9.083420435932483 12.00590997155097 9.351779821781943
Rb 19.164465128025547 14.235728692942454 8.010855437765368
Rb 15.221293320408797 17.548273658697394 8.099664878061946
Rb 17.588905381721965 5.986948328114458 8.668466697707066
Rb 7.475298322966822 17.020235925808137 10.014226174859768
Rb 11.187438987099839 20.119282730997757 9.441404645620038
Rb 17.04680810637963 10.33223664246722 10.12698488346596
Rb 11.774844468451832 15.725305669354285 10.83393918515787
Rb 12.641700106198552 11.15105785346315 12.391193440845663
Rb 16.06635425745912 14.551276301536207 11.570122149900579
Rb 19.43528108742871 17.78522225808106 11.30024473681003
Rb 9.804514793856619 7.69856093474912 12.218627767822847
Rb 22.44309065217891 15.83741093994194 10.67249651430932
Rb 15.114564071379734 6.746978007106494 12.563334185318533
Rb 8.536593256115156 14.143726503622087 13.660649511003617
Rb 20.464118136528256 12.894831755605807 12.306718778825399
Rb 14.903851652117476 19.113127539332265 12.665019301183941
Rb 19.794332300555062 7.838671554776244 12.937853896160119
Rb 12.739172432879343 7.029514688305518 16.331181056843274
Rb 21.955672254643467 19.993932882304133 13.210260123929046
Rb 18.946484335560644 20.231350121401352 15.434112865871516
Rb 16.54216518043846 11.149336907871245 14.88725428400207
Rb 5.932348565699433 9.946938227172165 13.971638134093993
Rb 17.400050408173655 15.768235171923942 15.694337590925521
Rb 21.173085739849665 11.015605149116505 16.380168104810252
Rb 10.226157270695252 18.75334713727607 13.978013495374388
Rb 7.911576912570403 6.027677190665779 16.179090107659245
Rb 12.902136409779873 14.5433943999754 15.63162563087206
Rb 21.955672254643467 16.072348942609285 15.597568297661377
Rb 9.775861849411136 16.593274500670635 18.251364896859034
Rb 9.82209404667869 10.617696941929292 16.328845962289662
Rb 17.43266934823542 7.698560934749124 17.53769083790933
Rb 14.346457171774887 19.072121721260654 17.313806842241515
Rb 18.70189203445137 17.673022790964612 19.623397312911724
Rb 18.214085498066055 12.887730101255386 19.36456831344467
Rb 6.027562398226152 13.57289486690512 17.493487486075402
Rb 5.925599526370767 9.235186131660988 18.901366662309265
Rb 9.839777992034483 12.565880059441461 20.591680425468716
Rb 13.913860828605477 10.751806692593625 18.94207532002535
Rb 10.166543758450015 7.778936547888487 20.203871418457474
Rb 14.183230905760567 15.306735086965334 20.273443147732273
