47
Energy = -35.04488994 eV
Rb 18.809948123851036 18.786823954659702 19.089355435158033
Rb 15.795887933874683 7.74336101007812 17.595582109902942
Rb 20.36526367252765 15.989737744100752 15.860166572996736
Rb 9.057520363802222 15.821489682107876 11.247975752051065
Rb 16.347014237730342 14.90630569664837 20.177289506687412
Rb 17.691432114375846 19.079374911819947 7.41785623559903
Rb 13.956944697785785 18.184904636972952 17.47781151231043
Rb 12.755038123037503 13.233739486438555 11.66586962472978
Rb 16.24368185040813 22.57692122019147 18.299070412525086
Rb 22.393740364440028 19.406658017403604 7.6207967327417
Rb 22.69963517008258 11.736500527128817 16.149644177919306
Rb 10.785252092056666 14.270970857718545 15.722319806336259
Rb 11.032800600648349 9.283599750003326 15.26017942409195
Rb 9.057520363802219 18.673501078445558 15.535419313651541
Rb 8.707036452208834 6.437664501601995 12.407732531721589
Rb 11.303577004735798 12.78104530609265 7.660303174542202
Rb 14.72655706640971 19.183606082792178 21.8534951200496
Rb 13.535773666126971 11.610577788247571 18.306345147195934
Rb 21.04330923585089 17.646344201871226 11.578724237401715
Rb 18.194852252580915 11.7637757618001 17.195996307434992
Rb 15.473006603026759 10.136226816725703 13.65705009177642
Rb 12.863130453894602 17.811870948119125 12.958515415457615
Rb 12.135275213610754 8.86696613904773 10.300764750051487
Rb 12.580104075194111 17.52364011560768 8.458819365720041
Rb 17.47247181163276 22.576921220191462 14.10719723512463
Rb 19.84015328080679 8.393979689750203 14.767112542971283
Rb 20.050965116714465 14.856153182132157 8.001823895670226
Rb 10.131952330743905 20.856387878084032 11.013928870428865
Rb 19.549251318116905 12.717030111273568 12.428899568394073
Rb 7.267571154017078 16.264253373848337 19.14458861675211
Rb 20.337269204123103 9.094605098569144 19.73042474402776
Rb 12.845884910407069 22.15146168407586 15.015237665031169
Rb 15.54080714205572 14.875870600272574 6.065169801516976
Rb 11.453365601816623 15.561766781769716 20.401876391020668
Rb 21.044237167325747 13.87818057832428 20.226579603281476
Rb 16.204907393837452 11.45846590059617 8.97390698838
Rb 15.050921525089805 21.37947601945664 10.524496223759334
Rb 6.487598785038585 9.115814607449122 15.647058200839805
Rb 17.249786104058487 19.454973802822018 14.243999280315832
Rb 15.71928132416088 14.755206214160124 15.074357909707604
Rb 8.545337831054194 11.050692275374953 11.740437669966175
Rb 6.478665637138342 13.750396911905213 15.083937434233503
Rb 8.656556548565902 11.662157929688581 18.91698140886414
Rb 21.124412821723723 21.32035662803215 15.45219593720878
Rb 16.54983333470509 16.046949438650266 10.627733425835528
Rb 20.010339748006878 22.0648403660972 10.668111921262819
Rb 10.752461292319538 20.69528169889105 19.529168152641102
