46
Energy = -34.44580221 eV
Rb 10.390635538984483 17.011516495170152 12.68376491030912
Rb 12.473748981537703 8.626902567919574 14.819428217601745
Rb 15.14222178819586 12.364855705613847 15.26969698353897
Rb 19.59869983189017 11.869679669317902 13.286425260366132
Rb 8.524010354329782 9.275574965730382 15.165972932913498
Rb 15.286463740032001 9.275574965730383 7.4533552679587185
Rb 17.934562954550202 16.41771874147282 14.091614350580754
Rb 21.14242231709835 19.739507363905282 15.675910353417489
Rb 21.14242231709835 16.095660498061466 11.207793109421015
Rb 21.83226061970578 15.228866501026113 16.125630434106544
Rb 18.646586722618945 12.50134207496312 18.001698944826465
Rb 10.123069593145882 10.473672215552511 4.992007674669561
Rb 18.22855509820126 12.634626011626462 8.853860972137523
Rb 18.895169583881817 20.704217362556367 11.675905212391452
Rb 5.765312296320189 15.366536956397214 10.178502587856821
Rb 9.53108782398257 14.246799175022202 9.09455656364719
Rb 6.684299656224359 12.386807906000424 6.991228088170643
Rb 7.043193367135994 10.72811724697681 10.746634876756136
Rb 7.652848555377853 8.373005867726429 7.58534101932465
Rb 18.322442599720254 17.411671945049157 18.880207827845712
Rb 9.326647571335108 17.2516237045527 17.58967540756481
Rb 14.238699386943953 19.62896716387224 11.93968191195365
Rb 13.924951333192855 19.50344461034272 19.67528778247068
Rb 7.593128015091839 14.194093794586477 14.468094435671269
Rb 9.125610513574426 7.171896978368382 11.267486953705628
Rb 15.06054557068395 10.239835347478628 11.248967561709218
Rb 18.85349912052747 8.553589015792385 10.308181407831455
Rb 10.919193458141082 12.533021730158683 17.426693394066135
Rb 17.317847180759824 17.325791999366153 8.689492817153692
Rb 11.387803042785263 20.9333713425067 15.534377141058219
Rb 11.329309519888564 6.4955880692776065 7.091979794652257
Rb 15.600083342344107 21.754237963422735 8.093052014126641
Rb 14.733273699170576 9.581511652096264 18.868606701336553
Rb 13.77255306027068 16.83119286395528 15.962480023122646
Rb 12.635340657197066 17.891945034208515 7.758229245548461
Rb 11.018322575471833 9.790210016646169 8.785775267994092
Rb 8.818445744461108 18.886870031573412 8.943277367571024
Rb 7.244336492347014 19.075728218589127 13.712002428144848
Rb 14.316028341733443 14.819826889910106 11.221409991311644
Rb 14.73092808316053 14.496447093679228 19.914122327368023
Rb 10.848448259866029 11.946396421702657 12.850342650285551
Rb 14.19934288624517 6.42835930612132 10.72889851515711
Rb 9.630358322103358 15.452604506253374 5.4429451436909195
Rb 13.74773854220226 13.355501015920963 7.388540204000555
Rb 16.519330029108414 20.953645211225314 16.02182059733456
Rb 17.243174192407963 8.55911464418861 14.932466548089543
