49
Energy = -36.07477357 eV
Rb 19.53344076423854 9.423580428145515 7.189267523562855
Rb 21.273769397540082 13.811111895833982 6.376771664053173
Rb 14.834647733486552 8.722534740631385 5.31186800800274
Rb 11.619071557966599 14.115714436251526 6.37622761719474
Rb 20.14603426708394 18.621796761077672 6.399463211813005
Rb 9.978764095266145 9.655838139423915 5.265004155514243
Rb 15.42027269757606 17.681942009517343 6.76240063530361
Rb 7.093695694260942 12.769782703097416 7.025461669819938
Rb 12.454133879075336 21.374912589096514 6.3700094023873755
Rb 6.75732677134552 16.891873077353942 9.959269810880926
Rb 8.34360523856971 21.46576371200164 8.804615487337918
Rb 16.541806008659727 12.871780460366606 6.376771664053176
Rb 18.892946648805793 15.63916788341523 9.817982349979475
Rb 12.762264361126894 10.231568363729867 8.927138645684984
Rb 11.186380892099868 17.969948638155174 9.334269265831818
Rb 9.646564292959045 13.344489404339999 10.804522549358978
Rb 22.002915732926798 12.19456472777107 10.69271464854005
Rb 15.972653101554643 6.88601547901909 9.628160091673891
Rb 22.267262215569726 16.808556124962237 9.501518998969065
Rb 11.425754269010065 6.02843250142645 7.682348233758336
Rb 20.347078009216748 20.14174606572604 10.839431705512366
Rb 14.243516055523212 14.575239893182877 10.139824142813305
Rb 8.122259421133547 8.939824487135116 9.572450025366981
Rb 16.843093835622 22.058944176018457 8.162090345006142
Rb 5.248825282330576 12.22215245101218 11.444316890595157
Rb 17.303734523657795 11.098285407866715 10.914143159495108
Rb 12.661518559685197 22.388732360534732 10.875552188377704
Rb 20.324307803521787 7.808259936298801 11.794019762780191
Rb 11.770297056107403 7.317292981056657 12.357266874096156
Rb 22.26726221556972 21.11371081318346 14.78243028896672
Rb 15.668086411274016 18.884283545553064 11.556114269088027
Rb 9.219307315029285 19.804265521511994 13.185930082806692
Rb 13.1817703927986 11.573169964629743 13.706351804628714
Rb 17.4036086527286 23.046987685771985 13.184145883261577
Rb 8.603592242728775 10.328850796135669 14.320828116542218
Rb 21.56129686037989 16.277354436109917 13.853839762050812
Rb 12.136603586721186 16.345104179779728 13.937309836511625
Rb 16.26279843703431 8.235931173339221 14.431515810621166
Rb 16.832750175943108 14.868987548604464 14.193211909958915
Rb 7.692038569405807 15.099005183121776 14.644501050083518
Rb 19.905868021013568 11.325845954923441 15.033963395740733
Rb 13.577396701309771 20.622182138092843 15.424136541599218
Rb 18.163828926459892 19.200799572191702 15.80165732484252
Rb 12.097501779504874 8.659203460972607 16.98621769955202
Rb 11.0034567243526 13.267316893850188 17.73510481600707
Rb 15.794386299405094 11.789856452050136 17.948823534980708
Rb 10.034534289785865 18.106195094514547 17.67619865714349
Rb 14.635996451667225 16.53379565421248 18.195986603249896
Rb 19.433175306376366 15.10247322384201 18.144736036963558
