47
Energy = -35.3549592 eV
Rb 9.629466081551845 16.112746610528987 13.829440075630053
Rb 18.189026913646632 16.400178216997027 13.837349237697781
Rb 15.580880283410915 9.655919128947122 15.141142884061399
Rb 14.992124665444573 16.338152841095432 7.143765141944305
Rb 6.567424937378962 16.98407992029049 10.282300473217912
Rb 13.073602521705963 11.346582184590142 7.074503341896946
Rb 13.812639876676323 17.75273022102784 11.731704102691047
Rb 15.482462511921067 13.49648985905005 10.728997307265514
Rb 17.684403366766954 13.75041658428213 22.039926294213544
Rb 12.786585487230361 7.7835284456684155 18.90656497671739
Rb 15.764899736446944 8.699786849420757 10.262047555054894
Rb 12.838259797133606 23.05121224275269 22.873704292052683
Rb 10.691852111582538 15.029805740232323 9.22884274322558
Rb 13.019845722820268 14.819583788136567 23.230114505878745
Rb 6.5674249373789655 13.90886142813935 18.052385939145406
Rb 10.922548578241019 15.240115327240947 18.431011500416563
Rb 7.900341866035712 8.062646206703528 12.372683090823422
Rb 11.673923217295641 11.172139101071037 11.911900146779246
Rb 15.285837082371943 22.1265391281219 18.81015811354234
Rb 7.602187502397689 18.96372693323532 18.27900327805732
Rb 15.019768197221504 21.376089759190524 9.357533799212737
Rb 7.987765366268245 20.840769409438863 13.8254141887904
Rb 11.29322567127576 7.243482700881502 9.14319357196001
Rb 12.260238019092442 6.70576265002149 13.78132918099935
Rb 10.270847209585057 19.951117628195107 9.595687644116987
Rb 8.280838176627553 16.240486992556182 22.52207444253846
Rb 10.038758464807405 10.61792410304151 16.28193326672154
Rb 18.79956441612263 12.91997057845935 17.19114649969404
Rb 14.265975180876723 12.271289398273339 19.105269000387892
Rb 19.267792230785307 11.47922770938139 12.430019411913733
Rb 8.298498132829954 10.906253431361817 8.532261936071585
Rb 6.808070248605366 12.647108554533949 12.752094837002394
Rb 10.515213655607013 23.0990901040719 18.195379247953262
Rb 12.395662401150608 19.20474341707279 15.993985415177491
Rb 9.812580077545284 11.43369410917637 21.21386329362178
Rb 17.895241561725072 11.957312882041407 7.3238138729490005
Rb 14.261338773040519 9.928129948991002 23.082300586602035
Rb 14.067071127685363 14.225262348574269 15.036100382680658
Rb 15.948169942820364 18.89242960088979 23.203298225957553
Rb 8.273887650142154 21.402111473092557 22.442156469082477
Rb 4.9586863869416815 17.106081750709897 14.727592124778774
Rb 12.012131949384031 18.98480123553645 20.668054015357516
Rb 12.274078292134181 22.942620018484206 13.11401952132196
Rb 16.54013230132489 21.011983462231555 14.198188076346995
Rb 17.617889580576552 9.08695625546204 19.699379910184696
Rb 11.382257176238912 18.97065882419064 23.23011450587875
Rb 16.271114547418122 17.11463142632488 18.579839938196848
