41
Energy = -29.62790306 eV
Rb 5.9447681455431285 8.799260929105019 1.4727339556284833
Rb 10.670864004316957 7.272751402570346 2.4756574544927687
Rb 9.428802128792675 12.354692302377504 2.998685388385911
Rb 11.388057041678866 2.6491997719431177 4.477326697344929
Rb 14.398524304069573 10.681264461300021 2.9873125807751597
Rb 6.5451796229629675 4.614015058370824 4.470486575399799
Rb 11.70881027668353 10.118202061180586 6.4769667616113615
Rb 4.560970855431798 12.786614240029254 4.92018491431435
Rb 7.304245419239612 9.113762811991045 5.6841851061370745
Rb 8.1282619699745 16.87344181138127 5.57888517911381
Rb 12.804999811055728 14.65371962084199 6.396237035004721
Rb 10.137386785363024 5.8852291262044885 7.267098744324073
Rb 2.7971544971706774 8.02200985638331 5.832876871099438
Rb 0.8169879491916936 12.19440945794407 8.552500802130194
Rb 15.936623238445996 10.998984502419454 8.20975118805279
Rb 14.625731056917667 6.45762436099012 5.957087520057615
Rb 8.408957895129918 13.141838042116035 7.765378075279069
Rb 8.092876402795282 1.9481278144092102 8.780379018257843
Rb 3.0879965050924003 3.057033471233976 8.187070110414913
Rb 5.855402277784802 6.245272891738401 9.081356196012734
Rb 12.996776344304052 3.106160609985214 9.670169220138979
Rb 4.778977614708675 10.7576201146284 9.449577767322289
Rb 4.70098203383034 15.459353753721368 9.425593185638471
Rb 12.932998719981454 7.919525331767796 10.417715768584406
Rb 8.803868748272114 9.415577523114193 10.25184915614546
Rb 16.88094917827518 6.4063171086732815 10.676022516488077
Rb 10.023188379596174 16.72053695130176 10.345370409195835
Rb 1.74949812889251 7.535269761547074 10.925492720835305
Rb 11.949814867458299 12.440207748794988 10.744857045938788
Rb 15.00605899129884 15.566047149342868 10.954993987080996
Rb 9.36186650720457 5.440132456843083 12.06178128556922
Rb 5.1618003231424066 3.4938129846769965 12.836255169920799
Rb 9.863810159143535 1.351628493961321 13.564674186693317
Rb 7.513615244777 13.138752457255233 12.956869527978265
Rb 15.336112607398016 10.647360824990383 13.412318543413186
Rb 2.536418516882932 12.295780109245937 13.13337259614437
Rb 5.772109572352226 8.455154592281156 13.836423747312502
Rb 13.411273094762718 5.413642949661977 14.380755726236648
Rb 10.595033962214274 9.573616904075259 14.714493302890864
Rb 12.041035166767857 14.463186545689155 14.807904600157068
Rb 8.614214477814361 5.205864460630494 16.53435218919682
