46
Energy = -32.13851864 eV
Rb 15.601635511829793 19.15906732275632 5.592733397975421
Rb 13.536041248750795 14.11658402107034 7.510621961595708
Rb 18.603248244413464 15.61247585471754 7.522600576518311
Rb 19.255197772118148 20.47929674064918 8.400765901541053
Rb 11.376506128137569 18.994462751377693 8.29393293116445
Rb 17.686761684366598 10.889348387419325 7.526343119536265
Rb 8.40773590319759 14.574164530828044 9.364345425866667
Rb 11.368298664528076 11.119214240435001 10.803340740361936
Rb 15.681039228466414 18.11448588593303 9.649353903077257
Rb 20.768205421012755 12.643473619100458 10.54775991465528
Rb 14.552187066976208 8.323855062039348 9.427172101126263
Rb 19.89350760734381 17.02865350968151 11.970191435935687
Rb 7.171685362550427 9.97853580838805 12.46407964954113
Rb 12.058734441144987 15.861201374191113 11.311380462168923
Rb 12.68939132676791 20.680695639805045 12.685265386118747
Rb 8.447206507504342 18.432507962646813 12.632518530822441
Rb 16.149560596891124 13.016569017761075 10.926068089449807
Rb 18.66826698020996 9.009969086942595 12.026596642770558
Rb 14.901521809351935 22.18719537596781 8.93971373662057
Rb 14.673086159573504 8.92005300211644 13.970407452079723
Rb 8.886752872874665 13.851688295527573 14.058893188099518
Rb 10.67629160927933 6.748525905732495 12.558073419124597
Rb 15.915343725935292 16.902930338540166 14.080682433909192
Rb 17.510711178660294 21.383814055886575 12.55976162627208
Rb 8.126635384551056 6.721038707996192 16.885854923369283
Rb 13.438694235633205 13.032721713077562 14.620108092951886
Rb 10.44422792111885 9.749522068811864 15.673533828526285
Rb 18.21956317677208 12.587054943235756 15.23875497243235
Rb 6.719645791790291 11.365041742250867 17.240710949391843
Rb 11.574891467335938 17.209094037220314 15.801222942077684
Rb 4.958647572826675 14.651314687097843 13.143908752550711
Rb 12.754006459653256 6.310113113037975 17.63346882646817
Rb 17.943004867288433 8.361774403946828 17.36759851475612
Rb 7.480263893766239 16.827861559399505 17.302110903954528
Rb 9.95727718821378 21.187088569233758 16.798103592623004
Rb 14.284232535507083 10.557644100140427 18.277660967231633
Rb 19.209825913059124 17.047405586508653 17.4264371191685
Rb 15.027213046354529 20.038909642105065 17.580580066210214
Rb 10.434773631692595 13.546445997400161 18.66818727476417
Rb 15.010928388765029 15.198997397268727 18.32255188134394
Rb 10.176901355484853 9.009969086942592 20.44382838026152
Rb 18.204082092932502 12.431920564733002 20.240592980105433
Rb 11.654073697369467 17.794555922223683 20.47268895142245
Rb 14.815241806043108 8.255293360675955 21.808379490518682
Rb 13.631615762487648 12.938367391537476 21.849469777210466
Rb 16.71907819145506 17.262034513888366 21.849469777210466
