45
Energy = -33.73539412 eV
Rb 8.26310385265131 18.096218568642662 19.59810652331968
Rb 18.9176743802005 14.758778271870206 18.55377181923296
Rb 10.952135827238664 13.69455275529296 14.367979803988547
Rb 7.543035037602877 12.555034956038508 11.677396114871804
Rb 8.26310385265131 20.448354482067106 14.98956579754582
Rb 14.995289784646697 14.228901147695314 16.605027051123834
Rb 16.24909003431266 18.950630040764775 15.965717681071142
Rb 11.583225438202836 17.91921841617683 16.364315104620413
Rb 10.029125657013957 5.21839219013777 12.004536080166604
Rb 16.971141626810926 19.48417805201615 10.692716515959619
Rb 10.711033269335697 9.354915639104805 13.063790694733258
Rb 12.531392675423245 10.265995205410038 17.11043017410448
Rb 16.49363327786354 10.446056025017702 8.140139248125998
Rb 20.617259299363194 16.958250168724256 9.01344759344528
Rb 14.851178628153136 11.978111074010627 20.768645924679106
Rb 20.322843479536413 12.186433896371813 10.310668419071876
Rb 12.750069844082912 17.706534525801413 8.48619600511511
Rb 7.985927728926246 11.099590865366405 16.45785206878315
Rb 13.587883403993896 7.744278018896992 9.953322213722986
Rb 9.509198539085054 6.751255411965463 16.93701793055112
Rb 9.465603898462296 9.464292865487264 20.83447672990611
Rb 6.316299214462229 13.157926461319958 20.27639306104682
Rb 20.617259299363194 11.63540509359306 15.074633739049913
Rb 15.424176701209031 11.403476459376941 12.93992591465955
Rb 7.211465817403337 15.734675277490808 15.72604688338506
Rb 17.132867270066438 9.526743491148062 17.276565525837317
Rb 14.028485346047773 16.418373097884942 12.624043013987878
Rb 16.65166957956852 14.889202287206235 9.266244770944056
Rb 13.534983430556084 7.184993053297961 19.959931570220615
Rb 12.198564976493152 12.639582734063762 9.82532330215347
Rb 12.418227078383394 20.629437278388476 12.58392038378887
Rb 14.153756365378866 6.7529760503621485 14.73657279495063
Rb 12.037662155812766 10.00604566032175 6.129816825648243
Rb 17.188354536546186 18.125020090600625 6.167374130777212
Rb 8.678942488203454 8.808609526450585 9.072522860214235
Rb 14.421315330280157 16.979128707969597 20.19495868673595
Rb 18.35233845337792 8.303806629118965 12.379178298180635
Rb 9.186409809462525 14.074145394048454 7.1461575680949485
Rb 14.235600218043214 14.168099589297267 5.5207802629026075
Rb 18.82207312205613 15.68733419222004 13.555372847194727
Rb 19.303205552756953 13.838999903208954 5.881832822800422
Rb 9.245864046645442 17.079537604950445 11.545430621850471
Rb 6.468470451445452 8.05399632468489 13.500353984307253
Rb 10.630600361887424 14.068562711626415 19.17605438024329
Rb 5.515093935949525 8.365749515014295 18.701850463267146
