40
Energy = -23.68683943 eV
Rb 16.598572297807046 11.95220500999011 6.152115012424029
Rb 14.026316194917007 7.729942158109574 6.808906629952539
Rb 11.320414357105253 12.027211332492284 7.622571195211085
Rb 22.947450671504804 11.55218258440913 8.0490835455771
Rb 18.91871345229034 8.227493460657895 8.382828478429344
Rb 14.733974819749513 15.14865165288408 9.119418333824163
Rb 9.645552426889362 16.00068883472872 10.099129083865451
Rb 14.942632409144355 10.45025167363592 9.808444818800053
Rb 19.129943927884838 13.016239437165984 9.90937735629478
Rb 10.675273877165559 8.080322796074283 10.466655101210021
Rb 6.591626165731013 7.2447560881160795 13.30065953792525
Rb 23.557321007528405 14.177188367790267 11.940295897796329
Rb 14.975206434296283 5.789828577209669 11.269153942270176
Rb 11.511183790621041 12.703909885185396 12.013356939445627
Rb 22.524379977576135 9.551109989371996 12.004419905425811
Rb 11.005141350388019 5.789828577209669 14.653858593083031
Rb 20.006774890036148 5.54912943761198 12.782278380326796
Rb 18.006942144175476 9.153351187652055 12.98030062072978
Rb 18.8435985473546 16.82253498795 13.018805642184581
Rb 15.843044493532881 13.363315362467706 13.45761066450021
Rb 12.833536843077605 16.90539823989213 13.667838160908005
Rb 9.628001733707492 10.05165518638269 15.159698077702618
Rb 8.576178859330128 14.741020826189725 14.927928026882105
Rb 7.7334290955593135 7.348045235173389 18.2162760145443
Rb 5.206010055104591 10.811649281545973 16.083012422295678
Rb 16.31798280484857 5.96741729108358 16.231776400399124
Rb 17.108800076414443 15.442420353152372 17.611200285134288
Rb 23.557321007528405 12.0406279346241 16.108717715935892
Rb 13.593117426808421 9.185214517801958 14.183196291667642
Rb 20.170853556410957 12.671907498961003 14.900071332230908
Rb 7.357350669697181 11.603098791148739 11.249082026638686
Rb 22.110251207401916 16.18202023762721 16.775817141557262
Rb 20.749378936182005 8.256569460011953 16.860541215383762
Rb 16.583080519314027 10.721292810346188 17.328477217319413
Rb 12.560713629600542 13.339249838295064 17.036434587987422
Rb 12.437720132064305 8.634575744916708 18.927331371098475
Rb 8.853018438793065 11.939957467422838 19.29082663124826
Rb 14.740471751351233 12.346286967503792 21.171058694461955
Rb 20.236817482903778 12.356802319275147 19.748665076335328
Rb 17.506995131558654 8.150937934446134 20.798508076468178
