44
Energy = -32.95490825 eV
Rb 12.760713713743234 12.189924466538782 5.923719174085359
Rb 8.084771884168246 11.160335303139076 6.93901305522084
Rb 9.1976605039307 15.741020045070954 7.8222756887270215
Rb 16.24912738997696 8.330900957149389 6.601958540394227
Rb 17.56273569945478 13.035542515131814 6.730869346911571
Rb 11.752300338740257 7.949932696455326 8.251255690487802
Rb 13.958520248318639 15.659696101024519 9.191892796559733
Rb 10.621876294374978 12.353197494055829 9.783739230474643
Rb 6.5560224556932525 13.25745563027014 10.52894314838713
Rb 18.170490712694182 14.295479711318734 10.782447629986759
Rb 7.515821445253985 8.409329764453075 10.55831530857264
Rb 15.01878565366498 11.066030683154635 9.47594776428665
Rb 15.58060346795615 6.276839570883761 10.823444498184337
Rb 10.684570758977884 5.168739659861083 11.349581654719872
Rb 15.538742003651153 18.13060627129419 12.303957971289492
Rb 9.62173975157006 16.34265158801554 12.323748922543594
Rb 19.18326131738949 9.239995404440966 10.112645910371672
Rb 12.006923701212287 8.829090179236138 12.285713229961187
Rb 5.157409297585793 9.656646076029524 14.288088539152222
Rb 13.437918340552152 13.923224612012467 13.405500843278835
Rb 20.746057790676847 11.476102984244491 13.919587808201227
Rb 8.710488251596415 11.709316414601274 13.95755950968932
Rb 16.229709340505696 10.453037292167402 14.211462939675098
Rb 18.65071718244093 6.943710213230538 15.02695756499834
Rb 17.973444891836607 15.2345619849605 15.317141893261942
Rb 8.486163505354568 6.831544496599678 15.18945659386803
Rb 6.14773852779867 14.34051813281415 15.675840125093526
Rb 11.866343855402077 9.95320379084351 16.58506984062491
Rb 13.574131231835254 6.276839570883758 15.481952711997359
Rb 13.883950670028032 17.55646644508379 16.867955270886036
Rb 7.388666268393567 10.483959802900625 18.427958719356894
Rb 18.927396923922863 11.390313255689335 18.30498338779803
Rb 10.752079105039003 6.577919473579591 19.770673353541337
Rb 10.127582093882637 14.617745518789043 17.350895714888072
Rb 14.717955860483404 13.173599511872531 18.015355648162473
Rb 15.398179980695884 8.237028823678244 19.137243955749373
Rb 11.530953475511522 11.25612043961513 20.87873247980008
Rb 17.516137214745466 16.11379579139029 20.086449164109265
Rb 8.17398813370028 14.104838508498656 21.972496400933228
Rb 8.332056803798988 9.370038565137131 22.65491990703588
Rb 12.653506576383542 15.993864448322336 21.530751147869122
Rb 15.741261167329794 12.168978511681068 22.654919907035886
Rb 12.888590182785594 8.285556702864206 23.293939631624244
Rb 11.5604163662383 12.83528475690169 24.417381654769198
