51
Energy = -34.85003879 eV
Rb 10.559186532867166 20.120161861669832 16.033414873025144
Rb 21.611891937051865 14.169415597499832 17.661238261986163
Rb 18.23594993814049 17.517459906438056 18.963835698781065
Rb 17.22349694536367 18.77387606371277 10.57626019541244
Rb 13.751981834519093 17.664420135324182 7.660633471164887
Rb 15.612034524065292 20.314341210958673 15.057350453951894
Rb 15.394313638403153 10.411940270089957 22.189020215152297
Rb 20.426271713483917 17.518765012357353 14.138774835989368
Rb 5.049836725931951 12.171237882108702 16.517839042046322
Rb 19.079423944440798 14.222483733357146 10.760582460094684
Rb 13.660904189542595 7.862095746311854 8.583170546912578
Rb 9.282006334064262 10.158508034476204 8.688053411886353
Rb 19.476059821132147 13.655414333894205 22.136547539991003
Rb 9.282006334064258 11.311064596076195 16.286450181604746
Rb 13.672295451194934 12.488755445900438 7.519858737063087
Rb 22.58786873340506 13.899903705010628 12.658419332691304
Rb 9.918254034953636 16.579559883035646 21.591268746565078
Rb 10.841125947445414 8.788191155346016 20.437771372044047
Rb 22.321108747933664 13.192210404673355 7.9587369763156754
Rb 11.128114164863383 12.382324518960361 23.02971413470155
Rb 12.0970925384381 13.130603149109112 19.299399753843584
Rb 10.135938835460303 15.181046735163406 9.445939084088048
Rb 14.85791428815585 15.418453809392778 22.515919568508533
Rb 16.24855531464944 15.78428117582734 14.86715484981161
Rb 16.34706432019928 10.377257816658007 11.186202187605312
Rb 6.927711869692788 8.045686834948194 18.172322863649004
Rb 18.030950036427033 15.580329352036298 6.9295289357701995
Rb 7.160944669759386 8.7158445274768 13.265055432733268
Rb 10.170835655952144 6.443197192553204 10.90861652943593
Rb 19.73517560149461 9.623820165010574 19.11218716246215
Rb 16.69601106302727 13.152591751781408 18.66611281730974
Rb 21.78086856999265 17.59584796526648 9.333527197810135
Rb 12.417565439982786 19.331592841397228 11.622985254410404
Rb 14.138771866439185 11.38886403811278 15.26044551645087
Rb 14.415335889285286 6.909401223322051 13.022252663018879
Rb 18.991724922673004 11.900005576667347 14.749792513632384
Rb 11.41734007789775 15.37366323975932 14.42129046262767
Rb 8.172617870252576 18.09848843153591 12.741167040198384
Rb 22.321108747933664 9.857542298813293 15.50574608696883
Rb 10.718091705826485 7.2919951385709965 15.831381729817869
Rb 8.170160928570793 15.935068502881524 17.31071591709665
Rb 18.26891320358442 10.531378909753013 7.344927034595132
Rb 14.47365256790033 14.773521209278384 10.923909348686681
Rb 7.543464374819737 13.411806786177134 12.655208801887978
Rb 21.28009057397239 9.815615643686469 10.896514073324191
Rb 18.95604843896649 7.703840255858443 14.497730011650063
Rb 15.255822921259158 8.001009850179061 17.96944159783695
Rb 18.10928181531681 6.72184192781646 9.633850152387158
Rb 11.414610941683993 10.726089640480328 11.825733174403918
Rb 13.445777255853066 17.40210736765789 18.35806141435255
Rb 7.7460731558772045 12.374905985675227 20.637190290426094
