52
Energy = -30.2328291 eV
Rb 7.560319393679705 12.586401046486028 9.742907460144135
Rb 11.058049318505457 13.767785671644512 13.416132028924723
Rb 16.99062931164232 19.05411099682128 11.818608953842205
Rb 16.96459895596283 7.033014466490295 12.767521644118917
Rb 6.394650545858773 10.05579171600533 19.182651168495436
Rb 9.0403554310265 8.189288264313257 7.935067924138981
Rb 13.707455768469229 9.968288746322896 15.144786873219495
Rb 21.788472204547123 12.845003220513073 15.966583682078388
Rb 13.601421364503095 9.64214676070387 5.936409790263737
Rb 10.546632684884191 16.822389235373752 21.23040690067869
Rb 19.881084695224974 9.465899752346859 19.496720860063235
Rb 14.948950760842989 17.99870014370093 19.56145712468016
Rb 6.515061194041096 11.548129357711598 14.376794045051692
Rb 10.929122615919823 18.15051602852579 16.568510914564612
Rb 8.302579859316593 14.481170286354452 17.70204642309383
Rb 9.24590705212686 12.471540528103676 5.626864719048213
Rb 7.588603529099435 7.182458660095844 15.511721590173975
Rb 11.896327929117225 7.3485854896459495 19.874564495695463
Rb 16.635907928721945 7.196620139085917 22.31687472167572
Rb 14.939879168326195 10.294798643137414 19.849847988288136
Rb 9.858496962894115 10.22156857822943 17.070286091950667
Rb 8.947121259620378 5.200322418093526 11.10395527456501
Rb 11.804611782620114 11.870354447754737 9.344303106709134
Rb 14.237817108966038 14.328294578401001 22.793679819273365
Rb 18.95895931577093 14.528007039107612 12.220394034512019
Rb 9.820802206575443 9.220616066601155 12.3169684799722
Rb 12.071777802472273 6.093935316369615 14.847617826616194
Rb 15.629907586511333 10.945931359634624 11.224113874646608
Rb 13.114398053778999 7.375378265351252 9.796271147552483
Rb 17.406859383286847 12.543301081096782 7.797391221354461
Rb 17.93038058935485 10.821695423659316 15.342771189242727
Rb 18.140637445710365 11.638404524011099 23.283091358240544
Rb 17.60761298820553 13.884032800002025 18.82300671612414
Rb 12.628054458513754 13.945300935163859 18.116084471041777
Rb 5.817689288067709 8.181500174511475 10.957248382307482
Rb 14.633071022108526 15.432650241828739 10.032606760684411
Rb 18.53567084750266 16.665254223760623 22.353781616131318
Rb 13.491915907555613 9.686623412548288 23.283091358240544
Rb 15.193253975589613 15.708047891741606 14.760898957240112
Rb 20.356749905985257 10.111642060012079 11.237377752413385
Rb 13.713160413104921 19.25105372325972 8.009435015088172
Rb 21.022201079980775 7.375378265351252 15.258559431362094
Rb 17.490670436413964 7.719468791757893 8.498915067748523
Rb 9.966582555814652 16.26180621716439 8.920404020842822
Rb 12.104141290380701 18.819523305017167 12.1479903394354
Rb 13.466184326213904 14.736188000780766 5.788803966033006
Rb 7.909512676332526 16.48761126903618 13.071732862365801
Rb 16.49564344970138 6.862155631906367 17.466531516613266
Rb 19.031300854581534 17.67719718483756 16.669526537600483
Rb 10.129428332834832 11.7347853357055 21.535129274599015
Rb 15.037494468897957 20.7248071579878 15.743673176325563
Rb 21.870306189016983 13.835965066452962 20.646722927038216
