55
Energy = -42.54407595 eV
Rb 6.088599691449094 6.088599691449094 6.088599691449094
Rb 6.088599691449094 8.589057055438028 10.216481327768234
Rb 6.088599691449094 8.589057055438028 1.9607170551302031
Rb 6.088599691449094 3.588142327460366 10.216481327768234
Rb 6.088599691449094 3.588142327460366 1.9607170551302031
Rb 8.589057055438028 10.216481327768234 6.088599691449094
Rb 3.588142327460366 10.216481327768234 6.088599691449094
Rb 8.589057055438028 1.9607170551302031 6.088599691449094
Rb 3.588142327460366 1.9607170551302031 6.088599691449094
Rb 10.216481327768234 6.088599691449094 8.589057055438028
Rb 10.216481327768234 6.088599691449094 3.588142327460366
Rb 1.9607170551302031 6.088599691449094 8.589057055438028
Rb 1.9607170551302031 6.088599691449094 3.588142327460366
Rb 14.788785151709781 6.088599691449094 1.1123712497267078
Rb 6.088599691449094 11.064828133171476 14.2142006301084
Rb 6.088599691449094 11.064828133171476 14.788785151709781
Rb 6.088599691449094 1.1123712497267078 14.2142006301084
Rb 6.088599691449094 1.1123712497267078 14.788785151709781
Rb 11.064828133171476 14.2142006301084 6.088599691449094
Rb 1.1123712497267078 14.2142006301084 6.088599691449094
Rb 11.064828133171476 14.788785151709781 6.088599691449094
Rb 1.1123712497267078 14.788785151709781 6.088599691449094
Rb 14.2142006301084 6.088599691449094 11.064828133171476
Rb 14.2142006301084 6.088599691449094 1.1123712497267078
Rb 14.788785151709781 6.088599691449094 11.064828133171476
Rb 6.088599691449094 14.5014928909092 6.088599691449094
Rb 6.088599691449094 14.5014928909092 6.088599691449094
Rb 14.5014928909092 6.088599691449094 6.088599691449094
Rb 14.5014928909092 6.088599691449094 6.088599691449094
Rb 6.088599691449094 6.088599691449094 14.5014928909092
Rb 6.088599691449094 6.088599691449094 14.5014928909092
Rb 8.655022772429435 16.208348514080814 10.252266954261954
Rb 3.5221766104691716 16.208348514080814 10.252266954261954
Rb 8.655022772429435 16.208348514080814 1.9249334286364022
Rb 3.5221766104691716 16.208348514080814 1.9249334286364022
Rb 12.79463826773754 1.9249334286364022 3.5221766104691716
Rb 12.79463826773754 1.9249334286364022 8.655022772429435
Rb 16.208348514080814 1.9249334286364022 3.5221766104691716
Rb 16.208348514080814 1.9249334286364022 8.655022772429435
Rb 8.655022772429435 12.79463826773754 1.9249334286364022
Rb 8.655022772429435 12.79463826773754 10.252266954261954
Rb 3.5221766104691716 12.79463826773754 1.9249334286364022
Rb 3.5221766104691716 12.79463826773754 10.252266954261954
Rb 1.9249334286364022 8.655022772429435 16.208348514080814
Rb 10.252266954261954 8.655022772429435 16.208348514080814
Rb 1.9249334286364022 3.5221766104691716 16.208348514080814
Rb 10.252266954261954 3.5221766104691716 16.208348514080814
Rb 16.208348514080814 10.252266954261954 8.655022772429435
Rb 16.208348514080814 10.252266954261954 3.5221766104691716
Rb 1.9249334286364022 3.5221766104691716 12.79463826773754
Rb 10.252266954261954 3.5221766104691716 12.79463826773754
Rb 10.252266954261954 8.655022772429435 12.79463826773754
Rb 1.9249334286364022 8.655022772429435 12.79463826773754
Rb 12.79463826773754 10.252266954261954 3.5221766104691716
Rb 12.79463826773754 10.252266954261954 8.655022772429435
