51
Energy = -38.67510173 eV
Rb 12.284962362855566 10.019676021694272 5.124513475573489
Rb 12.911562998843824 14.523767760563516 7.01030696988263
Rb 16.763356543810573 11.456302361148335 6.737618857715005
Rb 8.74901083725959 11.957303405794962 8.059126155870402
Rb 15.27115004620357 6.910745847260622 7.326731416053856
Rb 9.853157786868275 7.231567420358032 8.35373514373475
Rb 17.28295359408393 15.897137595220961 8.74222154872399
Rb 21.112874566451588 12.869930229712182 8.698216001387934
Rb 9.329632848415796 16.456981806516307 9.51014561258614
Rb 13.043106259902945 10.536721690706292 9.216238525274987
Rb 5.865965408833838 13.87534132378145 10.702032372320785
Rb 19.53035294476349 8.236460799103968 8.742221548723986
Rb 6.982482930491848 9.032105325424107 10.954986963223643
Rb 17.818446575893482 4.252957458399143 9.522614643943164
Rb 12.929217668014509 4.542063605319236 9.777340394143236
Rb 13.580964498310259 15.08945591453639 11.171725576051418
Rb 17.44878801618077 11.967138234313657 10.949102294719394
Rb 9.546374307197706 12.491695071832098 12.250378293182075
Rb 15.80172749081576 7.314534293690832 11.78643928235982
Rb 10.70052610863982 7.566647783329862 12.555100331302317
Rb 20.411921438446214 15.645178816879879 12.189291803873932
Rb 11.515299971333397 19.049490579361592 13.08306478331122
Rb 8.044898206072629 16.44075797753138 14.275811921770234
Rb 21.845776377285553 10.8847265785167 12.563227895441495
Rb 16.75413044091226 14.61546406881534 15.12514728581951
Rb 13.75325721855069 11.11849410995122 13.840753082536299
Rb 13.860850862044975 20.557702775927332 15.682006052725939
Rb 20.258497246526296 6.720928502097292 13.168114656915654
Rb 19.58803069655435 18.085647924468798 16.42718071534511
Rb 10.05510169062314 10.545495098781709 16.729743496886243
Rb 22.217195061026146 8.643825098315526 16.950750587637927
Rb 21.049811884194774 13.39678772212772 16.720887170932695
Rb 11.892127414796002 15.062140300996907 15.92951420190481
Rb 16.43041970878696 18.86629913683334 12.830675301056585
Rb 13.795020716297268 7.221659303348314 16.546200480827785
Rb 18.014772004654798 9.892130899017834 15.445340698750565
Rb 7.456596043786717 7.240416204517643 15.593025138105062
Rb 6.210785374158295 11.968564003275732 15.148386373110101
Rb 10.268308244830088 19.082160933333153 17.837525405276388
Rb 10.066866582132922 6.820635976593832 19.721637093827137
Rb 14.97850178034238 18.372590241718957 17.741236957999963
Rb 14.510917059745477 11.814397224270532 18.518453684230984
Rb 18.241995902487652 6.638388471945014 18.28183103287533
Rb 17.661555265346838 15.159385703008603 19.883419448692045
Rb 18.828564138820482 10.43768312137336 20.158587324065945
Rb 6.876728337152272 10.000506523754112 19.544609938764136
Rb 8.665622543283387 14.516413968094152 18.823694669710605
Rb 14.593919263194367 7.850232039744653 21.25750093164271
Rb 12.503276284339448 15.717069022712163 20.8125785587456
Rb 15.287420324033254 12.413596225959138 21.4582219263868
Rb 10.786559009897253 11.185768287500663 21.458221926386795
