50
Energy = -37.85197725 eV
Rb 13.439043023598483 12.359785038490495 5.536254499142017
Rb 15.329080214120747 7.809230371902137 5.831640719010986
Rb 18.41180949711923 11.72379928522737 5.714293063771286
Rb 16.135730560416306 15.17200214953014 8.243885862144532
Rb 20.887897441605237 15.825475471782353 7.474732605832239
Rb 7.184370809500517 10.364933745500581 8.904180220293746
Rb 11.139643791654798 8.637719001704996 7.836178756999889
Rb 12.902976335461755 18.40680689003236 7.474732605832241
Rb 14.960495979577777 10.598236801958418 9.49706428240056
Rb 11.22726430530236 14.193078633061036 9.141996148291916
Rb 22.87279457529348 11.311166509415635 7.4504597159435235
Rb 19.36624136976514 7.942817314021713 8.369403410725022
Rb 17.32101213104687 19.85442017199381 9.15080451592012
Rb 9.286603135260934 18.633990142190473 10.69434240630548
Rb 5.715796120187008 9.943474379289668 13.32501031622274
Rb 19.379578686188417 12.294191892572615 10.09138835955196
Rb 23.617275306469327 14.286578538566733 11.244253102105393
Rb 10.153577471449395 11.119953636692168 12.397743452051246
Rb 14.63162254241129 6.25919541278319 10.245210517279702
Rb 13.301036698931215 21.9400633414188 10.923512993059047
Rb 6.758953101293745 14.460040625862623 11.35886780245456
Rb 9.210890257578038 6.957163611679322 11.806102606943453
Rb 14.068828004756854 17.52883160446485 11.72519805911944
Rb 17.993531481473322 8.645392088608498 12.964858805841882
Rb 22.811439938625835 9.424296723943637 11.939101288294154
Rb 20.381318114521445 12.765120188123612 14.478943862408837
Rb 9.081371257694414 8.656771004782026 16.53619455878156
Rb 10.442726785202737 15.50398085656133 13.828789281178206
Rb 3.307467277868042 14.083183967505834 14.481565218342649
Rb 19.11428842686937 16.711142090808984 12.19789402078588
Rb 23.61727530646932 11.942627102642765 15.821735092947247
Rb 16.50546347551605 20.358070694323178 14.367126088716113
Rb 15.315999900679337 13.374554277466595 13.112307791883374
Rb 6.6450321100937355 17.6966330956576 14.974625552620088
Rb 11.261940457251882 20.06043243537104 14.943423005764927
Rb 23.039340945821543 16.36934532165597 15.633877928870215
Rb 7.289873693861301 13.039835529638324 16.47825960785715
Rb 14.141545229045283 16.649762703640477 16.60185523997256
Rb 13.461722269960214 8.477903301078003 14.274665662887173
Rb 12.04617455538505 12.390162108380384 16.793055411820582
Rb 16.756070910370923 11.34176548504878 16.988775290856584
Rb 21.0472344318547 12.988661135098848 19.149299876099462
Rb 21.11549980920358 8.80073382537522 16.820841122134883
Rb 13.302677508533899 8.988830866715537 19.646689772705024
Rb 9.710869275207385 16.370103855729862 18.5105557323015
Rb 18.46010621664177 16.366266706312526 17.056377369153658
Rb 16.75467599565249 6.812799840846718 17.22725306001529
Rb 9.396994661883127 11.726748195423374 20.495737802809444
Rb 15.03537120041183 13.74342127593125 20.468453130455032
Rb 17.91715143830623 9.636436481101814 21.020243932082998
