50
Energy = -37.71030941 eV
Rb 20.288159305400747 10.309988504468935 6.267043964006977
Rb 9.74594192649524 10.34239239211073 7.656359889138702
Rb 15.510348441228 9.834965149785404 7.791510698127191
Rb 19.00600874072148 6.6737400556194455 8.182056006812154
Rb 23.13634945608288 8.061431643133899 9.420839475492247
Rb 18.1956112659088 14.214557620114006 8.240871966917476
Rb 22.80812766773419 13.30562706592093 9.666264919352734
Rb 12.112552233621534 6.7946159159872295 9.012329640574958
Rb 13.248775288867227 14.299990301328586 8.836983439559418
Rb 16.183031841469816 18.560608021731984 8.20047540266395
Rb 19.684541736117804 10.071508316598537 10.190174292274445
Rb 11.940278088531489 10.154797637418694 10.90171893805795
Rb 20.42233039580338 17.888562331700665 10.196870150255638
Rb 20.72639808445874 6.648714828647461 12.528414213784568
Rb 8.583655825352064 8.060898128269317 11.293698952126384
Rb 15.981303440862272 11.972484546087339 11.498950757078095
Rb 9.226470235311771 13.762943274164249 10.471830030340689
Rb 11.986722589610352 18.365436125139567 11.004678350545234
Rb 15.98137366421218 7.15960484746576 11.36169029617593
Rb 22.808127667734187 10.241519179071354 13.399475459323698
Rb 16.283499508368937 16.460477406424985 11.680066888207856
Rb 20.30527966024031 14.100077814018476 13.12223549859567
Rb 12.037380098481623 6.14505372293278 13.32886058533577
Rb 16.39639872345597 20.52106987400508 12.199180749983457
Rb 12.308129439651744 14.268069298371028 13.094721054685506
Rb 9.387901144542683 16.645702630864715 15.293781174331457
Rb 10.471089931387715 10.211688409361628 19.193063985591472
Rb 18.385467672910913 9.817079054612696 14.92970040146961
Rb 18.752369839789896 17.933822436856914 15.715535848284535
Rb 9.130874310163115 6.9346233689434 16.308753773309036
Rb 13.346318162486922 9.760781148020605 15.09567232049936
Rb 16.316478607279453 14.038048505398553 15.620527974859705
Rb 13.874111804351275 18.31906503402945 15.609052829935775
Rb 9.04327742895032 11.663389335496332 15.025599770505679
Rb 16.980449503328103 6.1159711669112165 15.776841411980932
Rb 12.01487872272143 14.232652259907967 17.620413773457877
Rb 13.093542230090792 6.877927011141473 18.541500444293828
Rb 6.472145069872965 9.663269929184867 19.19193337526922
Rb 20.02846813337954 12.738421262569256 18.154585302351716
Rb 9.479095158493992 6.934623368943401 21.3148769480374
Rb 15.158041663145045 11.111598355306663 18.978126750648084
Rb 10.848555626737312 17.851801028116878 20.030900457911837
Rb 21.69318714534975 7.665857579547907 17.21508930636699
Rb 16.044071368362395 16.09164290974287 19.719851560467212
Rb 8.280876698328179 14.186413782345342 19.59347367129922
Rb 17.955583470399255 7.866201187540708 20.121099428046794
Rb 9.176243164147262 10.693041715250502 22.969997354957655
Rb 13.213886383600958 8.777043345585215 22.45755659396816
Rb 17.232757195899904 12.089721830818963 22.346735253160258
Rb 12.27063112940252 13.748075414775757 22.27096479358278
