5
Energy = -2.35355126 eV
Rb 9.82536677321622 4.808820416129579 2.215062641437571
Rb 4.401276981561224 9.74912022818436 7.781851418272024
Rb 2.407065556188556 5.869278748658203 7.8242959744740315
Rb 4.913198514688081 1.8329758649900982 5.086781123594513
Rb 6.466163965615864 5.75287653330758 5.105080633491807
