50
Energy = -37.7620131 eV
Rb 13.494705405143574 16.15217500693877 5.04201661448934
Rb 11.855084314698098 11.899865810034205 6.520829739279
Rb 16.771278895604304 12.995145090586984 6.837363254261809
Rb 9.293988540019704 16.170201024769757 7.590496551627956
Rb 10.05957145487227 7.919203788722848 8.525466407197905
Rb 15.042893750872075 8.67225396722058 8.659290557907502
Rb 19.903922877415738 9.811777109810567 8.838861596341745
Rb 17.166414752669848 17.72261315341743 7.894897200503511
Rb 7.769216596974574 11.794547965079353 9.218338617657276
Rb 12.555912931320162 19.701600485359332 8.363681074776137
Rb 13.540003780990808 15.142689039042596 9.40352449186407
Rb 5.324141355562374 15.958206482186746 10.270789349572139
Rb 20.40501460621695 14.517754798443834 9.741279102644807
Rb 11.915176673501014 10.90515711882838 11.15748290265093
Rb 8.275454614790164 19.639230033933092 10.977836014938479
Rb 16.79401244886989 11.94147868660239 11.440182568821974
Rb 12.77312466889023 6.3396173068447075 12.192772736554952
Rb 17.666555944983863 7.379115803731023 12.458440383273155
Rb 8.154236996314278 8.536065716924451 12.766491730358307
Rb 20.636974018545082 19.376352030239396 10.320732148730288
Rb 9.344541636467445 15.159332852865914 12.158235735252116
Rb 16.161433769909955 21.326554618917154 11.02589061025051
Rb 11.651083954552787 22.061644365641015 11.69608033544888
Rb 17.266654382300416 16.827660316061575 12.49690946036399
Rb 21.01385711516841 10.746746853670444 13.394819020088399
Rb 5.826845494930044 12.619357671650068 13.874486417304626
Rb 13.642077410007067 14.169837042396916 14.079129586996732
Rb 12.626350103341057 18.641462765742276 12.834074478913271
Rb 6.189745440674644 17.349740550450715 14.912658554103192
Rb 9.380946915247543 20.90258841839484 15.510109238685914
Rb 10.280517077862953 16.38374373529422 16.757630080442645
Rb 14.475452004456173 9.551209653340482 15.093175753941617
Rb 9.963926823822844 11.638954907856574 15.775693738297113
Rb 13.931805928879767 22.061644365641015 15.763038367030422
Rb 15.040694661214273 17.45861952320163 17.056651206940643
Rb 21.950786727108486 11.612392194262585 18.095408099142443
Rb 18.66785247421442 8.672253967220579 17.073629389222642
Rb 15.27931864479548 5.25736449096209 16.14823751135824
Rb 10.82811879053475 7.159575364530646 16.8161105273518
Rb 17.947944022472846 13.270833913233123 16.07366822857549
Rb 6.491222035912577 9.138344589420624 17.29349985966636
Rb 13.664640318629903 12.940056003287365 18.643276090534027
Rb 11.780469180874093 19.67420939463791 19.73898956464074
Rb 6.819799718596995 13.917052088954645 18.45953680660951
Rb 14.454778832949122 8.540038758392338 19.776941049938237
Rb 15.000640302833986 16.212217041680706 21.76573336293244
Rb 9.877807119104242 10.478079225326857 20.370257777297606
Rb 17.82576465955669 11.772927978005507 20.72779560130841
Rb 10.448626091398337 15.174490900928063 21.354346766802028
Rb 13.621344372170169 11.860561095300051 22.16775880309388
