52
Energy = -39.46717426 eV
Rb 9.171537416898557 16.052129800647844 7.2136632065533535
Rb 15.469284874253344 13.8657977048875 7.96087247859711
Rb 11.736751309824115 8.001580431303488 7.126408987176097
Rb 20.09227755900291 12.669968032983272 7.15327755326181
Rb 13.392296686755675 18.036727845169974 6.1118645228727635
Rb 16.169334345061007 5.576114922862325 7.511787470140667
Rb 18.24954772744264 17.626249925508503 7.347836868429045
Rb 10.831648390242856 12.022650063087474 8.585470078193461
Rb 12.066411151561292 16.788948595046932 10.020804873304307
Rb 14.21475267378024 12.916036689751715 11.989177340027052
Rb 14.848304962119714 20.7092169257739 9.428168760088452
Rb 12.738733694246859 5.391140344899252 10.400660078946759
Rb 18.81279190584867 11.954014543378918 11.085885873462551
Rb 22.244078487332292 11.115735509674241 10.079135861226293
Rb 15.36366697080743 9.132921846475188 9.296835050465925
Rb 10.023207903404263 20.506575013291215 8.046232839909282
Rb 21.4676314283757 15.792020328810358 10.238986619906859
Rb 19.97872401717591 8.001580431303486 8.485220215661643
Rb 16.91715707302537 16.74761964481927 11.36770677424413
Rb 8.348289527358043 8.395059443109416 9.542699073655323
Rb 6.838424529754916 13.030529757503217 9.8438045268426
Rb 17.476566117416656 5.733250155577309 11.726652754870887
Rb 11.606507302608453 9.125305438512267 12.566980946845133
Rb 19.586579445681902 20.475528639400846 10.728071057059529
Rb 7.858641449490955 17.849348138341355 11.22929110863165
Rb 11.192833338405688 20.640641966229133 12.751509990859912
Rb 9.700255317375156 13.942668331532388 13.188992751697455
Rb 21.187080836808615 8.199378622547147 13.410088646905237
Rb 7.4776893304367835 10.151253437372109 13.912364981420591
Rb 9.357268298063216 5.895753329801928 13.454821949585549
Rb 5.713819642841751 14.824545490721112 14.347216768270444
Rb 16.079827304201775 20.728537107897676 14.077423656760777
Rb 16.380602544786107 9.201534789588017 14.227951418724006
Rb 22.0525117578874 12.952044604227261 14.416808351162754
Rb 13.355809639293286 16.803425697718488 14.765789950336133
Rb 20.283922870438165 17.639389993637963 14.689705537807116
Rb 13.691935231397034 5.701144456401891 14.982926048862087
Rb 17.47470556898126 13.904545477055516 15.348661438098086
Rb 9.134840073656797 17.77870886202615 16.02055179037068
Rb 12.88450210301142 12.063549111365925 16.40998107250775
Rb 12.56189518245481 20.522170702969866 17.471612801341173
Rb 18.48403531390234 6.07018969167611 16.55951708070436
Rb 10.242495577868596 8.347312352080255 17.227965910615005
Rb 8.815671195263329 13.051767452481666 17.783160744261302
Rb 19.690062065353267 10.125571745461261 17.759738013879623
Rb 16.71219104217388 17.901345570813387 18.06722963198917
Rb 20.602859967505587 14.774906259209743 18.67378988417473
Rb 14.907441963836934 8.190930111281574 18.65723964200606
Rb 11.879680906161788 15.883117685543407 19.22575021557221
Rb 16.190251814755698 13.178522696896737 19.911154237534067
Rb 12.040163736245018 11.153584892052862 21.003304107046542
Rb 17.643950321997277 9.346193658218235 21.00330410704654
