5
Energy = -2.48665875 eV
Rb 7.363273682095871 4.5105257559309155 5.809376300979137
Rb 4.301446805753624 6.030810835287979 8.745801379066668
Rb 8.280023757261924 8.969228337019487 5.368668519266757
Rb 3.5847159710588943 7.290030010089515 4.322668315726972
Rb 9.84388773412759 6.572753011970274 9.12683343525822
