55
Energy = -43.07593439 eV
Rb 9.913993488552075 14.945909901458473 17.539656334261583
Rb 12.985739299552694 12.14086432735406 20.04052125635725
Rb 11.081800024582366 16.49260796861782 21.867911293316077
Rb 10.37007201486581 19.718306453537814 10.814584718378576
Rb 8.164555126274514 12.62661993946967 21.260727150545872
Rb 11.107990777059507 19.089314652654863 15.38400132344976
Rb 12.434641434718783 14.469826440941443 13.723297573098048
Rb 13.607265207522468 7.479584552317942 17.823556691283933
Rb 12.946913741686698 5.6577710180160246 13.378477716293704
Rb 4.811914407126443 9.576441976222736 10.086819995886101
Rb 17.818972117985492 13.219144336180038 19.27267271722274
Rb 21.019953150146844 8.587878559926601 11.3144654787298
Rb 9.03405252172641 17.59939640192382 5.932690688521771
Rb 9.51482071385041 10.571427436477588 8.452740050332327
Rb 6.314083499403997 13.735739923239818 7.727107706356607
Rb 8.07891830494646 11.883586158910177 12.457320969900458
Rb 1.1072127208674163 10.80453283476291 13.556238506384906
Rb 13.375199166530594 18.253532938975653 7.2869574894946565
Rb 10.692336241726903 14.960980628374665 9.86578684114408
Rb 11.57081611457422 13.545401481780019 5.420962459490047
Rb 8.672296601209439 6.966629933821077 11.729954247924386
Rb 17.418373882150398 7.374741429984717 14.63432161331944
Rb 14.533265462142968 18.57446065024132 12.02501412258278
Rb 16.955554594439608 11.178195874515245 11.659595223372268
Rb 15.50947995975299 14.949832925036029 23.033355617292575
Rb 6.157475644568299 8.975247436406018 19.455596304881812
Rb 12.286594782456143 10.140668767593628 12.118925714436116
Rb 7.692820566777599 16.459264798897728 13.578128295825785
Rb 14.023211307365216 10.781668274759738 7.874347498050905
Rb 9.242205144956394 6.05802725882816 16.689205874640663
Rb 5.972703668669599 17.955588903225408 9.667678498920415
Rb 14.420361598527185 16.36747449478488 17.908487320299077
Rb 11.572114649770135 12.114281388819354 0.6885896231572537
Rb 16.187454037895154 15.030445842494306 4.76815967618483
Rb 18.684012675941396 10.980189486243368 7.320573743769851
Rb 20.21044557252169 11.472991713730693 15.470643499683867
Rb 16.707249369784677 6.772173571221746 10.101187616931156
Rb 15.615169862052616 11.134477235312659 2.8862018960673277
Rb 3.768402566260952 13.9528348236573 11.744327311388767
Rb 11.081800024582368 8.927742492751108 4.079481561371749
Rb 7.7660574257536155 6.327934890415978 7.041073278477986
Rb 10.10030534847014 10.618986268650138 16.497994786960167
Rb 17.534734569457385 15.183000835546666 14.116545009358337
Rb 12.302211576600055 17.235805490012783 2.4839359062257094
Rb 5.335785710877659 8.55127391186173 14.668678679156287
Rb 21.01995315014684 13.090041678284328 11.013961440279424
Rb 7.920384793442784 13.7364096900922 2.6442065555022842
Rb 6.027823383243094 10.20072234552641 4.9634809695283115
Rb 15.56423471151567 14.677153648127412 9.639579979420017
Rb 5.467910564396313 12.737780865055193 16.544790152607664
Rb 15.780527868302974 7.118383616839697 5.376789106578928
Rb 7.3964895870662115 9.296592501896924 0.6308665048882098
Rb 12.089277743103548 6.352083847468104 8.706090088784382
Rb 10.592682408326562 8.360237931358327 21.219007770706742
Rb 15.03197365154458 11.543839546250647 15.902669191767291
