53
Energy = -40.576587 eV
Rb 11.98552298852209 16.994737711334476 6.76864298732067
Rb 11.974811974636626 12.284935299125118 5.309071275281224
Rb 12.508641869185062 8.099778940809937 7.752814829647814
Rb 16.383691998461583 15.39650619745457 7.086318031376222
Rb 8.253309870939095 14.67988688003121 8.313040797703499
Rb 16.573373741931743 10.471580008893847 7.425962425922224
Rb 8.47937697392961 9.831352233886296 8.870679041841978
Rb 20.721567537412113 13.058180387114168 8.30068062974004
Rb 5.697703385065147 12.425081884530648 11.95764916309444
Rb 15.08618588049313 20.39359758581751 8.72860261820597
Rb 9.934357185946105 19.335652955256435 10.130745264178762
Rb 12.441330159986961 12.679873025632244 9.579566858644512
Rb 13.671816050212211 13.070017521153746 14.19914531625688
Rb 14.77162813865145 8.681488466615631 11.921102703641314
Rb 10.529753096112039 6.068506421920183 11.4513893897538
Rb 19.521442559436903 17.3311040021724 10.400242692956207
Rb 17.151169732150276 13.173587039965833 11.13681540368878
Rb 9.897961413942184 10.264804435835947 13.3165805773195
Rb 19.92305636028349 9.342820227810071 11.490841003140611
Rb 6.210987486939088 7.721983960738943 12.580768487176758
Rb 17.608053989659748 20.79644369244756 12.891876077203447
Rb 12.93569077027879 21.523284352581587 13.437697029331144
Rb 5.7218427974926325 17.349010800795934 11.49929237939963
Rb 14.190960314452322 17.086777984406105 11.440964181377907
Rb 9.608742480755875 15.27770428825889 12.830865495650995
Rb 21.709536584678997 13.670929504358728 13.046684692580762
Rb 17.516796720649943 16.054881357451844 15.15608298483379
Rb 21.198212108065093 18.588446615273092 15.53897040557315
Rb 8.479376973929611 19.572822062819938 14.978524777107827
Rb 17.771904645936875 11.179623068799259 15.642358157638919
Rb 12.855612564750823 17.382430879058525 16.26219999893283
Rb 21.745727182121705 14.141843201219393 17.711323300776886
Rb 16.589119621427955 20.35604543591827 17.544045841301365
Rb 13.778409120761905 5.117801980444626 15.134093921894005
Rb 6.045182841288493 15.310060516131152 16.084117445528655
Rb 21.804999987240357 9.385135732606631 16.490622752418535
Rb 11.786407193857608 21.524504644360594 18.292661020645276
Rb 9.169205837335648 6.46106121447902 16.344505624129553
Rb 13.143129813431136 9.327239049758488 17.029682699581052
Rb 6.342927662616393 10.352583650353399 16.675705112077843
Rb 10.11625093012014 13.273053353867034 17.45247830328373
Rb 14.931168246876803 13.670335137671376 18.90272048123262
Rb 18.61503049330348 16.70689853421051 20.048209657146963
Rb 17.34661778375024 7.3252785189812295 18.298380714472817
Rb 9.093502558716748 17.498826924325652 19.56541280027809
Rb 19.000271718656315 11.307923663121716 20.474621605290707
Rb 13.940792843729572 18.028829195926225 21.12624555320593
Rb 12.786518733543577 5.696212936291949 19.838688333614005
Rb 9.591030670264862 9.315853448547246 20.41593255983764
Rb 6.767051586713401 13.287093313376369 20.650872719932497
Rb 14.496321862533854 9.649411427584525 21.86272163123373
Rb 11.274145932835545 13.778553028207618 22.27278527423153
Rb 16.04391587789335 14.084613331179703 22.27278527423153
