54
Energy = -40.66952228 eV
Rb 11.193229582273911 15.614603030631264 4.80290397758143
Rb 13.02488814707545 11.13216760048454 5.476275240576029
Rb 15.939046397707965 15.208460336739046 6.744367755753629
Rb 12.587479485529451 18.96333473547077 8.217571270153423
Rb 8.295012793235266 11.970662179403018 6.896298724985267
Rb 11.421362000646194 9.273954367423508 9.337848670911669
Rb 8.084039152677711 16.931956363298063 8.466120414408822
Rb 17.550988522656677 19.285496925015707 9.33784867091167
Rb 9.380098592571668 21.228405535571564 11.030153071104461
Rb 12.058402508272039 13.946191687830147 8.848594847098143
Rb 14.502698570933555 8.132869931952207 12.948709886791304
Rb 16.155338985116554 11.273160288734703 9.674818741743143
Rb 14.047824441440419 20.49745085452005 12.260195132643211
Rb 19.623144983930345 14.787307257262471 10.190789960506342
Rb 9.486166125378793 9.514693531268017 14.105349468758302
Rb 4.894381429970278 13.341933402842603 9.529387039522327
Rb 7.0718726245881705 8.924096269540906 10.310516952656357
Rb 15.320534141150327 16.029914590009632 10.875366117577729
Rb 10.886156536342295 16.93333373632323 11.863979876017535
Rb 6.670434542527048 17.00295316880316 12.585416062183096
Rb 10.344023048043983 5.977778559416402 12.386390852224189
Rb 8.525416040579081 13.069138463460225 11.155778751136504
Rb 18.39268868500661 18.182596551258406 13.549850251012042
Rb 11.489580524715384 21.228405535571564 15.223655419306317
Rb 19.545013741130074 9.290656715418592 13.825761189381065
Rb 12.87134261154224 12.535779683270261 12.965865533646028
Rb 21.88671493414593 14.337529837996753 14.489123421419382
Rb 16.78470811429021 5.4948907004903695 15.819359471576073
Rb 14.088652254483126 16.35082616778609 15.394724478818478
Rb 17.390044446060774 13.22117584084124 14.364224144716614
Rb 8.899209856085307 14.424447543924005 15.91131152059581
Rb 9.957915691692406 19.19985271349713 15.701318662808873
Rb 12.142303463106337 11.69774509792095 17.489732391146227
Rb 12.01201115918756 7.137911761645558 17.07999747774933
Rb 7.945961897683984 9.70850290040379 18.396359125370914
Rb 15.124687771770216 20.358568060314536 17.131359860066027
Rb 16.170200824588164 9.389889163909613 17.272119186586774
Rb 19.111573626335943 16.72473246321854 18.004029181460954
Rb 5.691037744672853 11.86191857556042 14.19533829456257
Rb 20.33306618958477 11.955325883827284 18.158950285373177
Rb 20.002949957052913 7.719820082704799 18.81342659920205
Rb 11.905966920967685 16.265147779546556 19.25076451133429
Rb 15.922044032405957 13.689721299415119 19.124564350035744
Rb 7.929678865957232 17.385005982340374 19.576793727415637
Rb 15.670747811715227 6.219937457516958 20.364937978926125
Rb 9.3596604263979 13.165218267254218 21.40130691145195
Rb 12.476564897615134 9.244982884328003 21.31511994307733
Rb 11.373346933256547 20.790873464922253 19.959160783030644
Rb 15.50370582347186 17.95018902663719 21.533400892728164
Rb 17.166812594048608 9.981701596704198 22.050448758590218
Rb 21.837526210100883 10.281788052958936 22.186225445656216
Rb 19.059417778270113 14.414127551547141 22.47248937698771
Rb 10.912442363442986 17.43738708574688 23.51948517643523
Rb 13.89536183533247 13.58610051708958 23.301359169495147
