52
Energy = -39.2963462 eV
Rb 8.13116941912517 15.068820919037003 20.342078446723207
Rb 15.050241976159343 12.586646372929497 18.006414146807
Rb 5.463452848978761 18.54857784213627 12.406629099461899
Rb 14.991127261618322 20.5274615263193 9.629479869874096
Rb 13.38667422867212 14.54787776879797 14.169696140132764
Rb 8.970326590559178 8.53695246814967 12.86430129541265
Rb 13.23794914485631 5.646405748694063 13.147551913708545
Rb 15.803632926596043 17.236025724569828 21.169258105665126
Rb 20.65184086791054 16.912775900308176 14.403118840803387
Rb 12.504263710352168 16.530537716088784 10.14431713505933
Rb 18.034249822760096 12.45642971268599 14.40993057248203
Rb 17.155889084966066 8.536952468149668 11.226208804693517
Rb 11.909932421531634 16.49555509325244 18.12041923458621
Rb 19.758309753434165 19.15699965033592 9.68141274089968
Rb 16.390901759745383 7.682179891677082 16.269278292215645
Rb 16.382935029715174 16.197285588408224 7.092740314878281
Rb 8.031691033251315 16.07859574279458 8.783637241674999
Rb 9.6851398372436 20.335134692161088 10.679686988990232
Rb 13.008000460251427 19.414915047272217 13.995598815752214
Rb 10.069359403131637 7.3921706360474815 21.898749668200686
Rb 5.719280034157285 15.735509522529163 16.391092679127052
Rb 11.775847575311719 18.324456701131687 6.283326371199719
Rb 8.481210639269918 11.455062403334793 23.97747569480514
Rb 14.06540436783895 5.343767807189687 23.65873396351795
Rb 11.38020910862693 11.81099751680072 20.48664198434471
Rb 18.91297941486011 10.132239653488206 19.597480455178513
Rb 17.674604429477096 8.622021446989923 24.274023450361607
Rb 16.753562050787263 16.74916353229116 11.876003327036422
Rb 13.417292183805506 10.12487367962871 13.775668420622116
Rb 9.226396374978641 16.377300995425006 13.438679432294421
Rb 17.837457470251913 5.430107261820711 20.70840452557111
Rb 17.76709066633555 20.93188754345538 13.794386624334448
Rb 16.391315705192365 17.01780654924014 16.475764184047794
Rb 19.667015144434316 13.738084135060445 9.967174249958772
Rb 11.083326356261583 8.130534227596003 17.232569231920642
Rb 12.688213640729497 8.54910331597474 9.264252418099014
Rb 12.23972407057589 13.420048752540675 6.459236447229435
Rb 10.332622509358051 12.3765134585559 10.841891314183933
Rb 14.249964744424195 20.771901778514017 18.314179609838007
Rb 19.286819569427077 19.747069797854518 18.552960772140533
Rb 8.715471554659473 19.692631703927567 16.518762979523295
Rb 12.113005388104687 14.949973456249833 23.786625106328394
Rb 7.064351794302353 10.199973165314221 19.19251653609087
Rb 12.962312478153446 10.227673644629 24.274023450361607
Rb 6.082643948583963 12.870958722343921 12.610125924172166
Rb 13.425763486857914 4.485418095202602 18.86922741678236
Rb 15.137052141929296 12.643952556466724 10.32109731290602
Rb 14.594223444012389 8.683912248040567 20.66410330525479
Rb 19.53094809098962 14.889184193346644 18.99396279904836
Rb 16.558026685714474 11.078896471127194 6.444032948719347
Rb 16.385804036726903 12.92741163878271 22.81146252458562
Rb 9.581342876444472 12.4702100363737 15.91801262392553
