52
Energy = -39.54903882 eV
Rb 16.82568552196808 8.34742678751748 22.519329336445576
Rb 16.793149960774144 19.84422550288942 17.925753780207696
Rb 8.540572536182312 8.27704667786783 13.751573705018863
Rb 7.90911230273925 17.48022448094249 18.63816831601255
Rb 7.802238407333079 7.68105367796229 18.570038915564474
Rb 16.89750867120205 12.689138994458022 24.347318577817465
Rb 14.23967684534953 11.05123141849511 9.980881012495807
Rb 10.67546060720505 10.044559559934282 17.648839752348422
Rb 16.46002925465302 15.452160739013983 9.034215392372131
Rb 4.566703314116257 13.415351390221643 10.574861868765522
Rb 7.0057766830376 12.497041780843691 18.4429920486246
Rb 7.90911230273925 14.994444277556918 23.01043836323107
Rb 14.415228171792252 12.766399574501975 17.10762604666675
Rb 11.904759855070271 14.642109500739409 7.820645053338743
Rb 14.89733319188091 15.97584258101607 20.749319106720314
Rb 10.829650322364559 14.335511650685126 19.81783558258116
Rb 5.769476439751842 15.809771351163308 14.573102902031977
Rb 19.749133009992804 14.53699881087344 12.051913685120228
Rb 19.008068778134465 17.01971951331697 21.841963175073634
Rb 11.009544097123106 9.965158026582989 6.849527611933186
Rb 7.704706795168826 13.18072025227013 7.179356740072642
Rb 12.43327195347492 17.695613137193043 11.149644692080923
Rb 15.699383938516439 11.829874193479178 5.756023371727415
Rb 17.995057184825665 10.829608497273751 14.411608284344496
Rb 15.718446647113927 8.462609367007072 17.642528411792064
Rb 6.921091541186052 9.04126879503244 9.782097643060945
Rb 15.344416446587887 20.696211602545322 22.347878180549596
Rb 13.27111767840809 9.34613128473618 24.853905959920453
Rb 11.99965085874841 13.850702579971088 24.62569363375018
Rb 9.780481678816047 11.92297194713142 10.801607170408731
Rb 12.158356440445472 6.934114591756547 20.66913500666519
Rb 13.24566533307463 17.15632195459424 16.223806363803998
Rb 13.599587025905597 21.47070855577959 14.525543702818679
Rb 18.710006997720022 10.536218347739748 9.796752886900803
Rb 9.9175401408809 14.070266554095141 14.908248328769893
Rb 18.123916541102354 15.517037655335727 16.583538919610756
Rb 9.24343914203763 10.293276420898575 22.354618672093387
Rb 9.241062534688957 19.09465229691215 14.41925297054392
Rb 12.148593638891889 6.102900233905806 15.749431845148516
Rb 6.024662068273436 11.20943435119785 14.034080304953989
Rb 16.94637000067829 18.389720957184117 12.961304389900432
Rb 14.756777227194851 14.160686463271588 12.790162376378305
Rb 18.25556315735368 11.994392981820925 19.814668766526705
Rb 12.929162716626317 9.949773506956285 13.782208870257172
Rb 7.941777289917062 16.29916403282489 10.799142588710508
Rb 11.841672251682935 20.649813878877882 18.966378538366396
Rb 11.533156386496998 7.389345108858004 10.624603870888917
Rb 16.08995224493051 7.3726464535883 12.21583033696976
Rb 15.476868907228235 17.113743255444927 24.62569363375018
Rb 15.37689566052772 7.753934992072119 7.5695665038953175
Rb 11.143285389821646 18.221256768832884 22.949057166117758
Rb 13.791875393987358 11.039361278315374 21.262066635485613
