54
Energy = -34.87727422 eV
Rb 7.261800811591963 1.106408443461865 10.111144883308656
Rb 5.959370204650665 15.92960714554053 14.483059851687777
Rb 6.91668852352527 7.87276459388654 13.435309468779558
Rb 2.144902847921637 8.875522719032 13.467584557502315
Rb 15.640719919006564 15.349910404126279 10.150231759643717
Rb 10.556066782676343 4.312153503782822 12.780921139616083
Rb 14.501097987020366 1.782655797863908 13.037448816266997
Rb 0.9118538026512165 11.896583220315929 9.454891912845513
Rb 14.532741459239151 5.445177581566551 9.870543753751205
Rb 14.569347271529638 12.716408911539745 6.018066260452159
Rb 15.499108525222294 17.317445185133533 5.613502709402894
Rb 4.838988391920438 12.2134699672667 11.908154717468038
Rb 10.959914552184367 16.477102617377742 12.870009263942153
Rb 10.412309510894662 7.775227749434624 16.645476659935095
Rb 8.243488030069631 2.2054013605597467 5.5513917919944
Rb 1.954189197473258 9.58688343596565 5.019650760789124
Rb 5.146355742303147 11.304332693799969 16.608685772051945
Rb 9.913104731359402 0.042994544785917355 14.11858476755337
Rb 11.62739483081932 15.560090308582176 2.8082105943956637
Rb 12.14522440558663 9.473031371465629 2.9038860907540873
Rb 8.167235280049901 10.348236882922771 9.59430292119934
Rb 3.7131520967311773 13.084610903034031 2.057585807198993
Rb 6.842937023317611 16.243623957892495 4.546270153172501
Rb 5.121356000502041 8.336990851477992 1.479325850389004
Rb 11.347529302918616 16.971516080199468 7.4795412490543045
Rb 7.282137945705455 3.8383064393446014 16.033416057904805
Rb 7.7707406339199245 8.534592844128486 5.193783650923182
Rb 15.975021680302849 10.258792286469829 10.166120915385623
Rb 4.603895641503474 5.2113108557518535 5.475388345262779
Rb 16.095580371158228 7.645776016633647 5.588507964004214
Rb 12.108344047818111 3.1765174695385974 17.07735360081993
Rb 4.982231727515419 0.2241542199995876 14.096111849352791
Rb 2.7787278508440596 16.210629289800533 10.307018397101185
Rb 11.927619066240434 5.099978948271102 5.613823425920415
Rb 15.876429288382399 2.710913292095142 6.095444167748958
Rb 1.723975482557518 15.36032659084414 5.730841941309643
Rb 9.131991831813894 12.263594454563158 14.17305499599413
Rb 11.67871506829187 8.680301309579258 12.180554640316059
Rb 5.012149526354082 12.43104030826723 6.795300968842364
Rb 8.159048698000573 12.091895722314995 1.5773344428123783
Rb 14.484450508628722 5.185477439825404 1.7729787561632975
Rb 4.33110039662158 4.302836562055379 11.797563442435843
Rb 4.069231571092959 8.241345646992933 9.04490675324976
Rb 9.249672328925223 5.40724649339517 1.8661579733425437
Rb 14.822523028113501 6.459813200062665 14.7771089994915
Rb 11.870717984053352 1.52483044955988 8.872834673470821
Rb 12.088660257671137 9.028460137467613 7.631805540431132
Rb 12.2256241751374 1.3071246434067398 3.1343251834330492
Rb 9.745169804377886 12.800593388060488 5.897111370357114
Rb 8.3792144359393 5.619086485328189 8.957393146799184
Rb 14.040428542660258 12.26894946456555 14.15531610272152
Rb 11.841845890162428 12.974828525060854 10.10625178534715
Rb 7.560004385212807 15.324518644968563 9.686065755374234
Rb 1.4343194720215138 13.765057512824551 14.358792512721923
