53
Energy = -40.44994886 eV
Rb 17.5413805217926 11.61573804682036 8.83941632891734
Rb 13.992852779289148 10.481644371001996 5.825961883574055
Rb 16.474378481053616 14.86899232052874 5.496402993057754
Rb 11.57082896138995 14.511099255646558 6.83231370582485
Rb 9.793037831616175 10.149246855447457 7.046616607542179
Rb 13.885552675637975 18.99089264997655 6.79359658015589
Rb 15.862507349427737 8.467812691718617 11.203649800943673
Rb 20.996658585566994 14.567800007783516 7.359095999239397
Rb 18.4922507017328 18.642832234385814 8.43905070825921
Rb 8.703390668959983 13.231864624201348 10.101177738928568
Rb 10.56397108137169 17.90763778226337 9.773996696741019
Rb 15.863478101601384 12.450099219657753 12.725229104899931
Rb 12.581067837582001 11.298090665987319 9.645776581672967
Rb 14.95356466754587 15.72534446741764 9.420700329257183
Rb 20.112095692334655 10.335045613683343 12.315370807466108
Rb 9.271323103173973 8.467812691718617 11.087966013829588
Rb 14.900758113066884 20.299953461737157 10.84737843849966
Rb 12.27580417925353 7.323465012967288 8.743460967510865
Rb 22.924820866057924 17.928596953650327 9.881889654689283
Rb 12.330903479425979 9.578496474812697 14.235800899820024
Rb 19.431385200871997 15.21717933681276 11.289604467283567
Rb 7.910846331123847 16.61565704464624 13.439320320158293
Rb 16.762336979066628 5.346518725418366 14.656095729876645
Rb 23.365826081286983 13.169805554220545 10.911475130912304
Rb 11.728392616819772 14.80950746487691 13.020931359134222
Rb 19.47342414395238 19.75495127975873 12.705216208775504
Rb 5.5706489655220714 10.750760705142865 13.156406324799994
Rb 22.79183637520388 16.554128746401794 14.594006097597404
Rb 12.15315705807251 5.655994337685888 12.81780713795512
Rb 10.083031874240248 16.49581141286968 17.751149200580123
Rb 23.365826081286983 11.770070916193452 15.614854718683425
Rb 15.847905090993217 17.03426876548215 14.217001257816529
Rb 21.03343585941464 7.876598911732389 15.912360983086927
Rb 9.216747986909754 12.24174098575916 15.440133455379147
Rb 5.342746302607051 14.393808128155705 16.730589601428253
Rb 19.000511214182282 13.766486781343998 15.955212055546745
Rb 11.522198625844812 19.43174628890838 14.46676986446653
Rb 15.853830948349305 21.468540497260054 15.499038406664177
Rb 16.78338403507885 9.329557772329185 15.995364395970798
Rb 6.006378304449866 9.82942133634388 17.93631759632797
Rb 19.03256043323021 18.369735685450326 17.493125238446755
Rb 9.069028755298701 7.629163188242733 15.632557992180903
Rb 13.795566294298936 13.342572886354132 17.036120111628943
Rb 22.170073898869845 15.04098626851208 19.133348986643455
Rb 13.155987855524437 6.750549637349229 17.525337490969033
Rb 20.02318256747803 10.590511573179946 19.327688200260578
Rb 8.037377334649184 13.27803398044568 20.51929160175563
Rb 17.760804566797983 6.666186273037818 19.286863843913416
Rb 14.076717007989302 18.093454835520394 18.634797749511282
Rb 10.486265725035754 9.896311637928491 19.151795499921157
Rb 17.214931306547932 14.74423624646435 20.244246719727155
Rb 15.165857928772931 10.108202768955186 20.373021960801296
Rb 12.208537460688866 14.116797281486928 21.27052773902592
