5
Energy = -2.56549911 eV
Rb 5.998151730077573 3.522928269824712 1.6668408655896776
Rb 4.189199938259528 8.005019865627657 2.539948276652505
Rb 5.444974437812879 1.7907478741791516 5.97712340158994
Rb 3.286252794126623 5.788746450462571 6.967830078674384
Rb 5.350216536210898 5.161352976393647 5.977123401589939
