6
Energy = -1.2145284 eV
Rb 11.102519333425661 7.764629445468631 5.4535871016066215
Rb 9.870985249692396 12.329064837432272 6.2614950672134855
Rb 9.42121726880877 9.098344189979679 9.218526006535717
Rb 7.778402340683561 12.738668446087026 10.811948467588413
Rb 9.561738422688268 4.977071753953946 10.600782812604441
Rb 7.711666525826065 8.538750468203173 13.100189685576314
