6
Energy = -3.27364306 eV
Rb 3.5580965753318305 6.998079457176017 6.899156927293851
Rb 5.109305316511186 2.888275904761755 5.162789171090457
Rb 7.522409892374549 9.22085427399015 8.074398977362602
Rb 6.836764899225455 4.2940791205807605 9.22526279948985
Rb 8.931659306608054 5.652129963815529 5.200719972083318
Rb 6.189716623132995 9.094533892859728 3.585624765864121
