6
Energy = -3.37209491 eV
Rb 7.422779745127489 11.3046228781015 6.103707887041335
Rb 10.864299155635006 7.901350767248526 5.665965956472345
Rb 7.983007190493054 7.971576323220184 9.321832395365345
Rb 12.372942386480512 6.686722634170413 10.166887043648918
Rb 6.897708660321544 12.237489819061583 10.837545929222387
Rb 9.909285024958935 9.348259741214607 13.354082951266609
