6
Energy = -3.33240411 eV
Rb 6.171760579142501 6.098487448651828 8.602698368403551
Rb 4.837720019060342 4.900316299137218 0.5757203047131747
Rb 10.630885065766092 5.676061097661715 7.711098235920927
Rb 7.839787865376817 4.557046590525413 4.054854119909686
Rb 3.23227754406393 6.594127039101188 4.543896587886826
Rb 1.5966279436584612 6.483020541990912 8.820791400234114
