7
Energy = -4.10333922 eV
Rb 3.8006060555479926 8.057509801946797 8.711341673324249
Rb 9.798150205902907 5.387834659167522 4.839064850433813
Rb 6.228956263051522 8.446675606114587 4.771234184741297
Rb 2.112921964228307 5.786564492113873 4.936256810559159
Rb 5.965453000033069 3.963674089915777 7.336861943730359
Rb 3.315913830129572 1.2621966971590963 4.407763450389476
Rb 6.052888339563296 4.370434312039793 2.2723667452790974
