8
Energy = -4.93010617 eV
Rb 9.903354260824363 7.699895224233679 6.06407165898781
Rb 5.930956306206775 10.029112170332473 6.781150721209939
Rb 9.568718112054325 12.334838897775336 8.126943837829474
Rb 13.149619018922822 9.436838259568944 8.305049504549116
Rb 7.010606046749115 6.309810021904658 9.423914557012427
Rb 10.801920240138609 6.3563028305273 11.157913756609648
Rb 10.629641591073057 10.896672249283712 12.064543469642508
Rb 6.439856647323706 10.3712025696668 11.511084717451977
