8
Energy = -4.9510646 eV
Rb 2.1191160913709477 6.123060607284947 4.562265270626281
Rb 6.4343546497848285 3.9710331343770697 2.393116544324807
Rb 3.8011130013007444 5.699126139981917 8.81372502262309
Rb 8.27144148291831 7.073626415671283 9.625206995850268
Rb 4.72181552135221 8.352895635278013 1.2716755823193917
Rb 6.756416507232073 7.876907617687045 5.371676159192566
Rb 8.422718035609932 3.418455226121414 6.521683604147962
Rb 3.931777597056714 1.9436481102243304 5.899403707541109
