8
Energy = -5.04102154 eV
Rb 9.55852056173398 10.748609385506112 6.275218985051497
Rb 8.93955325000429 6.144683171368228 7.669199519766041
Rb 6.9232682195206 12.676589660631052 9.643357230673622
Rb 13.049546688421898 8.382836210629435 7.7710197850257785
Rb 5.364812470016872 8.792576521200385 7.108501278881995
Rb 10.91059488641277 11.112970799779777 10.932341134792829
Rb 11.022972252873714 6.520982001672449 11.843717348783251
Rb 6.961906138252419 8.351926716449368 11.487819184261395
