8
Energy = -4.95650214 eV
Rb 5.290040767181849 2.086823852777616 3.662105265011521
Rb 3.488622050253658 6.698323054069963 6.708378491231811
Rb 5.218839963329515 3.8059614714438843 8.197080731749493
Rb 4.746361927170281 2.0223539729980753 8.197080731749493
Rb 6.274295432943408 7.275891969741574 2.906440496889147
Rb 8.015304792399851 5.0392267173215455 6.5808698638380925
Rb 1.7947338293214274 5.921193491249659 2.3654805403306645
Rb 0.8209014226713494 2.79932480017176 5.658147521033425
