9
Energy = -5.49104524 eV
Rb 8.57361441789084 6.331009829839618 8.44792218743874
Rb 6.006405352306896 3.768615017590471 11.53966628282697
Rb 8.082606604274261 6.332869992946205 3.6923130875964723
Rb 5.921755535305447 3.123731517917372 6.368407750411397
Rb 3.603238013895998 6.763214259822804 8.852858158036142
Rb 3.115400501314766 6.5382226532503385 4.113803512678984
Rb 10.21904246686143 9.999798321833794 5.876014635086105
Rb 5.5090914337566765 10.017094170162324 6.130492623036029
Rb 5.260298179909506 3.4168967421525482 1.269974268404654
