9
Energy = -5.5600497 eV
Rb 12.678070510445137 7.956755188083539 6.276884815851456
Rb 7.83059010872301 8.815365443928133 6.26441800952903
Rb 10.79852394125602 12.691463406961013 6.291196908437455
Rb 6.9331452462107155 12.454263908691559 8.987007240605209
Rb 6.3203637940872515 8.131284821983956 10.591092736556948
Rb 11.132753793331513 10.057534652800758 10.053689861606092
Rb 9.63970624434441 5.414682965524907 8.845087814755608
Rb 8.388756152047149 11.576873295909447 13.38602633593354
Rb 10.248712348504514 6.872398455066416 13.275218415674392
