9
Energy = -5.57614997 eV
Rb 5.015122066771388 10.154759110816949 7.977196680442382
Rb 12.528919912954729 8.433952189038942 6.754128867859601
Rb 8.015163741500801 7.339882281844412 5.968814453441319
Rb 9.418497218439564 11.644675513478122 7.567899020965824
Rb 10.194069041940255 4.402311106749406 8.747499305959177
Rb 6.8280194029294785 6.7638065869150115 10.695621324414628
Rb 11.126447483039085 8.558113671420593 11.12542224645528
Rb 11.483492292403408 13.627438507401529 11.349579935887757
Rb 7.544505024422934 11.229297216736256 11.968074348974973
