9
Energy = -4.3240048 eV
Rb 9.357176569524357 10.704855258922121 3.3520190546479007
Rb 7.210778484580041 7.4867280814876205 6.124615656338301
Rb 11.309797389293717 9.404956707749227 7.51033822615693
Rb 7.500161175457818 12.193953569734834 7.4846835497142585
Rb 9.291433130401854 5.6223626046047 9.714993270723022
Rb 5.912052201846299 8.86761699206869 10.435714720475866
Rb 9.611199490414533 11.613178293790794 11.47456943593543
Rb 12.798935820527456 8.149572997047418 11.60042677437927
Rb 8.711701090928772 7.660010847569141 14.005874664602965
