14
Energy = -134.789721 eV
Re 6.924849508199299 3.0916438843444816 5.113934198630762
Re 7.039726255373698 5.285010544934961 4.243101200755486
Re 6.59682085115506 9.087233873434533 5.875119297401847
Re 7.666974450130785 6.867204221114918 6.035860139443492
Re 7.645613121991583 4.5178887105812695 6.967684812825646
Re 5.968040342442258 7.55027634615615 3.981619826747982
Re 9.161135940455157 6.225450083437419 8.09951468127396
Re 7.35692725513343 5.3779927919475705 9.261522331789998
Re 5.050971327880085 4.515084687858591 5.591975864614257
Re 6.1279449213984805 9.909727170619906 8.038558960345116
Re 7.251949095144239 7.7600648421064005 8.371605780317722
Re 5.6580679439221075 6.04642349852393 7.391006800161186
Re 4.618479137006148 8.244866297725077 7.19754815475215
Re 4.154607380984625 6.834366343960183 5.14813651057893
