12
Energy = -114.24731332 eV
Re 8.769429258875816 7.483889435355194 8.146967696779996
Re 7.224820643314632 7.456664879444101 9.939562662118234
Re 8.095147060400675 5.305539782158606 7.4914380920128005
Re 5.933503715020418 7.993128913269999 8.072900576142484
Re 6.415788359392409 5.376450567516514 9.138250224834223
Re 5.519651412170078 5.781341959774624 6.838670411247687
Re 7.198373879062349 5.043800923388607 4.93636488135732
Re 7.374426904975022 7.416700636958772 6.092578808447297
Re 4.893534438322792 7.9439580362865625 5.794490561296561
Re 7.301989368295895 7.015982776893019 3.667886941070586
Re 4.870247933296358 4.794576178064728 4.712965031827628
Re 4.94891012120134 6.919883147735731 3.6753219232114
