10
Energy = -93.21202709 eV
Re 5.9062231658685835 7.687271728673471 3.7265071701290093
Re 5.296576082417816 5.027527681500298 4.076122777410078
Re 5.188242117205759 2.9818951581666253 5.245467675153393
Re 7.2000723609327 6.239083503182355 5.010449589801108
Re 3.5067510298504985 6.808342997803629 4.702651554688594
Re 4.062353322646465 5.069498351689744 6.193695327157537
Re 7.333472201489007 3.7845559484591025 5.882147175576822
Re 5.101727664989173 8.05423091317172 5.8811502193319045
Re 6.121760308811696 6.057679132095689 7.11931667786771
Re 5.760574846199051 3.7676676856682607 7.640244933294754
