11
Energy = -102.54946663 eV
Re 6.8912223085864115 6.953686307181577 8.215381801941998
Re 5.150789499841079 5.55056526163745 8.510666030286782
Re 4.065358445474196 7.1378005562669875 7.32537133301576
Re 7.896057936031807 5.037556922280682 7.5801639433284995
Re 8.516770569914103 6.306704651562151 5.817539012317862
Re 5.940902947305668 6.155754519369292 5.850867161725694
Re 3.9320250617310792 6.78696170666833 4.3653257275930315
Re 3.285378828193719 5.423260619341279 6.047633792919232
Re 6.756272428183876 6.2602899848118225 3.4086444802472853
Re 7.783274508861407 4.583988807607939 4.523409569663687
Re 4.933466071533383 4.941164554487909 3.5455182914445684
