15
Energy = -146.85515135 eV
Re 7.375670421615504 6.211911420369717 8.934105556524106
Re 5.331483800895762 5.527364500070995 10.017637044170808
Re 4.645402722666515 7.539420896992569 8.985795833734592
Re 5.53316744378622 4.925032057204061 7.695245701973938
Re 4.724269421001049 6.921018067611259 6.586411903573388
Re 6.737101634133659 8.322083037419253 7.945888620514736
Re 9.207796979920003 7.830236228591239 7.242017645144244
Re 9.17392090806918 5.556554671868153 7.600374870866992
Re 7.270812785139893 6.5418135746780965 6.07855031696402
Re 6.826426965739682 6.5398212561046245 3.5677150782596967
Re 5.363911554568798 5.163115060590967 4.743267701914422
Re 6.8710061738638215 3.986528498366183 6.016668721900404
Re 5.4730476619237045 8.14473709752136 4.5473839767947615
Re 7.14355024133059 9.362141782296858 5.699168373132527
Re 8.952726689814426 8.161401683434963 4.943921335119865
