15
Energy = -145.87490591 eV
Re 9.601813989671786 7.899843331744275 7.8734750473412936
Re 8.15078434229176 5.9816766618566755 7.995332457505189
Re 8.143068509098525 7.622612276193017 5.899138348027779
Re 8.924589136244467 3.870090546269659 7.135378173360708
Re 7.564711137773863 7.019059448592893 3.5472509457319865
Re 7.3512894853465784 8.60854487094901 8.240852177954501
Re 7.783386912878518 5.268986939383813 5.247896018978315
Re 6.575497154307969 4.086860658512154 7.156804377824171
Re 5.5868398251107365 6.4903414681689195 7.905166109345344
Re 5.417805322545274 5.721106319171221 5.2795684998089145
Re 5.199268337696818 8.059890267257318 9.584178387117902
Re 5.802150112706356 8.275032819022762 6.080614185510239
Re 5.296211398785613 7.566014378903503 3.7837754775563024
Re 4.2435209831304865 4.5378806669011444 7.012013125388556
Re 5.185260451137564 9.715757600947674 8.035579534332438
