11
Energy = -103.86064434 eV
Re 8.549726858474084 5.3679603101752065 5.113930694514912
Re 6.598218750084415 6.410742786771056 4.220052525400353
Re 6.810002059678777 5.312394296669599 6.821507595619407
Re 6.063752395005382 5.079717993821589 9.217462119245406
Re 6.837177647145841 8.72233353633234 4.563192116006036
Re 6.831577753474366 7.3024484107586565 8.484522375685028
Re 8.143997431345806 7.542630556402855 6.228482927092834
Re 4.3002938027565145 5.975368552484182 8.147110687054068
Re 5.547572186257746 7.578592087457524 6.356415167281261
Re 4.686121980463222 5.38290544900017 5.796091230418112
Re 8.8074088328295 8.542728800332057 8.256524705137773
