12
Energy = -114.35894126 eV
Re 8.643306386009158 8.381515731475389 5.443430078166814
Re 4.507627493675946 7.219793933509343 6.65023183900397
Re 4.77191065001266 5.037074428517539 7.681306938463545
Re 7.700172231902794 6.56604811186075 4.246638102281739
Re 9.067152047774126 6.492536269011382 6.8061588940410145
Re 6.878388827718201 5.313564987103061 6.330728103545687
Re 5.241959690763311 6.033002371041144 4.620228568929379
Re 7.15521576861281 5.627191150200985 8.818582713679385
Re 6.8618947500908565 7.721583464531132 7.2459169729423465
Re 5.09119798679421 6.866321437429418 9.084902693874776
Re 6.017351158746661 8.275883743459488 4.82409101669202
Re 8.806215458341049 7.2078768284495505 8.99017653804211
