14
Energy = -134.96433894 eV
Re 3.9187425257458273 7.547701866060851 5.115810145528765
Re 6.32742364528191 7.463695133132606 5.4234715909234446
Re 7.907237440164537 9.458096168151096 5.620836408930248
Re 4.035394281816972 5.20149386354974 5.403041714318286
Re 8.907772538578158 7.323153969533886 5.406097985677186
Re 5.5269943194122115 3.456358234059187 5.147017625367332
Re 4.731406521528421 7.193532956671026 7.368873153469993
Re 7.243254055169266 8.336236131671523 7.632061199616888
Re 5.665101989349776 8.090652185179136 9.476390770351736
Re 7.210942611120506 5.112225816447238 5.061114923088371
Re 6.545251577230704 5.947938544219389 9.4410185169066
Re 7.966481086911927 6.048621279680603 7.392667623202984
Re 5.719249038996564 4.991461871885485 7.311653679490532
Re 9.549819705555903 5.076029442925744 5.437995960688697
