12
Energy = -113.54536804 eV
Re 10.594832874527684 7.9087260718626435 7.736303346520559
Re 8.387091017885771 10.09661423911728 11.33419803811463
Re 6.749768560390714 10.114629441845375 7.256924078908597
Re 8.773552000005918 7.360835855753719 9.211249797301251
Re 8.892701781076875 10.890444659873477 8.572769135648432
Re 8.801796244497465 7.897415005028135 11.838979973527152
Re 9.208066944775986 9.605622759847035 6.564215837418549
Re 7.1959579330342525 9.278374918982566 9.469357159073402
Re 11.208866287773125 10.3052140668954 7.879655058879595
Re 7.561799359082749 7.913895283435738 7.155402837555851
Re 10.397282434331858 9.256699886654207 9.905195811536224
Re 10.87714714653968 8.619172574810126 12.183813088697109
