11
Energy = -104.14216352 eV
Re 7.216592123748161 9.521094397539123 10.683630015284036
Re 8.875197779611097 11.082847071162957 11.136439736846704
Re 8.533706503312356 7.647147244137516 9.831396370808566
Re 11.616349527796665 9.628676592179554 9.129594679524574
Re 8.973183387814265 9.91898136046247 8.8112554563594
Re 10.417777048215775 7.858997252332993 8.257291114523946
Re 9.38222462504664 7.225104195575505 6.168764154556543
Re 8.324730872864679 9.311725434453786 6.474093334916441
Re 10.26409222051329 9.221374707843697 10.953442533228424
Re 6.773010350833231 8.779625111342769 8.1999490961758
Re 7.726816112729156 6.6136878922965945 7.719270344703163
