10
Energy = -92.2486065 eV
Re 5.815371737110128 3.1896875399764455 3.570259184006583
Re 6.875891057083592 6.0335969398828695 6.654795580019267
Re 4.846637190864516 4.253724879280288 6.464735013166498
Re 6.701773657424191 8.082157007725794 5.489350246786785
Re 5.011394880974866 6.251711034338232 8.173155466508886
Re 4.628468370571452 6.596988580825195 5.649554237130332
Re 6.98556306311127 3.7158036550070044 5.463420951077181
Re 4.1332579853292835 4.631018537392239 4.119682825071396
Re 5.218284316663465 8.43222617550798 7.325287422877668
Re 6.420102729715218 5.808521594573069 4.135256177044134
