11
Energy = -103.04680307 eV
Re 7.8503297166198625 5.559565926140458 5.510888123722971
Re 7.96786414502528 4.4963670618346105 7.633054842248597
Re 6.242365874747259 6.351318769798006 3.884196305990788
Re 8.25159808313239 6.9236347195230294 7.65903653673508
Re 5.919508048988905 5.510536547423967 8.550159789876263
Re 5.371258870479968 5.853461032446946 6.024447025649119
Re 7.002845140896358 8.027284424444076 5.585131434121664
Re 8.909031154334977 9.156567067049517 6.330648792971235
Re 5.8230560698892075 7.816116644394757 7.704290898678361
Re 7.803075894139018 9.298744367264671 8.240211622769436
Re 3.826095288733514 5.982708623301069 7.847081735852461
