10
Energy = -93.49798703 eV
Re 8.283918104935546 7.813303850352696 5.701810138635738
Re 8.572920240693957 8.773943943999951 8.124613121100989
Re 6.407862738714831 8.967404213489582 8.749817274141572
Re 6.1307741509073015 8.565067821133217 6.500084759463299
Re 6.461438757051662 6.051901257128881 5.043367906190076
Re 8.228031195023565 6.717145713896732 9.142631053563607
Re 4.493087048966579 6.943151919160783 5.8524071458121645
Re 6.153577716294423 6.264639390773159 7.622779479360434
Re 8.58601745509668 5.8535067648012316 7.022488093766857
Re 6.843834208317172 4.231048249060401 6.426164811778023
