15
Energy = -146.7442918 eV
Re 6.101538100177555 6.240283457229706 6.401939581459176
Re 8.816342080827274 6.370220223577967 6.410311693634604
Re 3.3996047060964867 6.492184939025726 6.389896323999072
Re 7.66456909797973 8.474078859079915 6.396219720287844
Re 4.652517186495305 8.499166766227564 6.388569390573285
Re 7.298965688211087 3.82495938787714 6.418640104823395
Re 4.945993049430879 3.7828481094999105 6.413644359654123
Re 6.068904337006617 7.874352146931303 8.302209066256923
Re 8.48082051996035 7.577752208325103 8.62317812017498
Re 7.433199881974424 5.38768342168769 8.333455380917375
Re 4.574167630782906 5.383219689895536 8.173212227554934
Re 6.07952256511752 7.858994980004455 4.489843577957579
Re 8.492889867295819 7.550393518172087 4.1826871761017665
Re 7.441241110719216 5.367874285856417 4.486453594909997
Re 4.590146339569412 5.356410196128815 4.630161843339
