12
Energy = -112.86940896 eV
Re 4.681370067014464 7.146753561358435 2.2383603116756956
Re 4.132266251441906 4.838478932884353 2.424232671187673
Re 6.668410773924629 6.8692815208980464 3.4008598895368287
Re 4.172428117077001 6.4780116265181205 4.5474639755863615
Re 3.33936611348066 4.303786369983666 4.874007265041017
Re 5.90428639645338 4.641353518483075 4.0040550135961945
Re 7.481072867419537 4.473117279855044 6.845447498163616
Re 5.341872700992391 3.44919220154138 6.146308732830931
Re 6.255214269385383 6.450119148057699 5.881545646752508
Re 4.200192029101349 5.444364108584201 7.055335202866358
Re 5.4364913099638095 4.098906625080918 8.566196672025011
Re 6.677629110715241 6.097235113724657 8.306787127707254
