15
Energy = -145.43280719 eV
Re 4.060539787704873 5.082348890415862 2.4694130461676678
Re 5.065658906768843 7.225483237683459 3.3637653812292467
Re 8.420832095559772 5.016511635741337 4.783073791384541
Re 2.743866525744543 6.394861347787526 3.9258401325143844
Re 6.05849887539986 5.073257735545568 4.058140753374094
Re 7.190816042700158 7.175229014565074 5.252087732471731
Re 2.7522137682652743 3.9000500309321198 4.203042904534547
Re 4.916905503415671 2.8956783388941334 4.37507711458339
Re 4.6658646514424 6.620284115689179 5.700139675586194
Re 4.414326013871769 3.0176719541611416 6.742156630492849
Re 6.812150498376874 3.6907669209457667 6.114174220550792
Re 7.860970570929681 5.801738105206592 7.0977423465582685
Re 2.9863027439597047 4.909617361402723 6.372412615810908
Re 6.067910565523505 7.579310788267893 7.46408857329049
Re 5.509348082187409 5.143395154611821 7.605049713301389
