15
Energy = -146.1447373 eV
Re 9.798631516144347 5.430840490814853 7.558557631580965
Re 8.279250552952366 6.418095577596026 9.015555115941083
Re 7.270373853123384 7.667911140667011 7.196599553325647
Re 5.638141360919199 7.253550901179895 9.209367575845809
Re 9.062283044668302 6.712019186673539 5.552885664938785
Re 8.666516963803488 8.95216236092915 5.354605234471434
Re 6.449954868710808 5.140188826109063 7.958201730538083
Re 8.140042351614014 4.065713666822078 6.628798282600683
Re 4.87991792354365 8.085103299544615 6.953992054672228
Re 6.552449069708836 8.150228904498986 4.722472486728056
Re 4.101667220424025 5.898494926503964 7.735565640269267
Re 6.779122140494329 5.749428290117932 5.361814612322053
Re 4.240819508452937 8.766968960883151 4.584488127674659
Re 4.348700299241193 6.439756709209754 5.070289493549037
Re 4.807020862713712 4.253446617243497 6.106374606896771
