10
Energy = -94.50032469 eV
Re 8.93195218179031 6.275031336233971 7.452104963741325
Re 8.538049316319217 7.970631079530793 5.6505239757948305
Re 8.145753331824848 5.623229066659399 5.269418669446877
Re 7.17808402552043 7.9174763341133945 7.639891540590991
Re 6.531288498673536 5.488847651631997 7.234139720553437
Re 4.524124782520788 7.0467049762260014 7.400336069241299
Re 6.13844696947365 7.181096410678095 5.435957696465598
Re 5.491824177539841 4.752392746860494 5.030349406761043
Re 3.738319974822507 6.395143432081458 5.217208297974685
Re 4.132100706676088 4.699390931145501 7.020013624591008
