15
Energy = -144.57358878 eV
Re 7.520940619040867 5.95739163232113 3.626115335277348
Re 5.356651611288634 5.222601155497069 2.1366045216092675
Re 7.416337222612489 3.898722223592524 2.4001968097016237
Re 5.125159066957055 6.281117624035128 4.488862993393573
Re 5.272777006559679 2.947089453687887 3.1450412056868178
Re 7.427496569324363 3.4085794150001987 4.7480336579650055
Re 3.476475955909555 4.623873035838211 3.675541763540241
Re 2.77317991024364 6.690435944476634 5.466058821632441
Re 2.709224059264779 4.50575776760701 6.432661721031645
Re 5.036554210351345 3.9761814882748294 5.495585238780524
Re 6.953284814128354 5.51296122682034 6.034062383493305
Re 4.8742690456589886 7.788565903181043 6.546559742985868
Re 4.782666353082512 4.456637687716722 8.00436351131998
Re 3.2792980947956782 6.39877085941997 7.814936430940943
Re 6.109315841387911 6.444944963137462 8.099006243247556
