10
Energy = -91.94461118 eV
Re 4.696345821172402 4.7777742168347785 5.69239031234703
Re 7.096664644721246 5.136987091480593 5.734431610758152
Re 5.649215248238847 7.2381476170887 5.280900073051608
Re 8.01929780237839 7.440115211170786 4.742815415300923
Re 7.23261077861983 9.51795278742602 5.535587821515735
Re 5.61527101225166 3.3661593731348276 7.345225029509383
Re 7.326460322744595 4.789086560530445 8.127875967236859
Re 5.362350214663591 6.134437922543124 7.603839669518143
Re 7.654595130096059 7.248157940990024 7.13701526618417
Re 5.740821953657539 8.744814123828819 7.1935517213638045
