14
Energy = -135.56757855 eV
Re 9.373419251041305 4.865732203145089 6.483192327598602
Re 8.511497753229856 6.14560998979908 8.245810708819732
Re 7.114177115383303 4.515790932360175 4.356582226754226
Re 8.380428153972312 6.53206877632335 5.182243724880735
Re 6.625335759978308 5.225115247072424 9.42315184975862
Re 6.768531760371616 5.063441263117904 6.744359417859028
Re 6.938457195582135 6.669697237888139 3.1961572060021486
Re 5.085965701357632 5.72475835887362 4.943320035931362
Re 6.117493541392246 7.439053582435416 9.414422450520917
Re 6.942007116710696 7.64854137568145 7.01352260473347
Re 4.78719082663444 6.416138378401429 7.694276054274066
Re 5.857766148959342 8.068756389367275 4.838118805468533
Re 3.3395160578082517 7.179678444397769 5.882026777698247
Re 4.648441221091667 8.868503105020975 6.841300785478478
