11
Energy = -102.64091586 eV
Re 6.882215529453702 3.3384976454453 4.769370910884944
Re 6.082530357484855 5.399597227491542 3.708952367360992
Re 3.8481604369550357 6.48063546525882 3.6346268461172
Re 6.606040468875732 7.236419651483052 5.224908605842047
Re 3.9912367666023254 4.088961084007547 3.3719794150351534
Re 2.7265686226869446 4.9996503924172515 5.304144429975296
Re 4.232821762988615 6.818184789067987 6.109817282139173
Re 4.472805812042619 3.2100971527811697 5.667814078191702
Re 8.221898717130744 5.371812681461838 5.073295114549065
Re 5.933337789816186 5.064736579449537 6.354807153523483
Re 3.7714110374699676 4.760434632642538 7.54931109788781
