10
Energy = -92.61710099 eV
Re 5.636134392443289 5.245059204136341 7.947544044700723
Re 6.986338882077134 4.844885523938471 4.743551962897096
Re 4.848457164089201 5.528928089444728 5.62661466238626
Re 7.768210491994243 4.569594517968854 6.998647369290913
Re 3.4543129641473045 5.885510895189338 7.454358458742162
Re 5.528075801488486 7.559725966907657 6.946391010462703
Re 7.830382896279386 6.859630740072454 7.60178863272606
Re 7.144620852533768 7.1699603706928245 5.140437985835814
Re 8.905060103489571 8.569020491388052 5.780258183398434
Re 7.383439457258968 9.267039031640152 7.242562464228412
