10
Energy = -93.262858 eV
Re 5.829113046699882 8.226268344719138 5.101986539768417
Re 3.901132365161204 6.884609818333279 5.211388113095689
Re 3.7643287481616907 6.299687479463286 7.52720364392462
Re 6.095808751655124 5.8092447129322515 4.563141334026598
Re 6.156404682955012 6.713800038166845 6.91262913775587
Re 4.040911310076008 4.47570934937546 3.9200178122367193
Re 8.140545304970502 5.651147330441611 6.205838608234408
Re 4.601715156666539 4.472023215823863 6.199839912404132
Re 6.871707970437829 3.676823631906416 6.025591441094251
Re 6.126500081443243 3.3193861564572966 3.8217543017747735
