13
Energy = -123.36325171 eV
Re 8.692365984637156 6.514994747385077 6.02635359251964
Re 7.6553592666691115 4.188611012200408 5.38033230169528
Re 7.9969446739261825 5.188564669608939 8.015286198088782
Re 7.7122053267340815 7.599429230909351 8.053930582822344
Re 6.26329053243426 6.242165642915998 5.297131178116632
Re 7.148157989386301 8.561074425860363 5.445729971828103
Re 5.379434484067513 7.787603521891758 7.098106114551765
Re 5.7647025825869695 4.487169231449135 7.050917133608606
Re 4.857139119994104 8.387940811833323 4.7381082383584205
Re 4.091895921824669 6.00885057048086 4.034856906432453
Re 5.988591363593607 6.159838964727294 9.00434838606113
Re 3.867109255713833 5.94957289697717 6.313622364739397
Re 5.384336582269521 3.8494132539086294 4.678787481768033
