12
Energy = -113.01902888 eV
Re 5.194501658555644 5.196947548396428 4.10862126425771
Re 5.499086703911389 5.498815872176242 6.517601978223285
Re 5.192018021120517 5.182910268516059 8.894139023674981
Re 7.549336596182762 5.455752975111187 4.112020099970408
Re 7.904384455301027 5.112182253599412 6.512160337332463
Re 7.563697080373747 5.456726161095133 8.89355737829294
Re 5.451145147847234 7.552286317186019 4.115800991628874
Re 5.105543561133439 7.902095935530922 6.517266373972582
Re 5.4629967521953064 7.555476075097858 8.897120746497853
Re 7.8052167439342846 7.8114758466521454 4.101981881084144
Re 7.509434575891006 7.516562772951233 6.513389537794671
Re 7.834009511962795 7.830138781205371 8.887711195679108
