11
Energy = -101.83129558 eV
Re 7.884584915178554 7.45683838767863 13.062697254043057
Re 6.948879060402385 8.450793508879903 8.383971797484966
Re 8.454851697826289 6.766840323485669 9.047796375912254
Re 10.223489873748967 8.583304409602661 6.369509037362405
Re 10.171577184692998 8.381809245759435 8.706666216391653
Re 7.440738431500905 8.703601278751348 6.085884963012267
Re 7.594509892305083 10.463959869699282 9.947386598345394
Re 9.81138698526943 10.097224794600576 10.41205244420109
Re 8.620236284122493 10.102695637283203 7.76052236250121
Re 8.7829427082672 6.793301344449678 6.464293154332066
Re 8.219192430897293 8.209589030663373 11.043510712286821
