10
Energy = -93.82859128 eV
Re 7.820559167023665 7.179534430843117 5.851776516596134
Re 7.819909502699951 9.207464500967676 7.419703298612978
Re 7.491009414472762 5.144807398479067 4.361825634376762
Re 7.609428261942369 4.902182618362329 6.895382577604179
Re 6.729051988333973 6.969044507279343 8.02512635818958
Re 5.876412683329482 8.7958876644916 6.4022316911380805
Re 5.718024360985039 6.763216025504535 4.6612170384718015
Re 5.5039416097259695 4.7614274933211735 8.322508437665531
Re 5.532008689982524 4.570214456878657 5.8206327760536105
Re 4.551423236100395 6.537607566771381 6.983539935951604
