13
Energy = -125.54732082 eV
Re 7.667111206447598 8.68214681807272 5.678111994389649
Re 8.598278767413337 6.426296136833209 5.043570591534587
Re 6.719612492161652 10.615889659975313 6.736410807446311
Re 5.655407409138389 8.29296881169836 7.00606761297758
Re 6.143118936222566 6.577376171845113 5.383058670915196
Re 9.016455185621371 7.227063545936638 7.332633456874057
Re 7.932575913120516 9.354606755656432 8.38291385805789
Re 7.3457838440145045 5.291754759698258 7.0078692512907965
Re 10.167502999325194 8.42389413934962 9.376756556116652
Re 5.043848720808348 5.962956431589441 7.652206015105503
Re 9.198658242557672 6.304008123489612 9.589502019669274
Re 6.895487684470612 7.047819393950095 8.83908178338789
Re 8.236276843854624 8.47386213011741 10.623530947414574
