13
Energy = -123.31406527 eV
Re 6.996766201913562 5.7511178047389055 3.6471176522676982
Re 8.919602004130569 5.063536740660323 7.0804788457425945
Re 3.0497202540877257 3.7964101785551274 7.731579245648029
Re 6.756418169944972 8.392281016766997 6.621997436183197
Re 5.116950389396552 6.586323115441108 5.422678973342722
Re 4.432557334264784 8.115491895463714 7.244034300235409
Re 4.722743429974599 4.91928313421341 3.63790242284567
Re 8.582485895543963 6.791775052254617 5.5187937966487235
Re 4.566156268097487 4.058854081067312 5.8873625272871175
Re 6.801315235604048 8.087696950815234 4.22575344820024
Re 6.796983119900561 6.22286140374803 7.570718345524948
Re 4.412181835584044 5.774738213130355 7.822613431493102
Re 6.946830776861435 4.553078272394116 5.689697376179155
