15
Energy = -144.36693089 eV
Re 8.725102959616182 5.3417321093889685 8.084875524968293
Re 9.069573535459558 6.604613641530519 6.0810019938727615
Re 6.032134029213547 4.952003250828543 3.588528622570635
Re 6.344963386716063 5.450193627359721 8.28353864891992
Re 7.7796682071957965 7.560627197407669 9.099126032388
Re 8.663515135368609 8.641280248271276 7.262873785963692
Re 8.57226739680743 5.14454287180471 4.120813422798507
Re 7.073592160737392 7.025595939032766 4.228739925956234
Re 6.879238116393956 4.952703720047008 5.9081797745508355
Re 5.999526588629265 9.084395538710512 8.727908544478794
Re 4.435405855628119 7.327743829651738 8.401708311608452
Re 6.520315577051889 7.526677157717994 6.7387798578790274
Re 4.270080655921123 5.03558770569996 7.168971552983105
Re 4.595937623572434 6.272670136973051 5.144598559075296
Re 4.213109632414145 8.314924229420882 6.326075252002937
