15
Energy = -144.21130494 eV
Re 4.942500060224953 4.884161985151395 2.310212518536181
Re 4.748808208441375 7.46885896283303 2.398682681981328
Re 6.317892736756955 6.318824354394515 3.893445651108187
Re 3.7622336761303057 6.0807956689551474 4.193315709978097
Re 6.630070168009644 3.79604642476993 3.9474578019794535
Re 4.198205765271283 3.6466910341695518 4.443261829897837
Re 4.962108327961412 8.24238344184724 4.842586048855527
Re 8.142403843474641 5.235149839191321 5.410813965788545
Re 6.12866597376794 2.5743388179216566 5.984320157687982
Re 4.122335091840642 3.228910016389141 7.113301778757175
Re 6.395727602826548 6.681152645651251 6.3503694642187645
Re 5.0610077950426104 5.195303255033067 8.138831677119297
Re 2.5929229363331148 4.690231506431759 6.045792463912696
Re 3.9141863516287434 6.738976464009157 6.654488921114153
Re 7.14247833172709 4.27972245268921 7.334666198502456
