15
Energy = -144.35995222 eV
Re 6.615623236668409 4.816097762346246 9.371276304835106
Re 5.203601789700084 4.373703956537365 7.481077226882583
Re 8.350174981974865 5.569517733494826 8.03318952972051
Re 9.24773344263293 4.6942083921118085 5.594535513357522
Re 5.992943199377365 6.859705806003002 8.14574125858381
Re 6.93906416064414 5.077298138015626 6.027158694125863
Re 4.290665143857419 6.09030221869177 5.747549425913521
Re 7.042752980044433 8.859130195975931 6.818847421935134
Re 8.344356099799956 7.968581442195465 8.64803648113553
Re 9.04345420460241 7.383062802228169 6.350114370535664
Re 4.467151961281028 8.394003786813267 6.44751795118891
Re 8.76005310821217 6.4599380273278415 4.154245692770815
Re 6.533212274246078 7.210359768247139 4.9209399181491085
Re 5.2805950086119475 9.134546880895495 8.519480459754268
Re 4.217935486842156 7.503051143083898 4.016396320225506
