11
Energy = -101.38526844 eV
Re 6.33150293707524 8.920101986112385 7.005594446080911
Re 4.231294934116925 7.273752087054079 6.718398414968725
Re 8.433927529982574 7.5111371387183725 7.199975192258861
Re 5.060150766670778 4.994199761702275 6.7273519480308295
Re 7.705108134469435 5.090579569464546 7.044528986430573
Re 6.456180945186969 6.787174159251845 5.628545819044835
Re 6.158147862269009 6.707489495520846 8.237112176968015
Re 7.513075731537688 8.514808667081631 9.342481863803998
Re 8.373057916220892 6.224799936751367 9.35580292966885
Re 8.022136789636207 8.6606429639858 4.971728805452147
Re 8.856661915790603 6.37875437420361 4.994239257102285
