12
Energy = -114.62004721 eV
Re 5.532045710687659 9.046519739358695 6.544281694304249
Re 5.466913143869522 3.8159017630070795 6.5408021210915095
Re 5.512428242369944 6.3598031956006995 6.787500494595707
Re 7.5679901687065 5.094880427685776 5.999205372009396
Re 7.507172396839906 7.769884486796143 6.030898948823136
Re 4.055726290737028 5.181942192050687 5.113476762907453
Re 4.200261403953387 7.857817606688608 4.9607965542375965
Re 7.104153569928002 5.276824756532469 8.468743708222327
Re 6.877268005489636 7.689635477991928 8.430558281380371
Re 6.026783519983307 6.444742418105001 4.284133670162109
Re 6.145476354573234 3.9596703539862705 4.245791585597172
Re 8.97834143637789 6.476937622460762 7.568370948559159
