15
Energy = -144.68553 eV
Re 7.823730524114716 8.203590091915954 5.823009105958461
Re 5.4535614208999235 7.276749572112466 5.473260421279905
Re 7.255399410064056 6.173288605935093 10.004908372470965
Re 3.0138361483474014 6.697448564445447 5.48907881707327
Re 4.185578048062707 5.98932582465997 7.4534619842571646
Re 6.153609985812804 7.7615942603848875 7.964275841495051
Re 5.249422003921066 4.64681566677681 5.661001962043886
Re 10.033228809628957 6.154791147809347 6.1743971391811945
Re 6.471656441877842 5.192065196944923 8.06046355398306
Re 8.509846512528267 6.94651558187066 7.846161800342992
Re 7.642938210627242 5.570054964108009 5.721707667676204
Re 4.316201682399462 5.585237610615413 3.789514847470946
Re 4.998381019148095 6.8798170543546044 9.768178818564888
Re 9.08921685067262 7.185895013906764 4.200151329330683
Re 6.7445026481713235 6.390831011408454 3.598270940287717
