13
Energy = -123.94768422 eV
Re 5.433208971176502 8.311553368447541 5.000079960965069
Re 7.962078445396107 7.828242399695672 5.769074255872634
Re 4.010278618253117 6.47328491527632 4.190734305678899
Re 10.172352640332495 7.004929238384416 6.469878273731672
Re 6.460356928538969 6.082720422320529 4.751858355249155
Re 3.4328761644134973 7.21865366074445 6.479989820616398
Re 8.153541848361558 6.00547554438811 7.567472890609295
Re 5.857384241161514 7.1812114961744475 7.111661117431727
Re 4.530607221385761 5.114968558617137 6.17463294847404
Re 3.9322277716362883 6.268045612602379 8.644661813948051
Re 9.021883879950547 5.519505905346232 5.179088084163296
Re 7.138100737385432 4.176911839247478 6.380512144333824
Re 5.837785205884115 4.826742541363547 8.304702921829133
