13
Energy = -124.07932314 eV
Re 7.500665450133955 8.132138617940852 5.135987051965714
Re 6.283614906608428 6.585868315070754 6.491436740073547
Re 5.958765353728863 8.221862016290212 8.328093624242513
Re 9.33819744649148 8.548861804660946 6.948663648113862
Re 10.688079058014498 9.199294109505507 9.013305637679093
Re 9.495524864929557 7.722606195155556 10.504286568926744
Re 8.078514216382333 6.96475663450225 8.586758646838321
Re 7.8418966890031685 9.336542967475 9.741150993217083
Re 8.728239855014833 6.229683173481903 6.373512423485868
Re 5.658589881356325 9.280200699172827 10.488980738687513
Re 10.551327828586611 6.85198763649553 8.273367394823017
Re 7.164481051967997 9.725454934000345 6.833522777407919
Re 8.992112104847335 10.83850288835357 8.213503348367595
