15
Energy = -146.73942288 eV
Re 5.596448226331926 8.733693351896644 7.030565115440204
Re 5.470935783859536 3.454272914391724 6.973717969192583
Re 5.499578935258997 6.0063871205287995 6.98621605821337
Re 7.515741121079776 4.688007610560296 6.262245530658669
Re 7.574502075889848 7.372650806497196 6.247145129278491
Re 4.065644907261253 4.698449622434456 5.330205060540533
Re 4.147592357789759 7.482416014828864 5.281570796046363
Re 7.099563232063229 4.870308926420698 8.735367408143563
Re 7.034894644935379 7.462207837142872 8.713485104439787
Re 6.0333712803376685 6.00045889442684 4.529265188928011
Re 6.096499323320666 8.589467552447676 4.516489924337386
Re 6.018240215958759 3.467187154759441 4.621539577997958
Re 9.00259864841793 6.0145026553031 7.913967320138922
Re 8.87943576627741 8.77502309457687 7.998009670889499
Re 7.541299484694562 9.961312447261482 6.436556149231901
