12
Energy = -114.53392956 eV
Re 7.771182222390803 11.751858711929907 7.460325213339472
Re 6.38169444369865 7.326699686502216 7.262257124319142
Re 8.224329328694177 10.241333491517477 9.543189777570296
Re 7.707718231629929 9.365927122814501 7.122547787283796
Re 9.922622353545997 11.216975313682578 7.6686984688582855
Re 10.414588668995286 9.180028340691848 9.70185470005698
Re 7.084484085092795 8.139816906161442 9.545037940510477
Re 11.093438645615835 6.9652142960062795 8.575274325708035
Re 8.218851785072127 8.951265308662512 11.607987443548375
Re 8.661010787849058 6.810739818796171 7.802907349419032
Re 10.06406921474471 8.777858038455177 7.287695807279489
Re 9.208438499942595 7.143593720008609 10.214454155585463
