15
Energy = -146.41941929 eV
Re 6.676705372216102 8.211011610796001 4.52567373664406
Re 6.359449870249753 8.82586723295176 7.805323419710913
Re 4.718343044229697 8.096895707431052 5.794941420364013
Re 8.362359878806894 8.567592504064258 6.233081826912455
Re 9.151546794139598 7.155892570127213 4.348215575576927
Re 7.138293905792612 5.7610020527347165 4.3380193882284575
Re 4.7376430544078945 5.851979825094163 4.862359201457887
Re 4.788325405077794 6.547847796009525 8.471914319977888
Re 6.5657354080854 6.605326045865601 6.6611609319063785
Re 9.004144507787307 6.054428994237158 6.468249755457618
Re 4.766173090975876 4.64402976314809 6.912895078471466
Re 8.310825910482569 7.290032842840615 8.596836398984589
Re 6.290555811352633 7.7852288655509785 9.958337791306581
Re 6.915888008817142 5.344931024998754 8.994410595078882
Re 7.147407312240828 4.166811872971797 6.988258640022922
