13
Energy = -123.49476152 eV
Re 9.246846931890358 5.0499167047076305 7.506443770881149
Re 8.770246817178815 6.077994289044084 5.391989339346293
Re 8.030519518222528 6.7770196419643645 8.557330834484743
Re 7.583641574615907 7.526033471430558 3.8793603536009433
Re 7.167102928011247 4.0646978661563935 6.8221522335108
Re 7.523845517931774 7.934958853083543 6.453590700782102
Re 5.905730511801363 8.260193791243077 8.273806396755607
Re 5.844203923513323 5.823760827407226 7.970079752762014
Re 5.584024876433767 8.318981230028957 4.959123262571087
Re 6.222422823891065 5.86853908514425 5.287439859320304
Re 4.794730243858129 4.050179346133424 6.386737566797035
Re 4.103913644572389 8.683310253876504 6.811418269226386
Re 3.9775804149565954 6.3150060821719665 6.415207515012583
