14
Energy = -135.35100451 eV
Re 9.496181199345509 7.244763332178696 5.728353831716172
Re 8.112198076841299 5.334066507578183 6.234818957398981
Re 7.427352934116688 3.6807339178245133 7.981345682331406
Re 6.92170555195595 5.969955258012201 8.517488112995542
Re 7.967222580705395 7.284575052813534 4.002031761242335
Re 7.471481661028432 7.824773485330597 6.929584345948924
Re 6.445279305893321 5.44106776720632 4.550786747207726
Re 6.128902869574839 8.428652990897323 8.886288572350088
Re 5.4831289925938895 4.32329887135326 6.731656975716141
Re 5.694722331262876 7.739842641144484 5.218021455915512
Re 4.837886432546528 6.622748292443029 7.429344140443811
Re 4.402619843707513 3.938748021470327 4.684289901211432
Re 4.8842511236089265 9.13150492029496 7.031947544612397
Re 3.7456875644302663 6.099358269678171 5.215133096121636
