14
Energy = -134.5651565 eV
Re 7.391976358284331 7.955022507472636 9.045488849034607
Re 6.482195468269966 5.771700301378148 8.362567998426107
Re 6.525808528413768 9.535968893407986 7.645689047353525
Re 8.09511031980629 6.999224067109364 6.870641748222334
Re 8.049753407684001 3.9773945879285963 8.089544377738715
Re 5.11876713748658 7.683248088868104 7.23538414571312
Re 9.015774874720057 5.013692049407355 6.113956038945208
Re 3.0539315028316443 6.894658502060914 6.276093393331107
Re 6.808235302933109 8.361132374708085 5.287148433374772
Re 6.6117476755239615 3.4198264640429175 6.380876090924177
Re 6.881912063454637 5.536811074565473 4.942654779348965
Re 6.81463562364503 7.241170718573954 3.1762742965519584
Re 4.894861905492707 5.16069124473707 6.512811425102185
Re 4.812843953769626 7.0121421525326895 4.646246457091005
