12
Energy = -114.99653993 eV
Re 6.266677652508172 4.700674532391776 7.828324961676989
Re 8.153321402553518 7.7650045708577755 7.611997610755327
Re 5.332348783143013 6.127295376564657 5.926776450930467
Re 6.747234242574471 4.820047763316143 4.212052621639935
Re 7.140905919301754 7.7726139900287095 5.055079614696713
Re 7.921477406903984 5.667323171224301 6.153609500129738
Re 7.416604641381924 9.718559619087706 6.426134656331382
Re 5.915951911073056 6.69869724364269 3.3576085669395064
Re 8.59286415857669 5.468882719304559 8.539525297678537
Re 5.717147924549437 8.051729297727118 7.441733708397772
Re 4.219975700208527 6.145805972914054 8.10453824523604
Re 6.486711336538246 6.626818951881331 9.239853078437934
