13
Energy = -124.18724431 eV
Re 9.10275787736167 6.856954231312448 8.427805251192025
Re 8.623759252338887 7.407961499498722 6.1432989674459435
Re 7.890486833999191 5.066511448095613 7.054250176682455
Re 7.979243662908919 7.929325786956264 3.883099662551614
Re 6.775994626882711 7.33357956874083 8.002034587245557
Re 7.316042956274337 5.617924024031806 4.7386064839461906
Re 6.386147879208943 3.478224157353295 5.744433814011096
Re 6.149339171504907 7.9474585826935975 5.453774845894439
Re 5.523983818225681 4.973550376979408 7.606719153981295
Re 4.930803635717216 6.676776061812449 9.409933235656833
Re 4.949966310476209 5.535655878066616 5.293264106183441
Re 4.28861057982583 7.24496662103747 7.160512171677668
Re 3.8116070143170377 7.789051405413057 4.873102202915151
