12
Energy = -112.96161222 eV
Re 6.198172594154097 6.074281045517657 3.2611829385746254
Re 4.290306854521516 5.173696436472455 4.529913487007915
Re 6.619026830256346 8.051485958779361 4.5193204777112275
Re 4.221044462335362 7.710622743418058 4.164035245035246
Re 6.576370711588982 3.8502894957819622 4.455348094472999
Re 4.35609496284891 2.786042314517286 4.93237044635271
Re 6.218631263175297 2.4327580825812354 6.461988994170641
Re 5.075409506479967 8.273233486636567 6.38001341562154
Re 6.205174392962452 5.929007060501249 5.974202506552985
Re 3.5363715856277933 6.46464057681984 6.485108651138414
Re 7.4150598866198125 4.295952088636434 7.110186841981658
Re 4.533918220883099 4.203571981791523 6.971910172834123
