13
Energy = -124.5117729 eV
Re 6.897621602221354 8.663589636336106 4.487037243398419
Re 5.397313845047341 6.410750272456244 9.42364434109677
Re 8.842391182399194 7.6074104257087045 5.504812318541152
Re 6.3972167762892465 4.497608291211759 8.623459154002248
Re 5.689955967179 4.803538732083272 5.089858698921184
Re 5.271322434854827 6.409756997464363 6.987554297063574
Re 7.286623793684485 6.298438005020059 3.9127324251844704
Re 8.489388544764406 5.409495273158437 8.765917045163716
Re 7.652586104090599 5.606101681051358 6.460496500567205
Re 5.007579085877368 7.071772523444368 4.384776081012608
Re 7.562040620999271 7.4458733510837725 9.662290253843265
Re 5.208497616564138 8.808135292524081 6.262134873245808
Re 7.250804039746736 7.920871135249335 7.388628375530127
