11
Energy = -100.93970128 eV
Re 4.5137033908504645 9.927868737155691 8.095793279082818
Re 7.629351512468452 9.320703055985817 5.927768096753637
Re 7.429425739145829 7.0283292929405015 10.596674021158622
Re 7.801272181693634 8.418976849718335 8.555876955936528
Re 11.024815121022552 7.074314189036391 7.62257151052286
Re 8.952073442826821 6.139086811302061 9.113876765199494
Re 8.850049362100014 6.8309184217936005 6.732527351749774
Re 10.163495063858317 8.209517108965363 9.468027236477338
Re 6.691138567233469 10.485607700056741 7.683334472035203
Re 9.654049240758834 9.15444801112234 7.069866701881959
Re 5.5250667258339075 8.487946162561288 9.512025161728392
