10
Energy = -94.97926349 eV
Re 5.83018996139975 6.665069338247602 6.768369684788508
Re 6.739514532544402 8.721386131642687 8.089901022542474
Re 6.210644686743547 5.154795063384285 8.86015653303163
Re 5.328980101213033 8.20328205313261 4.722788816997539
Re 6.16454886237701 6.079952630270724 4.2892016977567655
Re 7.331272288319033 8.537569475337463 5.85138660756662
Re 6.694943536338552 4.245962938752307 6.778435859015066
Re 4.800156019267995 4.636543972176456 5.493377917648698
Re 7.86162919373909 6.703567697841035 8.34066770251045
Re 8.12203664168289 6.135786522840629 5.8896299817681745
