12
Energy = -114.62909638 eV
Re 5.116329107334838 6.145926206904801 4.5623340385865365
Re 5.843106367255743 5.041361969620844 6.66387981939944
Re 5.735438076530356 5.542162079351821 9.105805142980795
Re 7.257907128820383 5.140759356519068 4.442050320060544
Re 8.00660277304767 6.210488819125674 6.771438423901899
Re 8.109239168527047 5.458250606056517 9.093153556715475
Re 6.153867357136934 8.279068009756694 4.532792572191457
Re 5.733475653996648 7.448323201730012 6.922978886286773
Re 5.212680317650006 7.935257693475542 9.229871730078747
Re 8.347521752464608 7.179735968124658 4.4115493136293935
Re 7.807829015165327 8.721701813507174 6.282933533882655
Re 7.53547478337472 7.756435845376176 8.840684095344999
