12
Energy = -113.47448377 eV
Re 4.310220054533388 5.362901978726731 1.4904187060846859
Re 2.6739425269331356 6.334038645179595 2.7056228094216674
Re 5.580667819028604 3.3871635137864455 3.537688424886919
Re 5.54230805857227 5.893474186745985 3.3866619066613755
Re 7.252152878776641 4.735311585731446 4.739056858772569
Re 3.46695708424777 4.548972853930508 4.10036379210704
Re 3.847902431710287 6.7985557793270335 5.01446622880486
Re 5.845724940056572 5.950507330432632 6.3698710391727165
Re 3.604331766801774 4.965080229346657 6.607784746856743
Re 5.5070792254243734 3.4260890625202367 5.9946887894983725
Re 5.460824591002347 5.034514482017084 8.540390342296913
Re 7.078605639239138 3.7341073685819537 7.683703371762304
