15
Energy = -145.24108821 eV
Re 6.11865777032533 4.4629697380508695 6.354786002749838
Re 7.799630257240755 7.280791785255688 4.058226005884032
Re 4.292424715135376 6.0872926648523 6.1174336872120145
Re 6.8804156576562745 5.185809532516493 8.497239180926115
Re 9.424234966518117 8.427789714951682 5.739188368051823
Re 7.705597990116665 9.584147380283028 4.778334407053681
Re 7.342107388818978 7.59239987592371 9.21874237873147
Re 4.758417163968205 5.488849870384084 9.791618443789044
Re 3.9796198272635324 4.444180634666607 7.8961174934364005
Re 5.9425550551413915 5.489982614795337 4.080806590221286
Re 7.966948953069566 6.43608095909991 6.593104726267192
Re 5.199174122598399 7.163506280677658 8.292318923425618
Re 8.101436848573792 4.822858031431295 4.702055654627909
Re 5.988679811564848 7.801601924708898 5.570466068816406
Re 7.536175986084432 8.832095741988045 7.287907123373124
