12
Energy = -113.87900957 eV
Re 10.682023309502318 6.3463436819940915 10.09827475986783
Re 8.153456529600744 6.187001088053236 10.0671102554697
Re 10.420700994905703 6.661021936368271 7.5970581190736635
Re 8.08828033027517 5.939146973248783 7.634640373198021
Re 7.520838649159792 10.184583012954718 7.952670504833337
Re 9.786840763979482 4.609675946861581 8.94336450444793
Re 8.423642830305745 8.343078581477855 6.613188455005934
Re 9.232576761138032 8.162480053987471 9.113282305241961
Re 6.150083890193004 7.539461702473414 6.185224839108695
Re 6.682220314073041 9.920470933322823 5.605044716450656
Re 5.180347757311301 9.59001051110912 7.260889316787539
Re 6.674474278964546 7.960625698081717 8.540097668813917
