13
Energy = -124.28409154 eV
Re 9.39290960970385 7.471520520829054 7.827902906465209
Re 9.382783390464686 5.284891804694092 5.058083964117448
Re 8.917596253043245 7.500054451888044 5.559895413183027
Re 7.2004299408933266 8.085060735537958 7.9571803194738475
Re 7.5274812408526905 5.775803313967143 6.922100347045014
Re 7.189921832374296 5.314635815512176 4.435070840670878
Re 6.333214817824603 7.511337393794526 5.560743899995896
Re 5.639928293641125 4.247319258114831 6.247965868149909
Re 5.645507534452767 6.082547756684225 8.575914708514457
Re 4.7189126591437125 8.054359156144512 7.415981248029364
Re 4.710600310484129 5.837866246639188 4.6089848286145
Re 3.1858958454959674 7.042132004951529 5.943570810728519
Re 3.760358615230309 5.215843183928177 7.376428136118048
