14
Energy = -133.9000754 eV
Re 5.79037289847392 8.845122107417104 7.348577304385339
Re 5.422206787077954 6.6184666488319 3.6986525290819374
Re 6.700666057626231 4.731195825397868 4.604422628511982
Re 5.478366805021865 8.8343951803759 4.916365556967008
Re 7.58337854729573 7.613612296306871 4.499578737430071
Re 4.7333514152335034 4.586030507165543 5.947102977755654
Re 5.571083261170277 5.0810488972679195 8.359825789902757
Re 7.420120787175484 4.2019413936879 7.017559427750561
Re 7.847336501463179 4.912474194306352 9.31686324739604
Re 4.105368191645356 6.910802271643864 5.767079183545222
Re 6.4751286545596765 6.522340844414678 6.451174423509533
Re 6.971008226425348 7.15375840404015 8.890791647905298
Re 8.7969978428031 6.301912169906172 7.50113740861492
Re 8.058814912313725 8.64110023103882 6.6350700672871366
