13
Energy = -124.13684256 eV
Re 5.268536139688018 9.099022439329026 5.919553358935912
Re 4.424254239762528 6.9344459496207245 6.697581247576005
Re 4.796321316201057 4.359020020140385 6.618739398586059
Re 5.2541197805766835 7.3809464265958775 4.320948579314895
Re 6.607360042523231 5.790287986494323 5.648681589790076
Re 6.8934539197963804 4.463049326418265 7.959234541123574
Re 7.610781976737365 9.23890926207727 6.934868660643017
Re 6.704686499254985 7.121055836562889 7.8365218242645795
Re 4.786548571458108 5.531062000759778 8.66453348701814
Re 7.463317428724957 8.620413607356642 4.679526136782195
Re 8.752339953540933 7.098301464603258 6.102812361276715
Re 8.827618955567495 5.914724207560814 8.433903356677527
Re 8.852399740069073 4.6904999681360575 6.424833817176605
