14
Energy = -135.56542746 eV
Re 4.422326506130207 7.195725192667097 3.4465802040990208
Re 5.648680376417162 3.4891538443978263 2.4166107271328783
Re 6.967862303733968 6.740485373606547 3.8863273209408615
Re 7.261053372340985 4.375341245942735 3.7767856565909255
Re 2.7479005955188462 3.2776161711950844 4.6663824601614206
Re 2.460013527684246 6.118024016117127 4.471998749595291
Re 4.936988123165498 2.3495495748533215 4.258651814227286
Re 4.654197202197721 4.900585428941589 4.410209267431507
Re 7.247151803161038 6.149508192203031 6.207268688884852
Re 6.286524205224994 3.7490158308158126 6.034623208679798
Re 5.120230748673112 7.225981948001327 5.706122691083337
Re 3.7943936770536673 3.5934305432978015 6.677767034796285
Re 3.3003764078134674 5.985964505494861 6.647319343142218
Re 5.545277474562508 5.242594456142563 7.786329156911908
