14
Energy = -133.6628096 eV
Re 6.876111276759886 4.689026884720268 3.259854900933242
Re 5.163325667364446 6.429478821503404 3.4814781937501618
Re 2.763274267549894 5.658105027611477 2.794030730000127
Re 4.246132031112247 4.07076160009267 3.8154211953599133
Re 6.234813025595481 2.6785431922595953 4.468528765622356
Re 2.5262751076338934 7.230127427308496 4.366567871316398
Re 6.886578048116453 7.021972169622777 5.283074717755742
Re 3.012261162119523 4.982591587236085 5.734630364969036
Re 4.441201209717903 2.7605051747750182 6.073404439554583
Re 8.172285983719904 5.0910766454910155 5.150630952758796
Re 6.694580857599595 3.8427542422552254 6.64546069130236
Re 4.402789081069194 6.865932817307101 5.844493790130697
Re 6.328597552530175 6.094786363780861 7.46852002533502
Re 4.3498134532346775 4.682376770159983 7.711942085334991
