12
Energy = -115.08889859 eV
Re 6.074506456333485 6.150933387352275 4.775593073932912
Re 8.56387654794068 6.589668119338753 4.340429242276723
Re 7.649562566453351 7.0827146223619275 6.621802611951209
Re 5.051428544960472 7.58995675831793 9.357834822685609
Re 6.3956878680822875 4.1541311453987895 8.544773107094331
Re 7.822988996067224 4.4376650998289175 4.080514930058986
Re 7.477457948501536 4.656984775957407 6.48925851282495
Re 6.565975491788555 8.516553676479885 4.78749964828704
Re 4.391534200051206 7.937116238521254 5.505684581956818
Re 5.770384781553855 8.586280388950655 7.417977757575983
Re 7.0037816404018685 6.34003455656394 9.042858994181191
Re 5.348849602105716 6.073995875168118 7.151807361414876
