13
Energy = -123.99042837 eV
Re 5.066825261006443 6.635901448391412 6.964175343048192
Re 7.258449751733703 5.980018412381329 6.169154379679325
Re 5.966347302295815 4.43207564641939 8.179963336951369
Re 5.661367914148423 8.455122954518359 5.316971742427863
Re 3.678259237376913 4.566521029810209 7.598063753149079
Re 7.281755441689626 3.5948852810398733 6.380608627494219
Re 7.743249211741754 7.750161075112136 4.579596778046557
Re 2.5364218457260517 4.887350529800508 5.177008829543834
Re 5.097171125232564 4.432483540481462 5.610346188846431
Re 6.4100145431918225 5.8975948236473155 3.7012010204704087
Re 4.202963090526569 6.615623624469481 4.484946379523786
Re 3.9840981893364877 4.251345152639396 3.4403582507685573
Re 6.3608097632595975 3.559082275415255 3.552102369928388
