14
Energy = -134.04921047 eV
Re 2.5332346677282445 2.439732262001319 7.065056786648421
Re 4.028574081302713 4.966519890225451 6.760606382137011
Re 7.214717859270181 6.83505640301696 4.41443211700753
Re 4.774912388076178 4.7503974123261665 3.343925916792378
Re 5.096323585363549 2.7174068193733967 6.514732401306451
Re 5.850881053444982 2.7140637644984684 4.144065587605063
Re 5.141245517324441 7.37193361562811 3.3658723967383817
Re 1.7399404217686134 4.5078515278973965 6.7016163863737015
Re 3.220031270496178 6.059825986224532 4.6231568003067505
Re 5.066364087170754 7.114557487062488 5.869856475657875
Re 6.313518952364035 4.778238090856318 5.42680177794656
Re 3.3567940123625744 3.196873964000144 4.929239306045649
Re 7.504160210072353 4.6685909169824 3.1945521276536883
Re 6.2132468252609545 5.932896791912451 1.7000304697858835
