12
Energy = -113.92757677 eV
Re 7.729596498372858 8.89271340841622 10.345703569216155
Re 10.027894382746588 9.271987709572208 9.921511608317259
Re 8.074453584215808 11.127506562551396 9.070793920424542
Re 9.3445587323994 7.06443796032307 10.937564447031844
Re 10.365733453873078 11.458577672126257 8.67626435570138
Re 10.268673844313254 7.2684493090945805 8.595932377619002
Re 7.88002793052301 6.833387053476546 8.934638861526983
Re 9.805193921051485 9.546586798565869 7.412782622477164
Re 5.521019006766195 7.750830875378527 8.314780052983018
Re 8.662225180526942 7.431305676617013 6.5646713663586995
Re 7.312803807631405 9.183510527782413 7.748212871565076
Re 6.445176946180389 6.412356154045064 6.782897737915967
