14
Energy = -131.92861568 eV
Re 12.79022521285882 7.1152237501995925 6.768613564100677
Re 7.109512750455787 7.98621709980324 9.668787734476327
Re 10.619529225779482 6.646555044269089 6.833924068631542
Re 8.594877339361469 5.944734501527725 8.536513256718298
Re 9.305337511346858 8.408779617019576 8.147076387993772
Re 8.04916922868906 10.16028756987395 9.539016536566008
Re 6.2268418542181765 6.295504689492979 7.971920465765864
Re 5.556173730803994 9.894309273545904 9.041035561634866
Re 9.001349179853795 8.082381270081383 5.695029383422701
Re 4.682769324393458 7.399537183476556 9.442118424150983
Re 8.341072831202919 5.502833981257239 6.313438802986956
Re 6.710129338106011 7.336853508392525 5.753873957512935
Re 7.082858995048889 9.20549582462126 7.294335251786951
Re 4.651501407479347 8.383455247677473 7.267453919969152
