12
Energy = -113.48264249 eV
Re 8.87637292644323 7.030803207794597 6.484056640100293
Re 8.316126142394385 8.592033686188289 8.45860563464694
Re 8.264560764612058 9.49333612057592 6.217382593305749
Re 8.930230880698383 4.749748139788303 7.01498274010963
Re 7.530064004258012 6.229857366034394 8.595090969199987
Re 5.179747732988038 6.633011419565169 8.985765298637187
Re 6.289542816713566 7.993780129919786 7.1237197315768865
Re 6.787027395234349 5.495854358821813 6.194538594447612
Re 6.993753539845316 7.717765706378309 4.811138667797921
Re 4.343332444204708 6.709005619571527 6.051536020924462
Re 4.678885516678353 4.942593559226207 7.5279705018937975
Re 5.4019630312981395 6.0188470512602015 4.13376625661118
