11
Energy = -102.86385811 eV
Re 7.923721914004951 5.7698321833253035 6.9612925892154855
Re 5.5454459341442135 5.246311069390588 7.0022350226898
Re 8.715849750525654 8.339322078971552 6.78735790966723
Re 6.584823786248542 6.211015750622516 4.668391230326482
Re 6.470434867500223 8.886401568221906 7.479040608267504
Re 6.969887809140872 8.642953456942653 5.036194110950288
Re 6.9122749855080645 4.72517367956109 9.038132394550958
Re 5.018448901979651 7.440843745771923 6.033227047151721
Re 7.482527155967061 7.160124978550113 8.909682893991608
Re 5.239208487060071 6.499857775239531 8.952446331711585
Re 8.902202004686224 6.842989033838897 4.896825181913679
