11
Energy = -101.67117235 eV
Re 8.774831339940862 7.092542325850544 5.116238696005687
Re 8.164072962832314 6.379136797109357 7.260878507796103
Re 7.054326422656284 8.65399492895974 5.867464912105057
Re 4.798652791126333 9.211480908760684 5.958816177428055
Re 8.034555885978328 4.035850811784923 7.349380065313711
Re 7.104719481056999 5.747472692120285 4.038831178391185
Re 6.291884512762013 4.883206175257209 6.076465094488539
Re 6.135728209709159 5.108667369684521 8.812341487789814
Re 5.376392207672467 7.292161739834682 4.775599077211023
Re 4.462053445116781 6.438273171968759 9.366041636476721
Re 5.720952639149921 7.046461618942565 7.300897151158185
