15
Energy = -145.72193759 eV
Re 3.3235484031005935 7.072553918931749 7.942907282233908
Re 4.199009231155901 8.555799842252457 6.278426378702001
Re 6.000601146769748 7.738041386356704 4.167568077384315
Re 5.33311240618305 8.509180595359348 8.531541728477546
Re 4.51750334659196 6.069487112124518 6.042784137119354
Re 6.521569249309884 7.7156347104214245 6.545988465753144
Re 8.518689980777552 7.911663906093418 4.7321655466970896
Re 8.904521169108934 7.826770986568334 7.203405827851819
Re 6.936818735730498 5.64216796928601 4.886556092035026
Re 7.5659812206773 7.4719258795371015 9.22390808808036
Re 5.559137845643044 6.018236414286703 8.305400109799281
Re 9.269602640343129 5.589444104053794 5.266321140123123
Re 7.983623032797582 5.558090025250373 7.426160853438879
Re 6.0639160724688175 4.036798673586398 6.444289289157805
Re 8.40977317957088 3.480065759955297 6.164457108171585
