14
Energy = -134.37963758 eV
Re 6.069648964213481 6.35808230609187 10.122365780037013
Re 10.205297408492262 8.93909503423576 8.190019911218268
Re 6.618625596815268 5.792528537771219 6.256342361922296
Re 8.10113671547063 9.402912612607311 5.3878283375265115
Re 10.42952328140762 8.405583311235565 5.730947596962355
Re 9.997096839318072 10.60596057179178 6.396599094417838
Re 8.250068563241527 7.5958439669112 9.473998888377618
Re 8.520344077702257 7.3819298028169715 6.942410877988286
Re 7.9909841030443065 9.775748211634086 7.7452561889321645
Re 4.5985125999604035 6.73499737009063 8.217747186211064
Re 6.0049290174621905 4.6833570259057025 8.261901956703031
Re 5.991051777277516 8.571806124766256 9.071583467467955
Re 6.076968029540074 8.10081142258336 6.607835986349304
Re 8.259749524743928 5.369226977464482 8.56022490514856
