13
Energy = -126.32995381 eV
Re 7.728766198000427 10.923486415743707 8.945083718041564
Re 8.041716859853803 8.671819590317037 9.049416424132682
Re 9.895958903504326 7.595482212405269 8.66671705904421
Re 6.801929505952236 7.157860196194418 7.674417171610664
Re 9.386032372783571 7.621345617838562 10.749283918376332
Re 9.043168091426308 9.802882136029478 10.727523125417635
Re 8.564374453556217 8.717277894987806 6.892258436499265
Re 8.298215170511947 10.922244465615135 6.915362249807722
Re 8.393602768429313 6.086253159525038 9.004658333005665
Re 9.55832948887239 9.919762958492658 8.639168504906484
Re 6.47894213370836 9.477861303650226 7.635653693299478
Re 8.564374453556217 6.178955131699528 6.976831317733126
Re 11.117908706583178 8.798088024239927 9.996946154864176
