13
Energy = -124.48179427 eV
Re 7.684018714026145 4.396395693086282 8.32692433186714
Re 6.7405376239315276 8.129098068176301 9.387432629064476
Re 7.8966613111037045 6.729859049122355 7.855106076123233
Re 5.34509245628889 4.4160316405172715 8.501820286657908
Re 6.574520813706187 8.809951711936 7.062560836549792
Re 5.323838713964755 6.711560359960164 8.027217656579623
Re 5.617608903280426 4.682614670773163 6.098279330067697
Re 7.884017115398383 4.855216300372258 5.90859779804811
Re 6.2538701308637785 9.343226420610495 4.719513473717665
Re 5.061678461228349 7.369488393131811 5.45720524439877
Re 7.615559498328966 7.435439377946485 5.1324010109369125
Re 4.87744669049713 5.572667743707254 3.96158135434618
Re 7.205608346530006 5.6019249376373 3.6577696904477475
