15
Energy = -146.58709387 eV
Re 9.027939765686142 7.567389487316579 4.661936918516543
Re 9.04728885435522 7.669595465133478 6.990545986418638
Re 6.99675553358638 8.81978567505084 5.153786628412421
Re 8.439204948234616 5.272541480814883 5.442990102242012
Re 4.865919267802653 8.324071288972812 4.3302876206356045
Re 8.181129681163188 7.2974555763486775 9.341531045556689
Re 6.784558075759388 8.424100013203358 7.59710851816559
Re 6.651577051525978 3.914324127848593 4.82311741311394
Re 7.455654737085165 5.714435830652287 7.648016888749808
Re 5.622885947559558 6.878502192331389 9.099192003776515
Re 6.116507937508025 6.328500837652111 5.179719985492621
Re 4.570173113210095 7.948545177135331 6.611093381099186
Re 6.638220772576904 3.308959100954252 7.05721238677031
Re 3.477223736976807 6.480762980980575 8.230048266454006
Re 5.080080544666415 5.073308113425767 6.952292607037734
