13
Energy = -126.33198374 eV
Re 5.477847831952602 9.007311414526344 7.029883167086481
Re 5.789989144223009 6.421020059512885 7.132356721345132
Re 7.979804692244029 5.344760655989121 6.413293951035574
Re 4.551871035314057 4.905856873301849 5.421140600918955
Re 7.464877667373404 5.370823397283616 8.830826274084169
Re 7.129440784142717 7.8864376660702495 8.809530821459923
Re 6.314211904528039 6.464587492542103 4.641363671174389
Re 6.040062537619159 9.006727450191836 4.667389119996088
Re 6.139718691569746 3.838806697662523 7.0892553672971275
Re 7.642384036357869 8.000738074658313 6.3870550837175575
Re 4.226003068185647 7.5590160316130905 5.384257724334437
Re 6.652224254311115 3.9275856880154403 4.726801557013104
Re 9.202248192563765 6.877012339017793 8.077529780922466
