13
Energy = -123.09069227 eV
Re 9.382905671060563 7.497366128311472 6.352501487148997
Re 7.993782782414518 5.032732941133298 6.436961082016378
Re 8.315853859047166 9.507425353370358 6.486664642814958
Re 7.304005724251452 7.238845167916637 5.13748436921756
Re 7.441543921678854 7.049892670430212 7.744944450367625
Re 6.3288735206575915 3.1479479275726123 6.220259026627547
Re 6.372583036412618 4.723447110370538 8.253464163546388
Re 5.8357602003973 5.191452523588429 4.992622775217801
Re 6.028820805059645 8.849951273235067 6.692284816652734
Re 4.830159578581833 7.9285156710464975 4.774562536180904
Re 4.953243278237 6.472898072239808 7.157300621849017
Re 4.2475712689464755 4.008657388826623 6.994869957454589
Re 3.5757199690339685 5.94824946783854 5.290628701820194
