12
Energy = -111.52365134 eV
Re 4.491035396932017 5.191339317897844 7.047811001905326
Re 6.641584614604756 4.67387198028471 5.2955938532598985
Re 4.532804963281743 5.7541450508575345 4.745379817514595
Re 7.3803435683564915 6.485004544709787 3.92493755860321
Re 8.32572813941107 7.646079299521742 5.773969316270035
Re 6.260561917073312 8.160611055351136 7.545790094426256
Re 5.477481885017903 6.357481187203767 8.884258082407099
Re 8.382722182774454 7.100200613990701 8.106387532826911
Re 5.694595046161179 7.936911909898822 4.793926037356775
Re 4.105450853109493 7.569533456968391 6.52301824084765
Re 8.75887939919122 5.289372650753194 6.320540602807585
Re 7.18778200801782 4.938438394975538 8.065423644027899
