12
Energy = -113.8193905 eV
Re 6.100441088442646 6.297344384563184 4.097426660759099
Re 6.150568539141448 3.829113509678533 3.405094479665307
Re 3.573141568665856 5.937069792112482 3.573498430877594
Re 4.732823628412453 8.104518583803973 3.656885929774188
Re 3.9784113637280925 3.742283721286463 4.545853185220652
Re 7.719507740388031 4.456133041462534 5.129305564349973
Re 2.211000376734521 5.245119682761905 5.557297829911609
Re 6.106118392916945 2.7167072707263933 5.619512303832146
Re 3.941091730059139 6.956030815292153 5.745837678333543
Re 4.42838698355849 4.607444884031082 6.7260291051299355
Re 6.361351246365487 6.158698244011929 6.514264706431296
Re 6.791206970736583 4.043585699418928 7.5230437548644735
