14
Energy = -135.47173143 eV
Re 4.511725959431953 5.54613301596293 3.7497200584877914
Re 4.4100873052048195 7.903820713147685 3.820921256521288
Re 4.845521240474574 5.013375769734166 6.093377378462389
Re 4.819389813231964 7.372138213030855 6.131444680414701
Re 5.454901088472116 5.533707860755998 8.540811085893392
Re 5.5375225907379075 7.869435470382025 8.515785639730076
Re 6.851980269434043 5.186806724602699 4.260910802534163
Re 6.732628171821962 7.5819907546589 4.218226194487234
Re 7.28025346569563 5.2142600731747315 6.817096463411808
Re 7.3059114678644494 7.793130974882342 6.753859923279187
Re 7.630887439263029 5.2739202673183705 9.465822175709864
Re 7.756843849547556 7.705972685989556 9.48796094029468
Re 9.105807028123674 6.483847574536585 7.916898842972211
Re 8.787726138939936 6.552645729174627 5.2583503851526885
