13
Energy = -124.22329681 eV
Re 7.039202558539388 6.896479877787969 3.779537353350999
Re 8.854511064233424 4.549322394209741 5.13386282293217
Re 6.5177677280030855 4.536522492476478 4.473315295782779
Re 6.935486187536434 3.733418606206437 6.87626242897125
Re 5.993549820204813 8.376434438910131 5.38899989115708
Re 9.153519892881176 6.790729886278698 4.741802461326164
Re 7.129948456016881 6.190709638333325 6.263935402490685
Re 4.664234624075316 6.107312183139244 5.438022601443576
Re 4.677707535951133 3.5904210104537637 5.853490053607853
Re 2.716712594042341 7.422544874779776 6.562343117249006
Re 5.171361598948349 5.260452899788217 7.7390001208317685
Re 4.849415196148651 7.745267829735322 7.419833496258453
Re 2.8306414585027406 5.196075952644607 7.091420349280949
