14
Energy = -132.92763908 eV
Re 8.402412500857007 5.647340239584803 6.032611977385915
Re 7.580661331024842 7.689212498586645 5.274446938828623
Re 5.982370319825312 6.439008182812267 6.758708813250671
Re 9.555101083354735 8.500831669141089 6.444747414463977
Re 5.312495396093256 5.139773024205371 8.637760914145467
Re 9.807247275288905 6.421088459383351 7.738036031393267
Re 7.70882331699498 5.522160338310421 8.686109445745192
Re 6.031310424581362 7.415551775528113 9.141145668587646
Re 9.758507836915152 8.709672059964424 9.00758725399966
Re 5.512051777733516 8.841571055528378 7.249573323938128
Re 8.173046410993848 7.367223983383845 10.26913199261768
Re 7.484925818530121 10.02465596566363 6.532461664085337
Re 7.559746786987677 9.685003150410418 8.91395245534369
Re 9.597426208678026 10.676505423260144 7.5833453067956516
