10
Energy = -91.57375019 eV
Re 4.5382098244576445 7.98178260861367 4.957176678289996
Re 4.923631948578637 6.27208358522882 6.5394801789629025
Re 6.170995159795376 8.507528146664676 6.775748945189045
Re 8.395404418868656 7.423606586704291 6.885791317930821
Re 6.76219000549725 6.735248437523373 4.963505186032714
Re 8.159941612713148 8.454197655135228 9.012801030370595
Re 9.141852573251432 5.655429265774046 5.155953091900445
Re 6.518356783609372 6.946003975873626 8.594283836376153
Re 7.4313071649335445 5.065991648837515 6.53675393422104
Re 5.625150948190665 4.606968030074726 8.244410360588077
