11
Energy = -103.34938688 eV
Re 5.0559327264267475 6.183217932630356 7.896326244389303
Re 5.0579416676480715 6.176448739307427 4.783952681590341
Re 4.122865166241606 8.037749072783107 6.335574408801749
Re 6.868885665158297 5.156716569370897 6.343517227053714
Re 6.570539806697401 7.614061118326008 6.337931971449325
Re 3.0801324388637314 5.9530256813052524 6.339296577906314
Re 4.588681265707618 4.167371690899553 6.344121795406054
Re 7.979078241019716 6.544880566127986 8.07574183258289
Re 7.981867074504915 6.537319548912034 4.607129002297117
Re 9.364645068945427 5.500512360096818 6.345004935463853
Re 9.07711651496331 7.876382254791109 6.3390889592359105
