15
Energy = -146.28830168 eV
Re 5.487540939949637 8.08268209899431 3.839385163087708
Re 9.134281535392592 4.819097310834599 6.458888130513389
Re 7.245772565370346 9.147391753057851 4.92335397242951
Re 6.627249903767253 6.218253369903888 4.878384987757659
Re 10.486471983516207 6.348076005213146 7.41944659187429
Re 6.640809998970466 3.914247030526256 5.48623946635248
Re 8.421693039719608 7.310566058337549 6.129551284129837
Re 6.804874874276162 8.695455765980368 7.313393824565117
Re 4.82690736702287 5.326619447868596 6.6366664329144065
Re 7.083970037263866 5.350752917689384 7.560200536843506
Re 4.881342232449027 7.855359280415313 6.173784634112425
Re 3.376143970785568 6.737416667343047 7.886683148798989
Re 8.499270209519603 6.954472959954739 8.719262728888726
Re 5.589658774287544 6.941305767186008 8.827948511969584
Re 7.038207393625268 8.439739314849175 9.891794010716739
