13
Energy = -124.99850158 eV
Re 4.891778533639714 5.211107513556338 4.064759962233063
Re 5.428281838730964 5.828556663756937 6.354380808177655
Re 5.434746011106768 5.207460817271931 8.736814147024527
Re 7.190691374570376 5.377332887310313 4.412658588975497
Re 7.7622200561985935 5.319266207414808 7.086344788753493
Re 7.682613311961183 5.337900402564674 9.479292411531672
Re 4.889313156379706 7.598267858119392 3.8829510904637616
Re 5.438202614048629 8.173891012209898 6.249960368632504
Re 5.397185231249144 7.573842284463133 8.756273936099712
Re 7.172668670689564 7.760997974514444 4.270274168537353
Re 7.664478840550206 7.853173107351298 7.195570702171596
Re 7.613626216636887 7.725619559661094 9.562738965594216
Re 9.050673983764725 6.649063579206851 5.564459817707848
