11
Energy = -100.54607644 eV
Re 7.809601839292644 6.271435823405329 5.500094256954081
Re 7.673303771309785 8.76695741768476 5.476130447183584
Re 6.358325266222972 7.5453878819742535 7.1565826324136115
Re 9.762031417075063 7.632579849214327 6.263522512040751
Re 9.041800007558535 9.796584745537475 7.273239287411304
Re 10.226977133022489 8.104298167141762 8.668941636652473
Re 6.562573623760677 10.094180617982612 7.272999443221966
Re 8.45742866600366 6.404169656860215 7.956597570786723
Re 6.378041805517389 6.467742392119379 9.524915461437569
Re 7.740967917146843 8.596146126044918 8.97764032048266
Re 5.204508118528113 5.5360768874731665 11.144895996853595
