11
Energy = -102.16947481 eV
Re 3.8365410686297667 8.444919463872244 5.658277171516913
Re 5.803782260398993 7.191787072577229 4.872972940502266
Re 5.93438772647087 9.484310703071731 6.182864598132228
Re 7.59764921052588 7.780739667869173 6.521588116005209
Re 3.541908984121128 6.1120304374936625 5.665880995554311
Re 7.90365945129929 5.568423238768766 5.413949692049599
Re 5.301704833527128 7.178111992441094 7.350467350928973
Re 5.631424542358771 4.939709001359986 6.198784777209869
Re 7.295858196031288 5.5802827594239925 7.869957041869709
Re 7.469171579965142 3.248982366682328 7.277213355818864
Re 9.350245816789254 4.194034459742504 6.650255687576132
