11
Energy = -105.38589662 eV
Re 8.786245902758196 8.005091898289534 6.705983814740291
Re 7.986898529238305 6.2698692426799445 7.440710503656167
Re 10.12774594662329 9.644490087148462 7.022566932152758
Re 10.73854152334811 8.238638932527035 8.247848511334109
Re 8.294063511583634 9.537390772465761 7.887458326560738
Re 6.57014177867519 8.083139809549795 7.920604944883857
Re 9.738721678647398 9.650050195404916 9.039680380482366
Re 7.3780476045934 9.404639503097288 9.826214471725173
Re 6.275797257342641 7.8855680570058615 9.698441581761406
Re 8.856945391794827 8.822160952592828 10.97467401011501
Re 8.29406351158363 7.993746913050023 8.770601886399387
