11
Energy = -103.93043213 eV
Re 6.597705435263822 6.598657188002781 4.433757504794681
Re 6.594391593663479 7.805083240009487 8.592248073382825
Re 6.593528713841682 5.381367155609658 8.589388732542428
Re 6.598367378580584 8.952321132425633 4.418333076503122
Re 6.596774744434097 4.244692270264344 4.412616024972095
Re 7.826958455899166 7.845635740431838 6.375668896121248
Re 7.8260841361022635 5.345325138932554 6.372765237921099
Re 5.3657695202743545 7.846438847686653 6.373587188112127
Re 5.364867415323963 5.3462492247680045 6.370647896260925
Re 8.792631599083043 6.592741906894188 8.30883594278077
Re 4.395698764754799 6.5942659113048325 8.304929183830318
