10
Energy = -92.05052026 eV
Re 7.539253532535086 4.044398681819098 4.669186714620861
Re 7.266237923151427 8.989623200851966 5.291517004642347
Re 6.970584379984011 7.457960623221096 7.258354715739481
Re 7.161363675329348 6.524371470688011 4.834127747710522
Re 7.270887949722213 5.720769955068509 9.03604804179259
Re 6.868259563114111 4.798780512954993 6.857916623226225
Re 5.24326644593249 7.877637991812167 5.567381490196413
Re 5.112229325802733 6.15081071023009 8.087270650651183
Re 5.340832278129369 4.937713970197389 4.825839029563952
Re 3.6768792238638444 6.026491582391588 6.1759806738488585
