15
Energy = -145.03283131 eV
Re 4.473047786697367 5.916925255236693 7.909473522653917
Re 6.229507738767358 7.704252399563832 4.3700109008358945
Re 6.870246587822529 5.567702901610939 9.481828960478799
Re 8.190149691641018 8.323848176686603 5.71612828154721
Re 8.852714304010313 5.878896730388261 5.758209372345359
Re 6.85961237072459 5.40459351815893 4.343568612309545
Re 8.981535603188803 5.00394454569002 8.111573268864817
Re 6.757723228265706 8.807319338758242 9.23998834609115
Re 8.137035175190803 7.266566405311356 8.08945015210484
Re 6.657638714068374 5.306922795494169 6.982002812266995
Re 6.9788649935664395 9.929371050000238 7.211019026783676
Re 4.579181572659228 6.039289024395851 5.446778627373673
Re 5.768249864179967 7.786392953214926 6.8598862909725264
Re 8.593467202553406 7.0622804644744885 3.610720406825349
Re 5.12091133279314 7.051580606253572 9.919247584674832
