12
Energy = -114.01230606 eV
Re 6.30460638250879 5.362769910109223 8.431331968808365
Re 6.5215099680774715 7.682988512044257 9.31736097020332
Re 5.595601040246305 3.917123133717565 6.71961626931565
Re 4.737319600515256 6.994035761273044 7.718014687131939
Re 8.331302667519195 6.9499802718192 7.765313916486446
Re 7.43584789706572 5.229767019890186 5.932915120857893
Re 7.377457556101994 6.047508719762509 3.6789279302877715
Re 8.300057321970533 7.653485661571494 5.3229361381604585
Re 6.696704021275478 8.652445352712204 7.026305508836389
Re 4.0119698570003 5.567477207178204 5.997012568289029
Re 5.749124892522925 6.98610614227683 5.165458062722861
Re 9.091148220498916 9.148366279833755 7.002233248759516
