11
Energy = -103.3541955 eV
Re 10.70771362844849 9.043358419981244 8.076777504290982
Re 8.279400377817195 5.8537287444667285 9.711535231373459
Re 7.443614941732294 8.277250778721045 9.18473105036746
Re 9.802335658301269 7.65893095582285 9.982253800195512
Re 9.082523181618443 7.134838938483584 7.580163209659623
Re 9.220231851330674 10.065671055838076 9.546722534250442
Re 6.7279596709984615 6.280943585422518 7.827261524836596
Re 6.0130212472667015 9.248025777780363 7.403771665069347
Re 8.392442670602119 9.60951545508549 7.153501063827635
Re 7.959962983388338 7.903625318632524 5.501537377089319
Re 5.714372312614806 7.355672301118298 6.015469665915852
