12
Energy = -114.49437008 eV
Re 6.595271095933728 7.782242509456915 8.449028419031297
Re 8.646312501044063 6.8738199544493135 7.374083502331031
Re 7.35329814622612 5.533686602599674 8.90739715943508
Re 6.872581592503057 8.224992249277001 5.777865864524088
Re 4.848848043437791 6.026263326945378 8.880868823106619
Re 4.9403426659558445 6.887407046948126 6.623238328068631
Re 6.011208712720706 4.64643441579214 7.114102118931728
Re 4.746398037978425 8.210503694460977 4.490854526117574
Re 8.522290909381672 4.404284763665776 6.9404256219167015
Re 7.38813397385603 5.819237148022858 5.340857073608168
Re 5.053492174835931 5.834325906478604 4.3092544388600365
Re 6.734221273104302 7.3556159379949575 3.463759475936116
