10
Energy = -94.97964273 eV
Re 7.856699804026857 8.208349272914194 8.311899056520497
Re 8.2823861358531 10.264555745942163 9.633045752453322
Re 8.23849606063264 7.182683278064871 10.403396840731098
Re 7.356762549637552 9.746392830445386 6.750603317396914
Re 8.193217138030898 8.107820049709352 6.317008126207917
Re 8.874789083356873 10.080418519933117 7.879207474411299
Re 8.238496060632638 6.273798746760026 8.321174450682495
Re 6.827883684714705 6.664408150453258 7.521279073281348
Re 9.40520687988682 8.246390042335017 9.883332785727397
Re 9.664753603228144 8.16387336344239 7.917742122588099
