55
Energy = -592.06204605 eV
Re 6.003525304180861 6.001563024185603 6.00360389041182
Re 5.991506399362367 7.395264503048515 8.264474088194849
Re 5.99457988653176 7.404373718015737 3.7488307813767756
Re 6.01099784065839 4.601074386152938 8.256197864544085
Re 6.01341202717066 4.6098905409458215 3.74093919357402
Re 7.395420118887392 8.267118327202246 6.011644826046591
Re 4.607046401170015 8.261233881396265 6.00471421453766
Re 7.397525970024079 3.744963237410318 6.001155139549042
Re 4.610011103257734 3.7381837131121554 5.993223998000105
Re 8.262624180046302 6.0158986176806994 7.39549036136599
Re 8.262314841569081 6.007300276851033 4.604894147098001
Re 3.7415573608523816 5.998067190600952 7.400889183914512
Re 3.7408591500186508 5.990061979691042 4.6094461116698
Re 1.5731050204325743 6.000535434287544 3.269556875548856
Re 6.002930399114156 8.743561356237214 10.427150574202944
Re 6.017079305285553 8.744786591410614 1.5823561302192406
Re 5.989844909373568 3.260959843191487 10.4224800523697
Re 6.004284701266692 3.2604370676163055 1.5782344055503237
Re 8.743821297974215 10.425278431934876 5.989015854997808
Re 3.2657393128261365 10.430202767147119 6.020616015630275
Re 8.739536700748769 1.5764123538423307 5.986329620031625
Re 3.263174711539162 1.5799948857607666 6.017514143844445
Re 10.433195143628263 6.003029939609531 8.736583903909073
Re 10.429746681913198 6.0012659724882145 3.275939533677435
Re 1.5742476905221905 6.0015566784271215 8.730999220100736
Re 6.06033668031256 10.412474244312829 6.019660490085287
Re 5.945686419648921 1.59221256109726 5.986128477205458
Re 1.5956047261786945 5.989323883296844 6.025400849883883
Re 10.409618634744216 6.0168806311286716 5.980806960207371
Re 6.00487825132552 5.915626472172013 1.5936084707874378
Re 6.000420708894577 6.089574983614499 10.412032916052015
Re 7.393784410601442 2.3990887179304723 8.119346165929107
Re 4.6641523634441295 2.433544266465306 8.212110610813255
Re 7.368740813780697 2.425924454839034 3.8082040672602884
Re 4.673098495063648 2.470616301063052 3.717277864378405
Re 9.556712676794065 3.7574864079389028 4.675159076249109
Re 9.599982199614114 3.884950904952576 7.405647944092559
Re 2.4478060339696057 3.748215224112905 4.672872457735309
Re 2.4371238432788367 3.8049828033076243 7.382265001647076
Re 7.342955558988282 9.569505966618365 3.791234993002624
Re 7.3304524430072915 9.534954374929452 8.287676579649553
Re 4.608162806476099 9.606811701298225 3.8844267207779297
Re 4.637470986347852 9.5781140581322 8.196749405505404
Re 3.883785609831499 7.403383033540219 2.403237719665087
Re 8.132910574436279 7.387319944287723 2.400703907825891
Re 3.725784255515987 4.678424953507078 2.4632049029151286
Re 8.279363883053994 4.6635138355008685 2.4691678592434645
Re 2.4486787292534498 8.247694268006505 7.3300728941871975
Re 2.4057782602476125 8.122218741214695 4.597166211663582
Re 3.8733086961786096 4.619626610498685 9.604683220814001
Re 8.119928896204073 4.604767449039885 9.602300586902286
Re 8.279676716335509 7.326660694786818 9.542677062885911
Re 3.7261219656374025 7.3408513661035135 9.5364981448319
Re 9.568268383390718 8.200045785701947 4.621634998603385
Re 9.557891131207553 8.258762254473952 7.332334920952205
