55
Energy = -591.84072387 eV
Re 6.869169965744085 6.869169965744085 6.869169965744085
Re 6.869169965744085 8.274972254627784 9.127171222710226
Re 6.869169965744085 8.274972254627784 4.6111687087779485
Re 6.869169965744085 5.463367676860387 9.127171222710226
Re 6.869169965744085 5.463367676860387 4.6111687087779485
Re 8.274972254627784 9.127171222710226 6.869169965744085
Re 5.463367676860387 9.127171222710226 6.869169965744085
Re 8.274972254627784 4.6111687087779485 6.869169965744085
Re 5.463367676860387 4.6111687087779485 6.869169965744085
Re 9.127171222710226 6.869169965744085 8.274972254627784
Re 9.127171222710226 6.869169965744085 5.463367676860387
Re 4.6111687087779485 6.869169965744085 8.274972254627784
Re 4.6111687087779485 6.869169965744085 5.463367676860387
Re 2.4440634210388863 6.869169965744085 4.138630030045604
Re 6.869169965744085 9.59970990144257 11.294276510449297
Re 6.869169965744085 9.59970990144257 2.4440634210388863
Re 6.869169965744085 4.138630030045604 11.294276510449297
Re 6.869169965744085 4.138630030045604 2.4440634210388863
Re 9.59970990144257 11.294276510449297 6.869169965744085
Re 4.138630030045604 11.294276510449297 6.869169965744085
Re 9.59970990144257 2.4440634210388863 6.869169965744085
Re 4.138630030045604 2.4440634210388863 6.869169965744085
Re 11.294276510449297 6.869169965744085 9.59970990144257
Re 11.294276510449297 6.869169965744085 4.138630030045604
Re 2.4440634210388863 6.869169965744085 9.59970990144257
Re 6.869169965744085 11.268024719488006 6.869169965744085
Re 6.869169965744085 2.470315211999854 6.869169965744085
Re 2.470315211999854 6.869169965744085 6.869169965744085
Re 11.268024719488006 6.869169965744085 6.869169965744085
Re 6.869169965744085 6.869169965744085 2.470315211999854
Re 6.869169965744085 6.869169965744085 11.268024719488006
Re 8.239987223916174 3.300302906220295 9.053921072933946
Re 5.498352707572325 3.300302906220295 9.053921072933946
Re 8.239987223916174 3.300302906220295 4.684418858554221
Re 5.498352707572325 3.300302906220295 4.684418858554221
Re 10.438037025267876 4.684418858554221 5.498352707572325
Re 10.438037025267876 4.684418858554221 8.239987223916174
Re 3.300302906220295 4.684418858554221 5.498352707572325
Re 3.300302906220295 4.684418858554221 8.239987223916174
Re 8.239987223916174 10.438037025267876 4.684418858554221
Re 8.239987223916174 10.438037025267876 9.053921072933946
Re 5.498352707572325 10.438037025267876 4.684418858554221
Re 5.498352707572325 10.438037025267876 9.053921072933946
Re 4.684418858554221 8.239987223916174 3.300302906220295
Re 9.053921072933946 8.239987223916174 3.300302906220295
Re 4.684418858554221 5.498352707572325 3.300302906220295
Re 9.053921072933946 5.498352707572325 3.300302906220295
Re 3.300302906220295 9.053921072933946 8.239987223916174
Re 3.300302906220295 9.053921072933946 5.498352707572325
Re 4.684418858554221 5.498352707572325 10.438037025267876
Re 9.053921072933946 5.498352707572325 10.438037025267876
Re 9.053921072933946 8.239987223916174 10.438037025267876
Re 4.684418858554221 8.239987223916174 10.438037025267876
Re 10.438037025267876 9.053921072933946 5.498352707572325
Re 10.438037025267876 9.053921072933946 8.239987223916174
