55
Energy = -588.54200118 eV
Re 2.3473264053776566 5.210847326247118 8.13497213117217
Re 8.974459087650782 6.94180810139448 5.159661680753314
Re 6.641199784199031 3.2895577808467644 9.434220279243059
Re 4.5053818849281475 4.56541132215376 3.9463226434969205
Re 9.00058996851573 7.094776211534544 7.729458901979189
Re 6.477644809361524 6.799785452024224 0.3978966018768601
Re 4.453581613747399 4.632754808012563 6.6884083667519345
Re 2.3199103089264144 5.068160125918305 5.2288477490537515
Re 6.63954461578362 7.54131456510928 3.869808702392405
Re 6.591067330424283 5.748466633896963 10.86567464816956
Re 4.563479884410865 4.913585987497192 9.42263559487268
Re 6.631605921144953 7.914770279730479 6.466931618869314
Re 4.622372794162071 9.22395452839249 3.675928131971114
Re 2.444225469560818 8.82078381013996 4.862048334587372
Re 6.726153520505775 7.863407836501578 9.100146986661233
Re 4.543231399340322 9.35981879857439 6.412687587392735
Re 6.505727917412324 5.194591216678665 2.3817509015815794
Re 10.61022534823832 6.654330725266471 3.278387630504526
Re 8.625251363155467 4.654143582180584 3.771956221062221
Re 6.571964655312295 5.315156735733975 5.252531339476318
Re 11.487936973630541 6.8826057709356 6.452881023535819
Re 8.797484976959575 4.468058417038645 6.6564419267793875
Re 6.6027965505486295 5.5042449454201625 7.979754797352046
Re 2.5276576205603467 6.828946733489698 3.40621954717031
Re 8.67727270413273 5.075677408804849 9.489077647965448
Re 6.576403926090843 8.847110963267266 1.7969474526530365
Re 2.5438265722612825 7.158406422808765 9.750143152895344
Re 8.654063573527973 9.156918281628078 3.590194147150187
Re 6.665137011917638 10.07054925032922 4.853606684852918
Re 4.792316879575887 7.561310595358901 10.810693852875596
Re 8.779608113640133 9.31601248124471 6.322843332823876
Re 6.756022995188462 10.242438363388322 7.793510718873455
Re 6.4749448110627625 7.585234333389378 12.629987838295456
Re 4.438981866770734 2.448051410349514 5.274269406548972
Re 10.8277651717912 4.9503717554400515 5.080205799953702
Re 10.608894595217203 7.12931542607697 9.644026142033825
Re 4.472963433592099 2.6451828581820163 8.370002450998232
Re 10.870912535029044 5.170751817331587 8.111534453214016
Re 8.412457246247202 7.508399326060033 10.98686681982089
Re 4.745557809022578 6.996719551065543 2.200388568837918
Re 10.844944060815852 8.649474864712873 4.7987120596587305
Re 2.479805462513281 9.00200010565275 8.114144602265615
Re 4.3011609089951826 7.01939321535124 5.2161018564967305
Re 2.4218415429897364 3.036896373127684 6.797364383492686
Re 4.712443108948102 9.569862378466876 9.107887828952743
Re 4.312372674521244 7.1949726906389975 7.90520089687821
Re 1.8828119908975065 7.123404961666635 6.5845290707375455
Re 6.757871415934063 9.418824691029112 11.00923781424176
Re 8.925001368279922 2.6512073605368234 5.037861382297701
Re 6.583214484780647 2.9269450961509866 4.08728972372177
Re 8.748613438349071 9.448874806547929 9.102288859673726
Re 8.987410662110202 2.9177445968601217 8.50657793074221
Re 6.505528046153426 3.0670210701142375 6.76711513581822
Re 10.883684895800084 8.864047322713125 7.810665213335951
Re 8.337507488477577 6.947759525476652 2.0673124236769453
