5
Energy = -40.93879057 eV
Re 6.103320578915381 7.782281654967858 5.909275933684137
Re 7.821409171434355 6.174028689243606 6.14098108349637
Re 5.133171088111908 7.462159251963073 7.853616654729781
Re 6.9270339648674994 4.575656967172588 4.923930610440366
Re 5.443985164519522 5.434793404501426 6.601115685497894
