5
Energy = -41.88678887 eV
Re 7.816489110608981 9.315541393908273 7.663668186067823
Re 6.0478120866964105 6.933318529342023 7.568261021732822
Re 8.997668795984845 6.583986934328723 7.622294912980425
Re 7.590371200316119 7.575736878417288 9.173625609049209
Re 7.65997512921089 7.6478791920452664 6.060578461392762
