55
Energy = -569.47902314 eV
Re 4.090344842889818 2.6461643879332626 6.029828050478701
Re 7.3487810982657376 12.943729743572947 6.864451222778626
Re 8.993845548438733 3.765375499848849 3.8796242426030636
Re 6.35747101100751 12.774141754358185 9.471557037090829
Re 6.704348045942107 8.100362976417665 7.789894325953376
Re 5.040186748275096 8.06439450708323 9.777455978284555
Re 8.97808857217212 8.79090773491 8.886911865890458
Re 7.154471696837689 9.181727191178307 11.023428222147608
Re 8.559968723276704 1.880792394836726 5.694792887519934
Re 4.424508044295191 9.389060621224859 7.217097218970977
Re 11.014478543517578 5.491134457138719 6.8854655508894735
Re 5.27154934493256 8.711558284535656 3.271897522164349
Re 6.391933532124806 4.528970492298855 11.365664274396064
Re 12.617703611700843 8.863854873812501 5.948874110221939
Re 2.164461899496408 6.113703931655555 6.454341904581296
Re 7.878235500596085 10.500579518672387 7.317376049274384
Re 7.560726876806183 7.496519577378504 3.787600462146831
Re 4.077771839703736 5.092242385356478 5.385950353656484
Re 10.777129282187166 8.007458916209528 7.147028937279878
Re 8.229940768279336 4.137256664534121 6.532011775696414
Re 7.695265656982897 2.2009662243859154 8.308996871747123
Re 3.954342599713943 10.660864765099419 5.006515061779929
Re 12.906591212396556 4.237218735336707 5.4275205757858735
Re 7.491485642010066 4.491627546578186 9.200115644275785
Re 1.5075017736289138 8.009415373421218 4.910744171969896
Re 5.836908799049679 10.395886979357405 9.155045816501765
Re 5.042269150414099 2.9178810643372906 9.514497890523966
Re 5.6839902505830775 4.116088775898095 7.314242361299157
Re 7.370502990026479 6.933883462007479 10.134590102108122
Re 5.531610357180545 1.3166542257046465 7.534548376542179
Re 5.514371060889384 6.796088570461361 11.866084028366332
Re 8.202478786267132 11.10467697384435 9.795872704379065
Re 7.733146369611797 5.235801286018057 2.493086727796058
Re 12.968382202860369 6.631802853240235 6.12120674428189
Re 9.264133323563923 0.5656846327305657 7.682839586752632
Re 10.75598547460357 3.334578018120841 5.519278114357306
Re 3.8000311966582636 7.78296995467311 5.146868706818269
Re 6.747474903666862 6.289988614947983 5.869830997574481
Re 4.343670745036145 11.192465659967281 2.399942609944158
Re 2.8115393056225813 9.462342311914911 3.2618877493206035
Re 4.931819192972288 5.454085939882416 9.672514281029613
Re 6.386458219745926 3.8025370613411917 4.595028283443567
Re 5.688546844218107 4.125305323072041 2.2298718216297595
Re 6.247494613704597 9.438262970319471 5.437449034294488
Re 7.8656426592743 12.907542930325206 7.711595874329654
Re 8.716470539814138 6.340047665129544 7.899171997854683
Re 8.6879424440801 8.370178041709298 6.023218412779719
Re 5.661088374221803 11.922500595265655 7.071994258378202
Re 5.400892915994932 6.159915969574674 3.4613432600069416
Re 4.149784448885605 12.943729743572947 3.810157510639219
Re 6.093866587930973 12.0256021772688 4.739780409402557
Re 9.332653596725459 5.944376323550591 5.050313162943365
Re 3.220836371283569 4.13311951154735 7.924326350280321
Re 4.405678509607384 6.659839194149004 7.504265442781006
Re 3.2572434911079178 1.6528948687304852 8.318049207137385
