5
Energy = -41.631121 eV
Re 6.044668648005789 6.846802622399604 4.279919221103855
Re 4.381831104306092 5.357345157154455 4.423326465408258
Re 6.964286083125743 6.323519890212151 6.2499039072536755
Re 6.177032713218137 4.1583832419204345 6.278541864017003
Re 4.3833746951286985 5.265142332097807 6.719501786001908
