5
Energy = -37.2279895 eV
Re 6.539308869929989 5.954453860013554 7.649784198203827
Re 8.046411987516247 4.314721779343559 7.910983853541192
Re 5.886318918634218 7.024104287391477 5.480262666059352
Re 4.985575052345214 7.79121360230349 7.547545354398707
Re 6.423411438294442 6.77365533186011 3.279381830450439
