55
Energy = -551.64606647 eV
Re 1.0412123592677573 4.180466939662836 6.297429682028048
Re 6.678677350784124 10.150716236018033 8.155624117213636
Re 11.845712525838312 9.360840825334646 5.5677860625445295
Re 4.689392640250068 8.711347455578919 9.11274911602269
Re 4.273147387666892 10.136776465868161 4.163222164084103
Re 2.41781967391999 9.079219949393408 7.767853688306582
Re 11.740064922848708 6.459968664692556 0.9052531056609607
Re 7.576543711622347 5.147927076764629 8.37534915933641
Re 4.906473041836698 6.059461273933208 9.532615741869764
Re 11.907873754494666 4.513322623973383 1.9415516526143888
Re 2.6795260355934607 4.282350062774292 2.056097320652688
Re 2.92702810977268 4.894657032422771 10.332157356742973
Re 2.228446552723725 6.065882302465942 5.283957799368923
Re 11.653007357806024 2.698199580178459 5.845009560328577
Re 5.8360187606696865 3.7820583782770503 10.29371713294766
Re 4.485067947723447 4.86360568554332 5.551492007512383
Re 9.477496827109993 6.842381352674595 7.903788624243778
Re 1.1226618948760543 7.095186785359263 7.345136202918449
Re 3.077759309836088 2.8399846876869077 6.603054901636923
Re 2.8807175241472005 5.136544013125982 7.777431068500541
Re 7.77633683991806 2.923858881095607 9.238495940608939
Re 11.849120183285375 6.991249862413978 3.1503872754021107
Re 3.487970805848717 2.816229751767702 9.01545973217589
Re 2.3294236704547058 9.6787712015186 3.0589322836854094
Re 2.9604965832185135 7.263867706857313 3.0503795129325355
Re 7.1222002544523955 7.607380291890252 9.111500453618845
Re 5.6926775708601784 6.702017277635483 7.238424357699878
Re 11.520877467563658 1.7830909749351282 1.989840830860565
Re 10.111617177902113 4.255155588678624 6.723386360471098
Re 3.930198340791638 2.755808600554254 11.346077188021031
Re 9.85949552611595 4.534849205969577 9.08213830142809
Re 5.3772158460452735 3.944511242308928 7.839278190616911
Re 2.435190241771365 7.242719369850609 9.53122865630901
Re 12.006087106371869 5.48122065683571 8.081572494543101
Re 11.147776176020228 6.595758078651339 6.038919857976717
Re 11.880272527680756 4.829639475182401 4.433708055091681
Re 13.218368967894206 7.541085579210589 4.982630488528191
Re 13.159749084631882 10.688267100694095 6.8226570833568205
Re 4.658840145372114 7.435331464211996 4.905757108802362
Re 10.356508682232686 9.594835548156459 10.483505443387847
Re 11.560783258387014 10.054818512999413 8.352133086296826
Re 8.974322171899626 9.229953329255371 8.587249529342962
Re 4.456971043892734 5.333618716989152 2.9435880366366174
Re 10.544912892993656 2.807281199659382 3.8525010243476556
Re 2.6443585828867398 3.654990970059072 4.324332380127647
Re 11.189217517524597 7.5146354489997895 9.478981852072602
Re 4.408616791403233 11.1932147176532 8.544630586648092
Re 2.7413224321721117 9.629608206497153 10.269380932735112
Re 1.9652383839171115 11.508679558039036 8.574254829166193
Re 1.1714248384764656 13.534080208325433 8.88538379550515
Re 10.157058646188183 3.187448307557561 1.0990485411235733
Re 5.067270925034705 9.244001503536623 6.604255404781137
Re 2.3880613967734092 8.612508916816157 5.269206309113223
Re 12.65035947320362 8.056540251692443 7.58011743783997
Re 3.302311682703509 11.019375826451034 6.24668109888871
