55
Energy = -587.84062054 eV
Re 1.879962094263626 7.212664613723707 5.1089014186138115
Re 10.9772811774788 8.081565366811558 6.362251305907414
Re 8.6076508445874 4.03853381469896 8.322888495230861
Re 5.189248055127598 1.9561845952368828 6.131136217005138
Re 9.052229516895384 7.70975833619981 8.08690483557714
Re 5.390817728317516 4.428652322804247 10.070504010764616
Re 7.358538014975138 6.1218389031690945 3.840822452965439
Re 5.755383954661468 8.118630406616635 10.139096877920249
Re 8.238101392140004 3.8386387912090503 5.638789756471971
Re 4.3764634963143525 6.45780247647982 5.759472493818707
Re 4.552973320061675 5.884312225800931 3.2135145912084577
Re 6.128490363085649 3.965833800621901 7.510643999275513
Re 1.4775524257625177 6.4947689976098415 9.873086057819481
Re 2.261554177546433 6.627775596327884 7.489200103809714
Re 2.8676724955368886 4.596823809540616 9.180308416139438
Re 7.10525704853458 10.193321679442613 3.7017959240554457
Re 4.770015022457935 10.341389596819642 2.6114956278190773
Re 10.556826954654346 8.350964988917513 3.774513917621032
Re 4.8915408152501865 10.497010400325387 5.127390130338361
Re 7.456860226311583 1.7853210537041964 6.937556610448539
Re 8.594013986875169 8.334429613751729 5.313967218955521
Re 6.783590997818054 2.2985850784264312 9.313676720430934
Re 4.331803569955838 2.4258362464147023 8.459392298955311
Re 6.4448960059272595 8.213382280558264 7.66043936215827
Re 10.195764943965612 5.542952805086162 7.158461343509526
Re 9.7829264272856 6.0705701395002665 4.812715079641829
Re 3.221976045522878 8.313953385607498 9.283032015495493
Re 7.250230878548522 6.050023934480142 9.33009641405683
Re 7.484687843392003 6.075325899585429 6.537329000846648
Re 7.971550018253029 4.082391528162562 10.746370306316917
Re 3.859996577093431 6.404041140835734 10.831799817150133
Re 4.687042178948232 6.372476669223878 8.443085051828131
Re 11.535282797477423 7.350238743736687 8.74213394957903
Re 9.596570520055987 10.07304601436039 7.05500119514373
Re 9.443413352161025 10.587134313235577 4.5953451826651115
Re 8.505902814209978 8.019180360481213 10.597527185267937
Re 7.726704304443184 9.915677966633064 9.081268724024863
Re 7.06882302079308 10.41300113398717 6.493220842107095
Re 5.8665811133338375 8.11821402679757 2.4801475676446523
Re 5.620890836378483 4.189524500768256 4.924460438357505
Re 5.187180886885995 10.29777421796141 8.236490180806321
Re 6.3221402829471005 4.117023066877513 2.4098500116740182
Re 3.5340153249903907 4.278480615835936 6.716621921460545
Re 9.760038884589058 5.962746858862069 9.919252914442778
Re 8.653683479745423 3.8530178647342566 3.132229597903249
Re 8.474046792236788 8.36559254695994 2.566118660861115
Re 6.280324749240845 6.173227315585998 11.703114159937156
Re 6.924045125198722 6.119873186031422 1.2622413146107712
Re 6.0134037185178375 8.307331867060933 5.106849548302614
Re 10.354435362665281 9.384441996032056 9.49544549979569
Re 9.27120938862125 6.061095312434132 2.176852089119176
Re 3.887710740362904 8.751463043313485 6.821315091512267
Re 2.655928446199241 5.04280568328983 4.439760711571303
Re 7.000130311263439 2.1817134865701786 4.236328621383718
Re 3.706925903659972 8.44392213428263 3.9300734731982216
