5
Energy = -42.14391272 eV
Re 7.820838785349406 7.90072002273507 7.012805902792441
Re 8.06125536112666 7.561313939562872 7.590268533258356
Re 6.528007073809062 7.278536716938829 7.603966518164918
Re 6.908161474769212 6.610655804635611 7.590268533258356
Re 8.057548722479792 6.853509098593556 7.578500930060132
