5
Energy = -40.60299528 eV
Re 7.682857402658228 8.398788654961848 5.938484770572432
Re 7.536317599583632 6.595977781150028 4.8457361889827135
Re 6.024768981194452 6.793764654250576 6.709260204785686
Re 5.556611517345189 4.5126158985273275 6.020932876306571
Re 4.618494004473584 5.154635992573358 7.80325046664045
