5
Energy = -41.44453834 eV
Re 7.006248449270177 8.977616699486456 8.221244343082558
Re 6.067281931760063 6.474554150545875 6.515165086887256
Re 7.722715902201627 8.119859642463906 6.138693772587669
Re 7.070046778954117 6.664579804803262 8.63353310018314
Re 9.094831813628751 6.724514578515127 7.4524885730740005
