5
Energy = -39.71226362 eV
Re 6.513824627272268 8.301088363245471 6.499475521208353
Re 8.196456381500418 6.655758220887584 5.848758576664944
Re 6.38343291708158 7.10174476676211 4.59494042617633
Re 6.0728273428001005 5.856587778602215 7.034521968425765
Re 5.315818405602133 4.555165703688387 8.493078433036747
