55
Energy = -593.15575296 eV
Re 7.621734101722959 7.932699549771203 7.400349281954209
Re 3.2104516469155904 3.831994782826292 6.505086005745263
Re 7.52664963377412 3.868618754435262 9.759250704709466
Re 3.1798757838338325 7.842151899060613 8.836817831337044
Re 7.746611013077167 6.51177920606031 5.065285489429572
Re 7.504115516164497 6.516475653728567 9.859585899765166
Re 7.5300921283474 10.50003223518559 7.4381996911791886
Re 7.674171873668415 9.22589205680876 5.1110081973624375
Re 9.537393952250675 10.500588860748202 8.914641724133364
Re 7.632105273278202 5.089236930874114 7.404957217554232
Re 7.685248554133325 3.786558851060756 5.115680984578095
Re 5.169101753883204 7.745720932659446 10.537200988046525
Re 3.1827003998449865 5.161245073140346 8.834425706459212
Re 9.812940390802908 7.866084038783285 4.371340471489398
Re 2.998071830896912 6.504583109234504 10.93938361173593
Re 7.555867408170008 2.5185589941691067 7.447936990778619
Re 9.818104492846851 5.16027384458432 4.375246634967049
Re 9.643435304547797 5.132883534455611 9.11205977643995
Re 5.252328333118588 6.507805233139711 8.206397707886506
Re 3.3224934064628755 7.890793340648697 4.137609227834796
Re 9.551744872087877 2.5288032912766467 8.930513768394238
Re 5.296544309673578 9.22116915145856 8.098189807800726
Re 3.3278505732780697 5.101679483583789 4.1393740823993355
Re 7.513538526588732 9.156654315229789 9.755628550475043
Re 5.310827538784727 3.7922317166348267 8.10723751129834
Re 5.464057493655983 6.5003217896526175 3.376365571531689
Re 9.641559420509335 7.903555534818986 9.109574676641786
Re 9.786726779041103 6.516208784258221 6.670340919521208
Re 9.944026188894075 6.5134389908958115 2.286277760820534
Re 3.392792032790666 6.494500776519434 1.8994479499212804
Re 9.768820489821207 9.17439090951001 6.7876574211138365
Re 5.421733309406199 9.160594057080965 3.4565351618363525
Re 3.447190471507338 9.064937430668547 1.8615361335685532
Re 9.779172372010686 3.851741481818322 6.79695953967768
Re 3.36607480296939 10.467446303314082 4.375437384132139
Re 3.4674112003527813 3.923785775458011 1.8662974526034628
Re 5.368071463194292 7.963420880738081 5.824387013685254
Re 5.440622955159272 3.842572337906662 3.461603600401314
Re 5.568928620439951 7.823986941307074 1.1921085109876501
Re 5.448658390163969 10.520589308566365 5.759619559526747
Re 3.381994132642079 2.5285621517308945 4.39554817323617
Re 5.571174225333199 5.177120128503148 1.1870778495795682
Re 5.373494554260017 5.039239568659814 5.830245382669578
Re 7.723455592767775 7.775122754062877 2.718649937547345
Re 7.639802693094872 6.491409054588519 0.5108990792408064
Re 5.470912888309215 2.487433652817467 5.7725926394787965
Re 7.7217613324164605 5.232989646752049 2.7208623864515897
Re 9.57293952263024 6.52187780646345 11.327888232335594
Re 3.195604614338158 6.49846673193342 6.524390457754312
Re 5.170557715209126 5.273440945864337 10.54140461846813
Re 9.523055390016683 9.07391828121409 11.383790324861963
Re 3.20175992370134 9.177090239975033 6.494068872875988
Re 7.447414458236057 7.926751971155441 11.984133101380834
Re 9.535141621491446 3.9685581964175722 11.391271265743663
Re 7.457143914829125 5.108069915136282 11.985678345997968
