55
Energy = -584.92032428 eV
Re 6.6306701046288925 6.970299834820843 7.991954118535055
Re 5.693648617143719 8.64279494674997 6.157212709189403
Re 4.181250305663414 5.7535069252106155 9.88945135381634
Re 3.9519040237270513 3.3174647555059726 9.0063405569985
Re 6.462812745125748 4.694810307212889 9.771291173466821
Re 3.076475632977586 8.429773751821559 5.324484885791931
Re 8.58555670181244 8.265297651768705 9.081001888493663
Re 6.2939068038021775 11.225081821382055 6.53449550654744
Re 8.39904924690963 3.0672504482570484 9.482645190843822
Re 10.935748022621794 5.2326779203880225 5.842845819913133
Re 4.217557146202478 5.912792930222221 5.0712895624718035
Re 3.802848112951146 9.745066737948145 7.56189559044337
Re 1.9803013864989574 4.659669658988729 4.140663570148654
Re 6.29956278577264 9.627952457725247 8.532668056138961
Re 5.27765614805506 4.742863612496066 7.322910399243507
Re 5.22107633394996 5.957949160799324 2.5796683670383893
Re 9.081113953949016 3.7350695977772204 4.550953015558058
Re 8.752751597634944 5.595189024732607 9.179193983497408
Re 3.8886791140114214 6.981856035602334 7.538317868331548
Re 4.269138219447712 10.685562760542386 5.350761508419981
Re 10.44900923902079 9.98322732869249 5.821311335850449
Re 8.536630107515924 8.113278753311103 6.264852213237556
Re 10.820493737832903 9.348195191625301 8.297684391184557
Re 10.404966584286477 6.95994760451915 7.7695160330835
Re 2.7864614271864228 6.743531650487594 3.162871606120411
Re 1.566905878669583 6.517074379481419 5.863789005197158
Re 2.9478037808163005 2.803077561271266 2.8545154284416276
Re 1.7571171589716506 2.5921129273601125 5.633057488988528
Re 6.238353683613171 2.517040205495807 8.389978451660287
Re 5.545097439648015 3.385900532187665 2.698007782013741
Re 3.342514170407445 4.780036281128603 1.552119693005731
Re 5.9413181802527975 1.5560522984788216 5.925661100546395
Re 11.21301239361741 7.696560936863731 5.559171494089687
Re 3.6838442860910137 1.8183307813621368 7.138732231007953
Re 9.291345019733829 9.035367737292638 3.8012078323254346
Re 6.549535454321594 4.117325539845324 5.061123488178821
Re 8.41300330899806 5.4023281115711015 6.57962125315213
Re 8.18314528415901 2.7035631530577082 6.661280083572115
Re 6.806568653243858 6.713067447627797 4.832314257750306
Re 5.083401650853052 1.151711543248533 3.62623817524909
Re 8.467605368882904 11.557580357530634 5.3133642160906955
Re 7.377918741772122 7.742535807440451 2.681832090793452
Re 4.931950954159074 8.319527428514704 3.596477772846153
Re 1.718267818923356 8.116993480835246 7.7214378704827
Re 7.678062433841098 4.983551718427993 2.837012169524561
Re 7.409270238441823 2.0274967296099433 3.7813265052964056
Re 6.675585988369184 7.163077703620025 10.511564443671142
Re 9.292645559663766 6.509305408848824 4.267083302525186
Re 10.072181594039115 3.8674630311623086 7.795925873058545
Re 1.9696938373817712 5.830268889971863 8.86218306204641
Re 4.14562672658215 3.151475381692167 5.008432628300304
Re 4.655049849876705 8.197133436142916 9.679932587737461
Re 2.6555552114452947 4.482650903983621 6.941119177558043
Re 7.0470997244946965 9.830499255465458 4.357858804412416
Re 8.667467318790967 10.365995970683107 7.567566834902335
