5
Energy = -40.81881767 eV
Re 7.906441481852583 5.7020943365503785 6.467434221680467
Re 8.770333520426348 7.902517048869402 6.09450766416505
Re 6.087030251984915 7.340557678057193 6.210747678083385
Re 10.154950053390902 6.363930308921625 6.751938794938905
Re 6.261504854130874 6.403663693622243 8.100040360691512
