6
Energy = -50.62347527 eV
Re 4.81624181875993 6.038398291247782 5.019282904796425
Re 6.990307360378502 7.149834043541704 5.550626723054399
Re 8.841078656160382 6.375424578583314 6.511868082654418
Re 7.684408023260851 5.213032074204164 8.088036280641491
Re 4.563823715700038 7.875877938604276 6.098425951397306
Re 5.710869995408587 5.931908829441123 7.357595032254941
