6
Energy = -50.77538985 eV
Re 10.178684791772243 7.304932146484255 9.540631236758962
Re 7.952603202442714 8.030754127100169 9.204307046121185
Re 11.039305515766255 9.310767667987509 9.166679933962918
Re 9.151087897269207 9.901712462453917 10.288322526368173
Re 6.701205483583765 9.237385258561565 7.624809288700705
Re 8.738535423543835 10.141472206928597 7.9903481359153625
