6
Energy = -52.2908688 eV
Re 7.544149799092383 8.142982338283057 6.675119186986299
Re 8.166404826848702 5.9885232986529795 7.015892145049619
Re 6.561362077370725 5.07564801573651 5.5429154458649466
Re 6.105887432865448 7.240154815222547 5.038830804457112
Re 5.808926293880712 5.494399484140035 7.830312607494753
Re 5.281838326809447 7.566665623885792 7.418853781344952
