6
Energy = -45.16261693 eV
Re 7.312123275398532 5.423501637529726 7.590715884575849
Re 11.056759380341859 11.431693601342547 7.582294417046876
Re 9.576494956134114 9.920637869502475 7.654499507982493
Re 5.263414190295752 4.751545771816133 8.500903986366035
Re 7.794548108710928 7.8652190285596815 7.553540138984977
Re 5.490543317777319 6.836463169826852 7.5347691674468935
