6
Energy = -52.53680918 eV
Re 6.626818916125746 6.852368629200115 8.70380003040561
Re 8.550376606412033 8.428640875813613 6.277847852366118
Re 6.750492639356458 7.078716537871669 6.388670356948571
Re 8.660153497757197 8.355117034868423 9.318691336127603
Re 7.0066823794336415 9.207680844978167 7.996459986043356
Re 8.954797045337802 6.622617034601154 7.858327236010608
