6
Energy = -53.76193664 eV
Re 5.091109456107644 6.336247195512855 7.456825053860891
Re 7.91963472125977 6.674414522086659 5.553909476858679
Re 5.728637890550997 7.6594736340378535 5.505781050464052
Re 7.083306246521502 7.746052931277889 7.535510622110438
Re 7.282123959211015 5.351258884048427 7.504889183401187
Re 5.927340930892802 5.264706037579935 5.475237817848373
