6
Energy = -46.81661782 eV
Re 8.049753905875086 4.482388372806758 10.603275489111963
Re 8.097154577784622 5.779869009411762 8.97828540045212
Re 8.835243733037558 7.355260761120597 7.04864299848047
Re 7.045114770014268 7.946179356717429 8.046342727271293
Re 7.829750321300921 9.78162385791974 6.464401911988289
Re 7.225963381073425 11.71883939917057 6.039233327264624
