6
Energy = -51.31641595 eV
Re 7.896000735819021 5.482221416650711 6.931866514634624
Re 5.076103842069871 6.3137705948548675 7.435906545424941
Re 6.544075942072434 7.987740578791607 4.36278601070201
Re 6.924568287222085 7.706307286691158 6.672134944045771
Re 6.1245177165286195 5.897317159091245 5.180636840325146
Re 6.824040039008333 6.03523180094249 8.837076919768634
