6
Energy = -51.67101132 eV
Re 8.218174071570626 6.943462555072386 7.3633448321701325
Re 6.943462555072386 4.908208110144768 7.805686607045711
Re 6.943462555072386 5.628692469939104 5.661356226001309
Re 5.668751038574143 6.943462555072386 7.3633448321701325
Re 6.943462555072386 8.258232640205666 5.661356226001309
Re 6.943462555072386 8.978716999999998 7.805686607045711
