6
Energy = -52.07456389 eV
Re 7.496728154611736 6.1901589463164655 4.954605476222618
Re 8.027584366114565 7.394390408379821 7.362797839376851
Re 7.399947616806218 5.120941856099011 6.959817786284583
Re 5.9830417169476835 8.261140512553315 7.320530927982308
Re 5.328698079627746 6.511768363658392 5.314249142002034
Re 5.347369936035759 6.105239916045451 7.67161926456839
