7
Energy = -60.38434433 eV
Re 5.78042372681443 7.849132721118392 10.283671290015858
Re 9.71118729405584 7.113179511219072 7.687825938492503
Re 7.606872986413067 8.127033521672175 8.623318948898524
Re 5.7706625311552475 6.73269993969867 8.461995118069321
Re 10.35195889159811 9.257054845874293 7.257894411617338
Re 7.787152189228225 6.9181754341797435 6.364270115798581
Re 8.22786669404521 9.214816873152825 6.446775868960527
