7
Energy = -63.12502913
Re 6.015822141024433 7.6939315809631905 7.463237424913524
Re 7.695041495991279 8.398343209336632 6.375234244597487
Re 7.55458922711387 5.961494977225057 7.463237424913526
Re 8.736053419731078 7.142308614397402 6.911964416434274
Re 7.038278719583988 8.605342917774767 8.49582362468368
Re 8.760149711210632 8.731376615107072 7.634303658627597
Re 8.081833511001031 7.34897131085202 9.01795198017393
