7
Energy = -61.73155834 eV
Re 5.854090112951682 7.065934143775706 4.233511240573495
Re 4.684406376092454 7.070290010052045 6.344803502514625
Re 6.885731063324391 8.058244708009578 6.173952437303476
Re 7.741250930491458 5.980073353397802 5.270024846786598
Re 6.615461977394628 5.968146668409588 7.504498778331434
Re 5.540084832101497 5.002030693745101 5.43972169594472
Re 7.224040663768905 5.438641070104914 9.627558164232228
