7
Energy = -60.80586568 eV
Re 7.151072167557318 9.347093206701327 11.336138622323501
Re 10.436480632924232 9.77934786176626 7.461886276918417
Re 8.201825218522618 7.38233306868445 8.227468585540691
Re 8.504179487000435 9.463506618716359 9.265851299423804
Re 8.252968427510025 9.597417998795168 6.889432442529755
Re 10.018512103596889 7.629079071928214 6.828461523489054
Re 8.139636588573252 7.531598699019238 10.824093415641817
