7
Energy = -60.47668367 eV
Re 7.042434572833009 7.692336417356577 4.111576993132405
Re 6.950569981077908 8.235015691198731 6.318065662291738
Re 5.056121237656047 6.915827079440121 4.909432585042716
Re 7.008151869931147 5.824214929642874 5.9021846066217
Re 6.7790323003973025 6.409267265864191 8.259820802629225
Re 4.883977834294866 5.075692740270577 6.83717368765356
Re 6.6830553521504195 4.1726946441322585 7.889233357788262
