7
Energy = -60.16905432 eV
Re 8.172447750357344 10.380125812092254 8.16341618634622
Re 9.174688172635754 8.909941628446001 9.410910069489754
Re 7.0948802017894534 8.4080615390213 7.521040118266003
Re 6.332120159842547 7.172070835573744 5.630770325302189
Re 8.215810474531393 6.8279025815597025 8.715979264753996
Re 6.178263739679667 5.754625067692265 7.5350672755929775
Re 8.082210803840036 5.650930235583984 6.372908050067127
