7
Energy = -60.11592923 eV
Re 6.4855462713625345 7.673956548057907 6.472739561850689
Re 8.498488521099782 7.963673791908613 10.582212016919742
Re 10.19104459486533 7.76884188397015 8.848495532719104
Re 9.972550655339615 10.131717673057251 8.733914486842286
Re 10.178877612130458 9.451815973434643 10.885043525284306
Re 8.128786856139012 8.42878930019283 8.085773414732989
Re 6.6963039000834375 9.744159695235417 6.486730970586615
