7
Energy = -62.67514555 eV
Re 7.050103995331246 7.9065843180006015 5.063356598583374
Re 5.094126174432177 7.263622839121723 6.256034682302675
Re 6.586809143961943 5.610385706165066 4.873793341493785
Re 7.571983069409437 7.457148844600573 7.329992765958405
Re 5.486755274303127 7.218929237227945 8.598484881121365
Re 8.237680104053828 5.336577044719121 6.514548714904542
Re 6.025326123693881 5.239627816606208 7.405303383743059
