7
Energy = -62.26052275 eV
Re 9.208415366089154 9.303588551750789 9.792208528483815
Re 10.50487830533932 8.415440250604929 7.911859850364118
Re 8.747147738583838 7.031009626142337 8.917237053443
Re 8.951192040044104 10.29725938371248 7.612415468245708
Re 8.51212429028034 8.105646787683009 6.623761951942885
Re 7.146200182634746 8.912440340239396 8.540878948448071
Re 6.809645901071958 7.2867970445798615 10.231644762147848
