7
Energy = -57.57101439 eV
Re 7.661343848409869 5.841883524778572 8.638083152889752
Re 6.487211038656405 7.8190513262791255 8.6945013
Re 5.3130782289029455 5.841883524778572 8.638083152889752
Re 5.3130782289029455 7.132538552534239 4.3363389244230595
Re 6.487211038656405 6.487211038656405 6.487211038656405
Re 7.661343848409869 7.132538552534239 4.3363389244230595
Re 6.487211038656405 5.155370751033681 4.2799207773128085
