8
Energy = -70.9160804 eV
Re 4.850652243112263 4.755334905697785 4.909984982877875
Re 7.367247480629067 3.946372189919755 5.676682262665822
Re 6.804534378461735 5.883670818061437 4.622653505855442
Re 7.348136054966733 5.807958026191244 7.157690725631418
Re 7.718146996661103 7.744356466365551 8.48872257759906
Re 7.0258963786190485 8.26300706092846 6.3842968633026995
Re 5.13253192607969 6.502303430770531 6.498721676257123
Re 5.2036455504233885 8.547788111018132 7.712038414763952
