8
Energy = -73.52322699 eV
Re 3.99152716199339 4.880870582786199 4.6547319214328295
Re 4.519420208804428 4.388488662552428 6.906781749526741
Re 6.849035380504668 3.9213807826222933 6.638447207747771
Re 6.225808010741 4.093875477286312 4.377719414450584
Re 4.000290293493363 7.275762361202372 4.405014689802004
Re 4.921434050082475 6.692510179611017 6.598158617576226
Re 7.214956037786036 6.248952653142851 6.269548660295566
Re 6.246454263866472 6.4670847080683584 4.118523146440237
