8
Energy = -71.97344228 eV
Re 3.4445656527765003 5.6743556365549015 4.188469971274942
Re 5.667302564978407 7.144902945877542 4.49705685663646
Re 5.690031722279826 4.6519278910377455 4.458454791521272
Re 3.521952651218826 3.4154028958433953 3.81676877755873
Re 7.646929578643772 6.1119898721966 5.200279949963423
Re 4.094130533515813 3.631281699886553 6.037700167295116
Re 4.760039758941424 6.0758448534169665 6.45167151066915
Re 6.639243426247329 4.758490093788321 6.813793863682945
