8
Energy = -72.82717671 eV
Re 8.40791979910939 6.881389717591341 7.720735873075278
Re 9.071502928430757 8.73748709046463 6.2077644602788125
Re 10.319298576687604 8.441828105221076 8.199259678647644
Re 6.477011224351392 5.381693356175344 7.845558523324916
Re 6.045261775163135 7.1281112603812 9.108142933753118
Re 8.26628077885193 8.499450842044721 9.555219029279638
Re 8.753346845527139 10.33789653655641 8.042405774523656
Re 6.918575020787807 8.799302721436256 7.494350202655741
