8
Energy = -72.68895658 eV
Re 7.636877179668 6.7443192563136805 5.387665323261651
Re 5.174343011761421 6.746901818884681 5.157223261443518
Re 5.358537563443414 5.096066712722134 6.975099653855512
Re 6.502936864052599 4.611959956944394 4.823511497423135
Re 6.36177848626993 8.682699454118616 6.335221073744215
Re 7.851881841701259 4.58106289814517 6.719919823175108
Re 7.055254773119823 6.705433837259442 7.782892061949787
Re 4.722235954463607 7.495401740092052 7.48231308125329
