8
Energy = -71.47922789 eV
Re 8.25925363680001 7.6888390591258915 6.4487993822415195
Re 9.048823632645776 6.396010747381382 8.117658371512933
Re 4.4181860805163895 7.7987094974709885 7.117398012916848
Re 6.40962781136833 6.738827327141589 7.736503069802196
Re 4.4656605547867505 5.736711969032056 6.239095520282422
Re 6.8288016323304985 6.1131872675124965 5.28792418840047
Re 7.9418003601037634 4.775236716601135 7.004638905270068
Re 4.793542425066197 6.979315557408974 4.413540512438241
