8
Energy = -70.78009373 eV
Re 10.701407202620208 9.040253180947245 5.875268333230368
Re 8.93956426752842 8.239067524372167 6.928811393080626
Re 7.904562948308085 7.887483047434265 9.291857114188387
Re 8.55929528852588 5.960075300360292 7.93448373619436
Re 7.1332641327361825 6.6792402339689 6.1173335787614045
Re 5.646752955136288 8.624791213358534 9.662112771469982
Re 6.17678624546616 6.449309557548679 8.386263721017247
Re 6.406519065697284 8.643047129789291 7.379422511902464
