8
Energy = -70.68360772 eV
Re 6.93230480609029 8.446871314930627 8.430198544999321
Re 6.505716801341999 6.363227543926999 7.8122055757919835
Re 6.571843829180974 3.934063360139376 6.959464844699593
Re 6.757027917091886 7.977496112702035 5.991564474356505
Re 4.521818474900038 4.90936124180945 7.050875464624928
Re 6.619179336666509 6.7924007074376265 3.545686342868891
Re 5.093587660073379 6.4769702308311485 5.279254367523457
Re 7.421730732936655 5.514553118397742 5.399583681386124
