8
Energy = -71.52076418 eV
Re 5.200816131111731 8.074466775907887 7.9103548011140505
Re 6.494684894206427 6.426450235192024 6.210139722687963
Re 6.920792812436131 8.537941115590074 4.7226212686080284
Re 8.442860700952913 6.992659229977616 4.8411995694837335
Re 7.6773760613963695 4.366613628675666 6.873300594687824
Re 5.682468657286157 4.457961927919416 7.723909955516981
Re 7.189292022018414 8.69286490416421 7.012561108130232
Re 6.480402270281222 6.38778062925038 8.720517883969613
