8
Energy = -71.17525879 eV
Re 4.2478223030691735 6.009684001214664 3.510064034224239
Re 6.367044668301416 6.84930928288407 3.7937694511502174
Re 5.7066604994168655 4.28287033119319 4.412880460767633
Re 3.3485295761422735 4.617736022744583 5.231836395072918
Re 4.440749251529686 6.794239185025092 5.816563919188689
Re 6.833786466581641 5.944168834074805 5.954629072926407
Re 5.126639460974132 4.505320144308607 6.8912591992629055
Re 7.25977530033971 4.327679724910016 7.720004993762155
