8
Energy = -70.96138888 eV
Re 7.531857635293216 9.511651112968341 7.681135219816202
Re 9.81440147191566 8.523712334648637 7.4549330631411
Re 7.983137713013271 11.786359922682909 7.677415174561382
Re 9.512863155385308 5.847287509270858 10.007237640022275
Re 9.44394489522532 10.493192241946481 8.92842495771828
Re 7.7710509337133455 9.088950283056132 10.106329353731383
Re 8.14369990105031 7.116896332724326 8.630530223859191
Re 10.036318148591326 8.101243606018427 9.898516544058351
