8
Energy = -71.0529489 eV
Re 8.617666336823998 6.22578275818606 5.006513917282768
Re 4.93042698655475 8.177705408427412 6.388578438960344
Re 5.020963867181263 6.077880516936372 7.4329516191112734
Re 7.262765691808359 7.039385743269331 7.223106937883313
Re 4.694270603189627 5.631675352164608 5.158744513754552
Re 5.972758943511966 8.687784663920622 8.261784128274723
Re 6.726124741528217 4.921418254789389 5.77281434452873
Re 9.092264216832248 5.457777417301334 6.959290687774931
