8
Energy = -73.37222985 eV
Re 6.781950878249233 7.303737860286495 10.00056346562903
Re 8.866121804348552 8.49485212007532 6.735968777806333
Re 8.302933812469002 10.471490162421718 8.02181328675927
Re 7.879274537544069 6.431438638864185 8.043614766619795
Re 6.880455385740621 7.362692405302885 6.055247763883981
Re 6.624732299644817 8.730056794091986 8.05041940288743
Re 8.766046271891245 8.500172655988088 9.350989769794253
Re 10.200717010112463 7.007791362969551 8.043614766619793
