8
Energy = -72.28140379 eV
Re 7.462118200527527 7.930476344237865 6.860807341415661
Re 8.702687732720229 9.917697797018503 7.290420549148087
Re 10.697500455765395 8.62566634015977 7.199119827603133
Re 9.465176805238034 6.748934596825845 6.843607632512029
Re 9.045061298405482 8.187725259765722 9.000068720891884
Re 6.612020815512202 7.283673207741932 9.022848461935387
Re 6.962036232787941 9.524428932341259 9.462558013380617
Re 8.02833907934536 8.590484783512535 11.155762805645812
