8
Energy = -69.89477827 eV
Re 7.216706701137488 11.05339780886278 5.917717135939325
Re 6.606895365627725 7.787044655636874 8.761089715675118
Re 7.792412985420236 9.249233563736688 6.998565853965468
Re 8.942361044446915 7.171901684993497 8.646224451643796
Re 9.597787426488544 7.801163503506738 6.4263310719450875
Re 7.617581127505212 6.431504163395074 6.801311753569487
Re 5.447891886552187 5.808724122068368 8.414694806584261
Re 7.474646273375448 5.040137246414908 8.82366871436028
