9
Energy = -80.56902907 eV
Re 12.386429702188824 9.365806657250419 9.782743752204977
Re 10.504930484174029 8.377534373902474 9.480382308103799
Re 9.828427265319736 7.951930933548117 7.098205035024899
Re 8.346809095688448 9.456871183502733 8.448944217910123
Re 7.296169363183925 8.152262523265806 6.618737310968929
Re 8.30033179434668 6.846401332171086 8.600460629091398
Re 8.097122161702364 8.166779850252462 10.587275625056336
Re 6.212888758575171 8.302468151687698 8.905973650772989
Re 6.167853911313925 10.081885317012302 7.3567803241413605
