9
Energy = -83.50490911 eV
Re 7.040247301094658 8.294656271898253 4.8530056668400805
Re 7.142756562561277 6.0073855525444335 4.663892273932789
Re 8.94462032909173 5.74239878734399 6.060284830753664
Re 7.856338472725878 4.753122135446795 7.824303049079078
Re 6.946903846302846 6.9642538133955085 6.997106860239526
Re 8.024507901708397 6.559056027596048 9.238183645660047
Re 5.109230797616017 8.442443133735123 6.084423549417421
Re 6.127858447559424 9.10789943620696 8.035612744559407
Re 5.818550623857077 7.187428637592794 9.257318230291883
