9
Energy = -82.97233106 eV
Re 5.3649294675979675 5.86566362359263 4.445671703976454
Re 7.751869884685177 5.8669424509197645 4.445410349552692
Re 6.558695825723416 7.947798268517278 4.448703514735981
Re 5.307491327362089 7.280479355103377 6.553568924129948
Re 7.809877512594686 7.280675464878302 6.554635957920586
Re 6.5586881548621 5.114886183879136 6.565253856524459
Re 5.358122491075601 5.868904223727345 8.670799904504463
Re 7.760644231481301 5.868783920136541 8.670565239612964
Re 6.558457972419568 7.934643513537593 8.674167348598896
