9
Energy = -81.40822407 eV
Re 10.414470457530138 10.429149848834774 6.192809453840747
Re 9.017635847214583 8.707739444803412 6.023128198956206
Re 7.305878305570547 6.651954955910684 6.514346625752558
Re 6.898807323684417 7.2804745321577125 9.900099587723401
Re 8.83354268328132 7.154350440407082 8.397068976865231
Re 9.217783648354825 9.630475061046404 8.181113530179573
Re 6.894605133392724 8.680137025738082 7.886612262952126
Re 5.395511992441518 6.730013277149414 8.080802721125313
Re 7.230391052244846 5.283596651256231 8.560641912222627
