9
Energy = -82.16690131 eV
Re 9.795989468060219 6.0484428899574105 8.473099240290395
Re 8.355880826827068 7.34082404764658 9.761387077737743
Re 6.45211845844092 6.862327026711719 8.122243582719097
Re 8.448868606150544 7.864725811170822 7.040316328453062
Re 10.820649707088151 7.869228021561187 7.64559810993222
Re 6.822328989695002 9.347988761934921 8.108372896650584
Re 9.265054964926366 9.29815897207381 8.923566734480662
Re 4.637202708255002 7.844119996119918 7.123528555819985
Re 6.272859191889891 8.794799777632925 5.90490551985194
