9
Energy = -82.18598765 eV
Re 7.7761141604671975 9.323035230021661 11.152105437601293
Re 9.571974741040727 10.423701790679727 6.860519115690669
Re 10.235311171023076 9.046783539307599 11.148346406768988
Re 6.414038654278131 8.812436496296304 9.427404130647764
Re 8.247157975845608 8.666294061914952 8.007917818194038
Re 10.775782549930387 8.669343382409036 6.378119461175472
Re 9.242593179280377 10.534159579775547 9.500564651675349
Re 10.582961265002485 8.620040594392991 8.760287679547268
Re 8.828637626567211 7.353620340755569 10.108353013537082
