9
Energy = -83.5794178 eV
Re 5.438780783416757 7.15822765453558 4.231081587739788
Re 7.297115783661411 6.143698285338422 5.370156670364707
Re 5.21324624544081 4.69984955239656 5.592391728960447
Re 7.294839391894739 3.9188248305921203 6.542908451123933
Re 5.501962664524398 9.000227511292222 5.6180905634343254
Re 5.394849533796841 4.600791410920567 8.019809069125685
Re 5.39747272772649 6.793555111370219 6.870474293205242
Re 7.551579560261137 8.296433442624165 6.407589053885589
Re 7.448370863613013 5.910534411935311 7.90133593234835
