9
Energy = -82.84260032 eV
Re 7.905836887742429 8.17569605351555 6.847773622264855
Re 8.479457485692858 5.844703110552628 7.100348810845304
Re 4.725900368489158 6.168764936903034 7.076191542131761
Re 5.48041394418917 7.418418223266488 4.928939311586837
Re 6.067481118425072 5.004408811154795 5.178866542164676
Re 6.5125065532564195 4.5054539159889595 7.455745479274654
Re 5.531880005721097 8.507532060478947 7.038049443042182
Re 6.591156121731861 6.786602511534429 8.56905500358166
Re 7.803993507002336 6.6870456193243575 4.9036555949032445
