9
Energy = -82.77988955 eV
Re 8.700037237958627 7.154297864250892 7.77752176619887
Re 7.620386714496325 5.067175017463503 7.795024757856602
Re 6.925028930898736 7.816753252853147 9.161810040076947
Re 8.433253617899991 5.401866168388586 5.652830002052745
Re 5.464993048369578 6.393434235106597 7.751424698731782
Re 7.315142402199479 9.553780113925749 7.664458101476254
Re 6.20338281385174 5.962099444687429 5.498325260355469
Re 5.475134111594189 8.54404698313593 6.7283612300104325
Re 7.659032001764558 7.90826561135653 5.722375113416614
