9
Energy = -83.26204067 eV
Re 11.882384806252743 10.427911505131364 9.995195327862081
Re 9.770585704842853 11.341521976371796 9.921912535458832
Re 8.69354542373056 9.296238158815159 10.740513835048475
Re 9.22311206073764 9.848334510068876 8.104573800543683
Re 7.110946630055421 8.867605995899915 8.785165345212093
Re 7.171741971108692 10.927943237905847 9.56792727524963
Re 10.912537706206601 8.592789805447362 11.205236665342072
Re 10.055690133033432 7.666236492976024 9.258645076851899
Re 11.44284248487321 9.119284037367676 8.004759994404301
