9
Energy = -82.37403448 eV
Re 8.630201375256354 6.2062196179502385 7.600787113293157
Re 6.280697900524905 5.516015126737905 6.9059218613663855
Re 7.770497495719246 6.150045705213219 4.775574667831065
Re 9.233211381542809 7.549038389351352 5.832863486633886
Re 5.012880837798256 7.413044438177727 8.02977218754544
Re 4.273246696638048 6.557461140264336 5.905702288248137
Re 6.283657270384475 7.74070795060279 5.60371076305115
Re 6.743920045350014 6.262520033946948 9.232830623129082
Re 7.3977393150295505 8.250944356434639 7.764025761999739
