18
Energy = -97.65283436 eV
Rh 7.21964438921923 8.372605041946395 7.8342445425663065
Rh 4.454649780288913 6.092092123113187 5.748189477975509
Rh 5.062189652534044 9.412568496715217 7.1228208496229355
Rh 9.528653027710375 7.666491049787086 8.436721517526477
Rh 7.31366306979032 6.274380287103235 9.13305612064829
Rh 5.365167732535704 4.7106862686114725 9.192096633401057
Rh 8.063609257238618 3.6361977462201116 5.879517625036956
Rh 7.131127590879248 9.553210810245135 5.612139097197596
Rh 9.066704257164357 9.959688232506869 7.222133497146338
Rh 9.277935560481144 7.852422468471243 5.864702873448679
Rh 5.040347643851556 7.0052187049682395 8.029086874957331
Rh 6.304281429025504 4.9854650749300395 6.86924711462761
Rh 3.0789830260568247 7.991358054209173 6.68472756372425
Rh 8.859233318481653 5.662678558709961 7.126810037870424
Rh 8.724825333457323 5.664178994323788 4.581885384586295
Rh 6.862543351715327 6.990690451342185 5.431111370642144
Rh 7.7354718724643865 3.7980088751869348 8.536649863667552
Rh 4.886978644317594 8.432913444037439 4.830594224722142
