18
Energy = -97.94415723 eV
Rh 6.903987415697184 7.070356650141801 3.8462970014046722
Rh 8.512458341752344 7.673925232210911 5.962459242623707
Rh 7.996886250693531 5.206568769599774 5.373759264343334
Rh 6.5856573794293425 9.31939615697118 5.541806896579735
Rh 7.064939790053775 2.8423419009969653 5.238822711716609
Rh 4.503188438304629 8.098605074733294 4.481978645165737
Rh 6.659817016639381 4.55019638052636 3.347922782866149
Rh 4.6791827873310545 5.562299750340001 4.487823601339215
Rh 6.072363671948248 6.763481669954887 6.1876225522718125
Rh 7.008445382591414 8.454912561238432 7.922576400232106
Rh 4.708458854190379 3.0783850103237658 4.378157267201289
Rh 6.2768479345248425 4.272822202125868 7.146596152831159
Rh 3.274698166838543 6.684493838429818 6.301021932959979
Rh 4.56744391687928 8.699894087347149 7.068255661726085
Rh 7.900753253283478 5.974671235608432 7.855096261262495
Rh 5.166820887174464 2.049142760636121 6.667613793833064
Rh 3.898424692303632 4.269760760634859 6.571522343163005
Rh 4.8707502271063365 6.217119770383599 8.25628942589655
