15
Energy = -80.81186074 eV
Rh 8.006309299389683 5.144159764964338 4.463347782093189
Rh 4.908968748696114 5.225188709469725 6.456239990209202
Rh 7.876850768472689 5.141533268882328 8.633889645254383
Rh 5.824966350533921 6.515378839990138 4.349657983020555
Rh 7.3250953765337075 6.496519045913584 6.530631217861143
Rh 5.694697737713685 6.513047545478635 8.6162279014252
Rh 7.908209253318793 7.834268552763481 8.63630247145472
Rh 4.938379002997167 7.821774929427728 6.458820409299222
Rh 8.036367163069539 7.8369873532792855 4.465670199518598
Rh 5.782483068120133 9.056596671226231 4.418827482089174
Rh 7.1807904050616855 9.057640312070049 6.527681799717761
Rh 5.657077038968665 9.05438134720516 8.5481382285079
Rh 5.598028228838146 3.9734175691786695 8.54344826226167
Rh 7.1220068956411415 3.9392643768981612 6.523097036886633
Rh 5.725713648855496 3.9757846994631847 4.413962576611603
