17
Energy = -91.40596498 eV
Rh 8.156048756264191 8.39370770214342 4.009094190191893
Rh 9.152790706084124 6.520228111318319 7.793321832102877
Rh 6.650099501092927 7.122528307150099 8.043725766635585
Rh 5.743829725405695 7.227429570205615 4.151155239809316
Rh 3.757439806008047 4.92328985882839 7.067754324757399
Rh 4.5030390223459 6.529201190302905 8.956015805512134
Rh 5.75617684249237 5.009106154654656 5.462556713359203
Rh 7.782454765404216 6.443734924524468 5.590389721409317
Rh 8.403765608473524 8.761327193102378 8.56975413465804
Rh 5.363199979808973 4.217889204048662 8.879922033030269
Rh 6.683321431617082 8.709229139843972 5.994904253420112
Rh 8.926898240062897 9.659813360385918 6.400154741757799
Rh 5.548598750377838 2.9316566289928376 6.732562177623656
Rh 7.335965332162801 4.68313463896617 7.457849059379129
Rh 4.635976772527871 7.290352892316637 6.451738593356026
Rh 9.961204012871827 7.606815521616127 5.696258425569072
Rh 3.5618456981222417 5.882110148265008 4.6839582795328925
