12
Energy = -62.29513634 eV
Rh 8.714553906718868 6.96311695960009 6.565674254279062
Rh 7.565401451166074 8.290756917826066 8.408665491181237
Rh 7.907828833203224 9.346704918123224 6.110975992589908
Rh 8.745913163082601 4.497800933175446 6.583573357249562
Rh 7.627548026553722 5.668140284266761 8.458382262820274
Rh 5.490595208793558 6.877863834163095 8.851910820159294
Rh 5.7432576976396 7.954556945798455 6.610500236339012
Rh 6.522055343657864 5.4235084416826975 6.154981210182002
Rh 7.144631641961028 7.454695815611326 4.649137753537642
Rh 4.12158302269961 6.35456893963926 5.739740487811826
Rh 4.595553469586983 4.968126814553494 7.690981732386025
Rh 5.4994263501026746 5.900817733908573 3.86413635209814
