16
Energy = -86.19683264 eV
Rh 9.03496848723865 7.811733937171364 10.62761704254402
Rh 9.646095361073677 6.329279846869184 6.856304203421124
Rh 5.210866148499482 5.588338885762767 5.711538846575274
Rh 8.536847499695604 5.82120902166459 9.107645998357082
Rh 4.668667050947348 8.028962679195734 5.733041455184033
Rh 3.993624746022849 6.8475764944913236 7.809324414944159
Rh 6.779081844200667 8.38106163215424 6.956677047576428
Rh 8.044067166240731 4.321621064816107 7.130627711720506
Rh 5.146575149751742 8.771430718885547 8.75999943888611
Rh 6.10406291190931 7.406556669736424 3.873222181793308
Rh 10.079980980911591 8.629134407202587 6.122234029755747
Rh 8.860606232087287 8.269549992711873 8.217392785754713
Rh 6.750646933081761 7.46096004864683 9.959489302389912
Rh 8.017975934042404 8.720839091536291 4.908366998698771
Rh 7.604597035076896 6.341970253216801 5.602166523261739
Rh 6.318546606678354 5.999650782627052 7.92621440668354
