10
Energy = -49.60842052 eV
Rh 6.703401147650291 6.850025629361161 3.243179618560436
Rh 4.760344466609175 6.724630004965466 4.808408721728837
Rh 7.128302270294613 7.214252742848729 5.643645492965195
Rh 3.203112325309032 6.411624078101507 6.763601005529507
Rh 6.667994095317294 4.877770096023237 4.655234468269269
Rh 6.946826974377769 6.763986443803856 8.219342780553188
Rh 5.3657314372771605 5.31991844479562 6.880693473800949
Rh 7.928468305229299 5.0089779584227765 6.737784030876133
Rh 5.089300976356745 7.958343133761694 7.068857663086707
Rh 9.000019834353347 5.6639733006910795 8.772754577404912
