17
Energy = -92.01520367 eV
Rh 9.475922904086442 6.023928327526962 6.1035861909858555
Rh 8.477642351881533 7.2971103461995215 8.218727436862174
Rh 9.068222947482555 7.0465140684492225 3.785881652519435
Rh 7.6230378125767535 7.681514796890613 5.7791885929307165
Rh 6.542788317782062 6.08009124431175 9.47274674719993
Rh 6.074792392266416 7.975055766807966 7.7655360225867796
Rh 7.096173044121021 5.4921777580214455 7.083335228481538
Rh 7.5599307839970145 5.226468449555614 4.6001425259095585
Rh 6.585202004040392 7.361954357035521 3.435137685948749
Rh 5.739384905552128 3.7909024578587993 8.404957278488334
Rh 4.993474799135099 5.408480507497046 4.233389073410545
Rh 3.6322998020213237 7.602264844549578 7.678627523164085
Rh 4.599593835759212 5.447163872459254 6.754386006555018
Rh 4.159780887663403 5.686451732280529 9.218413974183433
Rh 5.011500067735324 7.6148925791335715 5.478414398533501
Rh 6.000381814004019 3.6081446787294404 5.729936782844153
Rh 4.165564578924065 7.5137459906263295 3.1702877760294697
