13
Energy = -67.99591662 eV
Rh 9.00939990352246 6.609955778581685 8.234063062812998
Rh 8.483493966765678 7.359508373387478 6.013291201215387
Rh 7.734102980511296 5.018571180878689 6.9069097679477744
Rh 7.9629543464755566 7.683286817386058 3.687707745484629
Rh 6.599287198750114 7.1073649904449185 7.850794121133835
Rh 7.083446218680739 5.570320636893434 4.485628383840723
Rh 6.266885221915472 3.492432998177759 5.649503273860683
Rh 5.992938030273309 7.696290058231333 5.2844281450645445
Rh 5.2484790903114655 4.825168097882471 7.543078003910955
Rh 4.8359713635752435 6.39028508692119 9.340183448422906
Rh 4.665757702280138 5.420217878951431 5.1559604563501935
Rh 4.124533957133605 7.1044571695785175 7.019051626149761
Rh 3.6735409027220878 7.594720050909227 4.6023642290028555
