13
Energy = -68.3985405 eV
Rh 6.957651032314526 8.66203288491343 5.025928510039355
Rh 5.155573221142443 7.179383601485222 8.882352627785037
Rh 9.057235149888285 7.191551301549056 5.765945892887939
Rh 6.5498339266413215 5.009872044542435 8.735891907098315
Rh 5.5524262025542175 4.571194064543508 4.697592683494175
Rh 5.125556218395539 5.95630070310029 6.725666425309607
Rh 7.316994901497097 6.340428369104037 4.042204285101646
Rh 8.870141654579895 5.948533503994775 8.098391681625516
Rh 7.420064602525419 5.207032550367284 6.232388033711491
Rh 5.019247698732977 7.077603502858497 4.519786880873698
Rh 7.487692287442312 7.12183267856561 9.852172023816559
Rh 4.889903221506565 8.575177100386561 6.643716153809537
Rh 7.1583570811330155 7.719734884316571 7.3386401100512035
