14
Energy = -73.96742683 eV
Rh 6.8704986190446995 10.384362999999999 6.678599534799026
Rh 8.188033465073653 5.548785720353211 6.306908032308691
Rh 8.188033465073653 8.192211517736183 6.306908032308691
Rh 8.6304002710987 6.8704986190446995 8.442587926524125
Rh 6.8704986190446995 8.637755353446703 8.50532203341611
Rh 5.552963773015742 8.192211517736183 6.306908032308691
Rh 5.552963773015742 5.548785720353211 6.306908032308691
Rh 5.110596966990702 6.8704986190446995 8.442587926524125
Rh 6.8704986190446995 6.8704986190446995 4.536589884919113
Rh 6.8704986190446995 9.297093004276283 4.414215529678166
Rh 6.8704986190446995 4.443904233813116 4.414215529678166
Rh 6.8704986190446995 5.103241884642696 8.50532203341611
Rh 6.8704986190446995 6.8704986190446995 10.341308450917806
Rh 6.8704986190446995 3.3566342380893968 6.678599534799026
