13
Energy = -67.84963436 eV
Rh 8.204734170944528 5.0678540288751925 5.238031885887806
Rh 9.919799847303869 6.667638679795123 5.79360035699218
Rh 6.152315423490797 6.58536418526895 5.520468915813431
Rh 6.078921563717763 4.187762823735274 4.375903735493954
Rh 5.886657036128669 9.227037782226516 5.433002732221928
Rh 8.08456203273097 8.231265403063103 5.895875712889629
Rh 4.457701854075012 4.745815320511456 6.14308497500702
Rh 6.724281530913041 3.9715757693926044 6.97950212826182
Rh 7.980455724041558 6.243308890211806 7.502341449411415
Rh 6.553932312824061 8.432689383418435 7.908502844158996
Rh 5.521592615581524 6.023355920154779 8.088555309972497
Rh 2.974196713139978 6.038566174816412 7.550133588144724
Rh 4.337758387553734 7.890538191563863 6.802128772291549
