15
Energy = -79.72047115 eV
Rh 7.323627177084552 5.705654858523174 3.553189889334935
Rh 5.2568913020441865 5.146550446208158 2.1311440370620436
Rh 7.276196446962907 3.649657701709317 2.021923605534031
Rh 4.994789515311538 6.190150668511102 4.411825709087646
Rh 5.171353671886537 2.8576951474872057 3.1474331958075132
Rh 7.243071872537347 3.412913471524019 4.575764674543473
Rh 3.2253192603217378 4.521484673684926 3.633903954374722
Rh 2.645505111233084 6.561225671163079 5.200663006282469
Rh 2.5768781783816603 4.292523603529232 6.183173252084259
Rh 4.919180731133923 3.8647661597948404 5.4347618441214625
Rh 6.799355648720177 5.461717223737513 6.036490896862295
Rh 4.781353090359188 7.765967751306696 6.246328032206767
Rh 4.682465145708291 4.107729874434 7.831302158423669
Rh 3.382210242662782 6.232420248577203 7.631900535537605
Rh 5.848317522358276 6.3560574165154335 8.086710125442565
