16
Energy = -86.15520793 eV
Rh 7.675179791328015 8.641512043911 4.70992472591049
Rh 7.782196240681015 8.23358465219786 7.289954487121391
Rh 5.58614213022965 8.015738548031976 8.716000467573812
Rh 5.605796764459247 7.937805243743806 6.0465737061479485
Rh 8.232759903236994 6.374413514584856 5.655415528942077
Rh 8.612695246104778 6.8624341789785435 3.1477577999857362
Rh 6.241817550199501 6.6352057817039745 3.9077759362297755
Rh 3.7987980882643018 6.917738033288511 7.305765226574489
Rh 7.694464049570914 4.590746071078805 3.9333757857921334
Rh 6.543540707108003 5.986152195448068 7.555900194383814
Rh 3.8625901231070903 6.477512378091223 4.79858531962353
Rh 7.844194100354837 4.002902568208624 6.41535117547659
Rh 3.5072320318692123 4.513673849785696 6.856823023917766
Rh 4.538558613000617 5.407268226981419 9.12989409840932
Rh 5.721667684577594 3.6071662118287207 7.82074280537857
Rh 5.588443539837164 4.751309555082532 5.4871188236671085
