10
Energy = -50.54325805 eV
Rh 7.7710463186415355 7.18450643757103 5.725687149686527
Rh 7.855090208170232 9.05943814793972 7.404943213543844
Rh 7.443090972666407 5.012178151787769 4.377869546630889
Rh 7.537522182884327 4.864054047874231 6.816988084204521
Rh 6.6266023593301 6.960477235052016 7.99617453411472
Rh 5.680229224189532 8.635292212288787 6.258624929773124
Rh 5.5737763560738545 6.735360850849856 4.5942908476575735
Rh 5.527197337258126 4.640419471519508 8.206577815828904
Rh 5.341981951599331 4.4190027183248 5.676484689420398
Rh 4.441607757736059 6.507209694205741 6.853296811789157
