11
Energy = -52.09556506 eV
Rh 4.5238467093185175 5.0115343164874355 6.903161802811196
Rh 5.090397499980659 7.48217060852472 6.798285621335589
Rh 5.8330626915721115 9.786091429585852 6.726473481031454
Rh 7.569881484464062 8.07080141161325 6.799757871017076
Rh 6.910819040836733 5.664421627580517 6.8746600651648615
Rh 9.338387626813155 6.264837519408025 6.8599666114090585
Rh 9.9794364965484 8.598619488098613 6.7734870789161965
Rh 8.274904430111512 10.391148532537537 6.685503673805504
Rh 6.224820807895802 3.2845951528873285 7.019318950108153
Rh 8.684968339656413 3.950287863909069 7.010993772747296
Rh 2.823031336864038 6.749048592266791 6.8019478510639315
