16
Energy = -85.60437417 eV
Rh 8.102985679687697 4.015824201249729 9.069035678048852
Rh 4.378923993966965 6.3892104169791875 8.189281056287555
Rh 3.39128165010918 8.174537215979173 5.093195405135037
Rh 6.123041620220244 7.675213279303396 6.928546140912203
Rh 6.81153359347344 4.375945302975023 6.934996816998846
Rh 7.980696361756469 8.713208131634552 5.630961600701289
Rh 6.866114831037604 7.693230225520519 3.587867693705861
Rh 4.5139028521043425 4.736119237394311 6.428656701681039
Rh 9.001784095975646 4.168698749909617 5.772233186840378
Rh 7.714386262440067 6.1523546105715665 5.392278298138761
Rh 5.167462447837096 6.54972277136949 4.9710321269245945
Rh 8.628403740255088 7.053223020621082 7.577517601194391
Rh 6.66308710712559 5.913466244175927 8.790870263813291
Rh 9.85011239271562 5.045346284633371 7.8293744197765625
Rh 5.579458839187578 9.33281194642772 5.0777888636931054
Rh 3.8803751848160966 8.6648300023182 7.377944235194913
