14
Energy = -74.14444571 eV
Rh 6.043171303942268 6.727276758608936 8.473753451073538
Rh 8.617029000968095 7.044485351075207 8.84403184288987
Rh 5.021140477455188 4.43982189567185 8.766508641859508
Rh 7.54487558028386 4.724421858720057 8.486026226486654
Rh 3.8913124662087246 6.043126116538714 7.149660090165352
Rh 5.919221535188421 4.765547184460831 6.428000272112838
Rh 8.027288894579877 6.268428873737043 6.525605167762348
Rh 5.613981884363025 7.543185276823712 6.05090946088643
Rh 9.69821363932931 8.16672028041881 6.816515574554406
Rh 7.330107686770382 8.765115716338318 7.442754110792987
Rh 7.798750021686048 8.243632839643942 4.943209064476073
Rh 5.560031558169447 7.882333839849956 3.540409116683744
Rh 4.388993180456787 5.878679540643216 4.628176202410703
Rh 6.9274435877060485 5.8887853424807 4.286001566001182
