12
Energy = -62.47396494 eV
Rh 7.766746386523639 5.635601707903529 4.282005520006915
Rh 8.08250944997008 4.560895277127792 6.593177693946268
Rh 4.331343775129264 7.832987050944691 5.742271685062198
Rh 7.234736891930204 6.926310674643988 6.471262432939448
Rh 6.33217354719112 7.674095455611858 4.125885051727073
Rh 6.373949379916027 9.324361289275522 5.971071216772459
Rh 5.724721128188949 3.7971281232835827 7.048171104353739
Rh 4.236454876281005 5.8656364754523365 7.578046663997641
Rh 6.723747433523194 3.440408639980724 4.765540067712251
Rh 6.533065014554846 5.644238379795317 8.53252102561627
Rh 5.383078754340257 5.576516619827797 5.349632111016629
Rh 5.5465737179721195 7.984804404914557 7.944351348214541
