13
Energy = -68.04289126 eV
Rh 8.485235178030463 6.0547333257558185 7.555811462607761
Rh 8.447360911386737 6.943757369203508 4.978896969606865
Rh 7.728891849149648 4.700532810517893 5.6050021133967345
Rh 7.0527428198104385 7.942371340470607 6.836763924059229
Rh 6.3903963879003065 4.647116395671385 7.675764999214656
Rh 6.186383276739115 6.751081705068604 8.874161961342251
Rh 5.491460673275701 3.5722279546709688 5.595321984958231
Rh 3.9531121050272033 4.844235327152612 7.320631669001595
Rh 4.682378292749 7.203029655637802 6.918556249061697
Rh 6.436822651294155 5.1935795511054295 3.5907944233865026
Rh 5.162754935746059 9.332534447806113 5.838090533951541
Rh 6.032799146245394 7.486869219310163 4.531431673538539
Rh 4.3477915144664125 5.669153960556437 4.956118887434183
