18
Energy = -97.1146848 eV
Rh 9.234081473478456 3.850735098838019 5.544056465034412
Rh 9.8658187765538 6.126208135883703 6.612467291149357
Rh 7.7885255840650665 4.915348444500167 7.304887628887344
Rh 4.141738185646974 4.810545425658665 8.555473696046136
Rh 8.12051435390937 7.358680701547613 8.098253628326503
Rh 6.290145824883509 5.6841071413206805 9.215920651190832
Rh 6.921988446116983 4.62790052258044 4.859328928712597
Rh 9.041238967658785 5.851962255635241 3.996355257934014
Rh 5.443126573794857 5.862218028708362 6.67555619590885
Rh 3.391543419277764 7.044244656344676 8.068807750929851
Rh 7.035520484300495 5.768874509687345 2.606501971513779
Rh 7.727251984443426 7.016450570765539 5.6681029298589
Rh 5.536922073271976 7.915978457554377 8.637790778664037
Rh 7.58571424748811 9.228143738180382 9.412580778027094
Rh 5.630726018961992 6.850059581791188 4.249558362078391
Rh 3.6905857768388524 7.521404747324775 5.669867913620678
Rh 5.874456211752595 8.60143806969391 6.240845382818197
Rh 6.03667991428877 10.280730498085866 7.912017246638271
