19
Energy = -103.54704342 eV
Rh 6.662761467730948 4.445863983524713 9.144450418440911
Rh 8.01329449295171 3.430382159351346 7.250311558779234
Rh 8.889470915963084 5.551803201083607 8.45731597182105
Rh 7.124517792882431 4.1212150810960235 4.858885177606529
Rh 6.673249034464234 7.167578569314809 8.98526845080025
Rh 5.11689250127158 3.9846248265327264 6.845009995207095
Rh 9.199748301744942 5.2934915286482145 5.854098684036017
Rh 4.569977814398344 5.719618285091518 8.665956604557307
Rh 6.886344380749156 5.762098822884122 6.8704673591069305
Rh 3.283226364279157 5.843212967823887 6.511300604773612
Rh 7.636759722305008 8.171529362305108 6.644752492402563
Rh 5.1462943825488745 7.590626383375549 6.953091459087749
Rh 5.108116681816909 5.636796668604288 4.790712051719454
Rh 2.791284462715272 5.939899225126095 3.9160221918280587
Rh 7.5912829714556205 6.6799268641885 4.504717366005428
Rh 3.4517571867408896 8.043751860613035 5.103284881786042
Rh 5.914170024168676 8.502196479374973 4.713972828095383
Rh 6.409603367728046 5.638466741961512 2.633521794246178
Rh 4.6525659069994445 7.325136449429462 2.8491969901891445
