13
Energy = -68.5362348 eV
Rh 9.233663788347473 5.045332174410886 7.619603663345432
Rh 8.62345921033363 5.826249055910729 5.380983639706266
Rh 7.971398608518812 6.771128866133531 8.649870292032269
Rh 7.417380752192217 7.421802223256135 3.7879151926313934
Rh 7.2203581446351786 4.046834128562062 6.644157060044841
Rh 7.309994039811073 7.625791800442613 6.358289287955945
Rh 5.869728379548132 8.224588127906204 8.315314308752194
Rh 5.863672256123974 5.808721877892254 7.62956592786968
Rh 5.352282935786138 8.110158710571152 4.969890007455422
Rh 6.071861341773332 5.565391713970946 4.822481223123573
Rh 4.681842391010888 4.011539109191408 6.214861676848752
Rh 3.993270713814605 8.725231516995956 6.920379791815027
Rh 3.9612462569964584 6.381127576794236 6.19727496541772
