16
Energy = -85.53636426 eV
Rh 9.74638977523344 7.818377465021158 5.576871922529381
Rh 7.891516720061441 3.7744436627935594 7.008673658942649
Rh 7.489459656475907 5.0052639966470815 9.072092645458957
Rh 8.362272631707956 9.22910525204835 6.971587432421658
Rh 8.27416326015624 5.846751219003569 5.843863679503625
Rh 7.883530078674494 7.6040574754931365 3.986660154852567
Rh 7.599106422253371 7.043512173185584 7.856498511918897
Rh 5.467300175439655 4.468883271847517 7.732451782765193
Rh 6.746607200740523 9.393312549322339 5.2471076989870555
Rh 5.965398457839523 7.120055960311725 5.710557304051114
Rh 6.062634527281095 4.6554043485444785 5.271026084262817
Rh 6.4643544669040045 9.129911703370757 8.645474383899124
Rh 5.145581064587472 6.9060638292743315 8.140828500136587
Rh 4.192349397739395 3.206547667222537 6.028916347421606
Rh 3.8911844047647155 5.712481638094533 6.1697231843637494
Rh 4.83255315199627 9.113152213185096 6.792601672984885
