15
Energy = -79.91741092 eV
Rh 8.26903194197932 8.524986053575006 7.58056379302413
Rh 6.776037493156688 6.552014718475257 8.72654974342206
Rh 5.645722027974463 8.500898729051295 7.445742450786572
Rh 4.2650277343348 7.0879790784468035 9.008625442948127
Rh 9.092857596100563 6.0906873793865985 7.613462391097717
Rh 6.976512760325645 6.834781563034704 6.202368758789094
Rh 9.37028373494955 7.550302963933004 5.436179395981194
Rh 4.986085930051105 5.389717431423616 7.240722620589586
Rh 7.236477860060086 4.267211419879456 7.3593562086528665
Rh 3.5039417674482025 7.289009899866504 6.629490622579086
Rh 8.666430288408865 5.0276299894976395 5.3164502559323115
Rh 5.106749807816445 7.135775642652832 4.606206620814013
Rh 7.5541639146718875 6.735417162976643 3.7614140682997665
Rh 6.079642262330092 4.754094510462997 4.984682412742985
Rh 3.5340266918327163 5.257750533205607 5.15031525289753
