14
Energy = -74.42997044 eV
Rh 8.67273482256727 4.376201295377689 4.857565367260871
Rh 6.298703816090175 4.682041242456359 4.1205623218511676
Rh 4.657732990255283 6.285325181524621 3.365691100012223
Rh 7.897121891059463 4.275188221599271 7.148190068897373
Rh 7.629198262646391 8.967308767479718 6.136457414491361
Rh 5.7797546185207445 8.001215519401626 4.718423333512138
Rh 5.823137298061886 5.322755082284159 6.4201623511559305
Rh 7.729347669089194 6.635156456443655 4.950864489534928
Rh 3.923976421397901 6.549864557526753 5.688115387017328
Rh 5.657099628198184 8.011359417325547 7.331292465059418
Rh 7.8884003759330374 6.82587445152812 7.397636679030665
Rh 5.281203099852996 5.865203653292505 8.701509113302011
Rh 7.544111443642622 5.29986555109474 9.343883652020155
Rh 3.397556644390057 7.2080590529290145 7.974643676964591
