10
Energy = -51.66600013 eV
Rh 5.3260112119528324 4.684102092173823 5.320906787844041
Rh 7.719505570908421 4.684037965062256 5.320826990910441
Rh 5.276014709743607 7.055599223894776 5.34064828426192
Rh 7.769448314135424 7.055584891371983 5.3404876870315725
Rh 6.522699768302836 9.134699961469082 5.312014181196419
Rh 5.326020629712337 4.6840015562908555 7.724593183998686
Rh 7.719520343396251 4.683984184662499 7.7245008096678225
Rh 5.276083598412048 7.055522511229124 7.705079278489191
Rh 7.769511928514968 7.055507794630391 7.704898621033014
Rh 6.522835040888245 9.13461093518253 7.73369529153397
