11
Energy = -57.15341678 eV
Rh 6.728296436343782 7.743588889188483 7.098880713619438
Rh 8.840728258673163 8.325434668593882 7.426682157029122
Rh 8.53184475884974 7.785375231127534 9.765752245798684
Rh 7.6162856958144936 9.625994214579812 6.184181088383606
Rh 10.432767709859597 8.834014815640371 8.87474357866266
Rh 10.411898987917517 6.672141872352451 8.327081723798448
Rh 8.277036768052383 6.117005863288881 8.327081723798448
Rh 8.460589547258994 9.912921047374546 10.121656405274225
Rh 7.133597588129663 9.271909467382303 8.374967920503927
Rh 8.88413325650992 10.460503100883564 8.0024949823315
Rh 6.460523244129916 7.385311578048571 9.27417871233951
