13
Energy = -68.81093841 eV
Rh 4.780169898370075 5.351214462301831 3.7671613295051922
Rh 5.179140919755247 5.356239087293832 6.153873965611156
Rh 5.499870983490941 5.352036661143964 8.636695970185148
Rh 7.150921868703368 5.375561438534943 4.5518763606363954
Rh 7.571171272788044 5.3783557855748425 7.095809577647261
Rh 7.789921042884636 5.359746361593576 9.526411921651526
Rh 4.764496783837337 7.727543641886474 3.772054567880955
Rh 5.164903302946055 7.7190377393506076 6.158459352908355
Rh 5.486688940314756 7.717966894360155 8.641366679976286
Rh 7.137109711909634 7.728665340240493 4.556903128771992
Rh 7.558117734264619 7.720451790735808 7.099067589860075
Rh 7.776083257632391 7.73458612903884 9.529529296506254
Rh 9.221113513481985 6.558303914209741 5.590499441580352
