18
Energy = -97.74287948 eV
Rh 6.49874039832489 8.630477860945849 8.18733686166241
Rh 7.123790103717432 7.70116686019318 10.280042762080765
Rh 4.324781468382496 7.01075506931294 8.329380302272975
Rh 8.668059325281895 6.038321111234953 6.071268072067145
Rh 8.4138884069543 6.119925970732262 8.764164636394957
Rh 7.623456509465612 4.178821605729942 7.471630345190655
Rh 4.937017360623264 8.184086341532185 6.200757863758503
Rh 5.370277222490381 4.617660904412489 5.964712436869256
Rh 3.2269837201994367 5.325180390110688 7.03926827621675
Rh 5.972950598484301 5.656880494789292 3.724489394387314
Rh 7.626017866181988 4.102236403110972 4.876968048744579
Rh 9.347749321726724 8.247583992566318 5.005535086206774
Rh 9.46240423489535 8.10524746046441 9.785856195964643
Rh 6.420225863478447 6.333128320928648 7.225633955356192
Rh 3.8523786046916433 6.4373032054684955 4.953951940779009
Rh 8.91465506860427 8.331264676733094 7.474350881503267
Rh 7.2928075192713155 9.596214964508633 6.021595692270109
Rh 7.008905257717045 7.449586432311741 4.822008292398782
