18
Energy = -98.07582328 eV
Rh 8.906581067023774 7.664472163388622 4.154795620917415
Rh 6.8253379610769995 8.672636911017795 4.755672340348316
Rh 8.113310651331625 6.938298596298678 6.456378661472199
Rh 5.795515708935604 6.341986741280989 5.002471476772919
Rh 7.595672062075763 9.267077597036508 7.138758614994941
Rh 8.038873150860828 5.439723266588935 4.173945972177326
Rh 4.362735393227373 8.4030589404489 4.52380618954458
Rh 5.978787202271077 4.123885857598611 3.7427837057046336
Rh 5.336829633977357 8.167410055026561 6.823402360278845
Rh 6.838892263939966 7.442171438558472 8.699403622568733
Rh 4.3263157538672 4.293714673728512 5.610486567523934
Rh 3.4384254881096203 6.642640312094466 6.052086245602263
Rh 6.82747930021731 4.1956508898714135 6.103864195085912
Rh 9.280168551632423 4.750940904689237 6.3346283176099165
Rh 7.71550506229085 5.0765218111129515 8.275241879432844
Rh 5.18608004273003 5.609777177366146 7.742789542251538
Rh 6.055543318097941 5.5379436217186875 10.035116394875958
Rh 2.8826595587652566 4.759409817544736 7.554283153797291
