11
Energy = -56.15133709 eV
Rh 4.07360600628539 8.792375793821423 5.8368518159696965
Rh 5.924925795807954 7.162763988617226 5.000148754357625
Rh 6.484106766432671 9.348814671991017 6.291746368446864
Rh 7.909076703164043 7.369911397104445 6.704810080393857
Rh 3.648842235671768 6.317567105299321 5.9124021459703
Rh 7.84269062902871 5.386389666001472 5.127721713515164
Rh 5.412148235181707 7.330575890692975 7.521935004310934
Rh 5.6795874637688755 4.970662840737259 6.413170942833772
Rh 7.180515618669506 5.607572332786922 8.373740540351276
Rh 7.687007092078346 3.5917892920038548 6.916897555216298
Rh 9.403435739247803 5.440155795525115 7.141264440583361
