10
Energy = -51.15422316 eV
Rh 7.592916455887079 7.061588538189769 7.579270297588666
Rh 4.653289230245749 5.200164174647231 4.677087647020282
Rh 4.767190816424704 7.705887491858032 4.228070909739077
Rh 7.048737151987416 5.387931623738572 5.669388083862129
Rh 6.547760190886212 6.272175336989189 3.344457524607998
Rh 5.703123698747227 5.977041563971789 8.90884190964554
Rh 5.205355616882805 6.8659393180990484 6.584754357486624
Rh 5.145024943060329 4.31065233172364 7.060906546215422
Rh 7.116046103733662 7.936396641208896 5.191598296264156
Rh 7.490835246374166 4.5525024338028794 8.025903881798845
