18
Energy = -97.26257699 eV
Rh 10.424356234503984 8.22863337582974 7.050998372837792
Rh 8.333408348541736 9.275810342761694 6.281179205654198
Rh 9.296002779205793 4.291503351250067 8.932359305912223
Rh 4.99093591401466 6.883409082487642 3.6523974338078733
Rh 4.403369743744 9.19056843371397 4.64104460548505
Rh 7.137204081966352 7.758909920158044 7.831858622839244
Rh 5.539676964960469 5.761317737408081 7.053642224385396
Rh 5.87504422343663 3.3749786948360607 6.113033464092606
Rh 3.059928244324733 7.109694778112754 5.2364075645057095
Rh 4.575364426911557 8.070748960305924 6.972888622409211
Rh 8.651810573662583 6.781104845952781 5.9197874135497335
Rh 9.349515758713636 6.661371263586202 8.447512500045635
Rh 7.131924557834494 5.616431208535336 9.20853559506301
Rh 7.865086784016184 4.541513885188619 7.018258240746048
Rh 4.1912803459566454 4.968274377910463 5.152663338523992
Rh 6.491709257117375 8.00316207929267 5.2580581773294295
Rh 6.799451179717913 5.383999402542829 4.835617038626241
Rh 5.105903467661685 7.031184831285617 9.194334428400635
