15
Energy = -79.9610385 eV
Rh 4.067386310663038 4.755271159035813 2.546965149686376
Rh 5.041615319282496 7.2227501279812465 3.143064673654878
Rh 8.420394454364637 4.921330822577311 4.691660925282117
Rh 2.7129209553062523 6.175939875950618 4.048141482395458
Rh 5.986480440131243 5.024926081370671 4.012605741316025
Rh 7.008668110966148 7.145403200732997 4.979806346255609
Rh 2.666582103152991 3.656465872981544 4.354664553797524
Rh 5.009317577204394 2.704398137137945 3.985493887900438
Rh 4.6176839007555515 6.464988054415422 5.533164973961462
Rh 4.1290895468946776 2.934352114694484 6.3558823204403705
Rh 6.556732561867604 3.571570371279672 5.871614402953777
Rh 7.63002756891299 5.641044313830862 6.95032614645207
Rh 2.7531183654094775 5.063220824129805 6.487120356853239
Rh 5.98894267003647 7.469648595838103 7.406797108781381
Rh 5.178038321202122 5.015688654193279 7.3996901364192045
