16
Energy = -85.79782696 eV
Rh 8.638160253620672 6.1155191274513925 6.7805265191789905
Rh 5.775709172891541 9.556767677752406 5.090506099987001
Rh 5.738603569271156 3.1947637121634855 6.049686309118097
Rh 4.617480537304073 5.165239204694833 5.111954684071163
Rh 7.80132900043865 10.216602737825424 6.891271363651797
Rh 5.8275062251693 8.8489250905176 7.48651970141049
Rh 8.313219300689425 3.7068283170988066 6.804523980932071
Rh 7.169171214111108 5.016195783211046 4.9314252315471725
Rh 5.993132607408027 6.4388628652595905 6.743637934521629
Rh 6.059242386376936 6.8078118083350665 9.208245959556889
Rh 7.7885605784840175 8.090500522076859 5.555988914084409
Rh 4.047759488670705 7.797904826514395 5.9419849088224375
Rh 8.1062173057913 8.089314895142861 8.276301149279215
Rh 6.296390358367882 4.439806405166844 8.091092314193485
Rh 8.275623001330995 5.590311199163984 9.136891761973283
Rh 5.790816751381407 7.18946969093114 4.211127491856135
