12
Energy = -61.84310525 eV
Rh 4.4775566150274 5.674514490102084 4.196736587881574
Rh 3.1418366118390493 6.853450923871678 6.130965153454631
Rh 5.334941228590985 7.694570941534197 5.486170384513455
Rh 6.89605090063319 5.746908274274696 4.8387713599837365
Rh 3.8447020017827422 6.707810331016054 8.433099252010228
Rh 5.106514387811579 5.294667180564024 6.66686541540453
Rh 7.822738500090846 7.851996155733675 6.070073203185438
Rh 7.572149175141627 5.509736235192258 7.2962558453847945
Rh 8.957863443645264 4.640417254944121 5.309552554556231
Rh 6.0513448355636035 7.440462888942893 7.926783195328879
Rh 8.502317767001362 7.531128411615479 8.53369323553723
Rh 9.809115116263515 6.559816819199204 6.507307743572088
