13
Energy = -68.34639075 eV
Rh 4.885590109876513 6.762469979834048 7.589863156539949
Rh 7.490876522718197 7.151259243953943 7.856337074732551
Rh 4.411308219036691 9.007439379665577 6.699794548270502
Rh 6.213614478996216 5.68439511915965 9.33993522272601
Rh 6.717494585788158 8.84690016005242 6.245769180137787
Rh 9.073515554649024 8.489229873780012 6.455416435750613
Rh 8.936321283549402 6.800357602830125 4.752231619213027
Rh 6.47555581139616 7.023199137619363 4.781752608161076
Rh 4.067925801919137 7.059627579311944 5.152858902297196
Rh 7.72933091462065 5.41536037692546 6.238352158968113
Rh 5.083669812811846 4.89514070191086 5.995921827074638
Rh 6.472743708294346 3.8721510959378658 7.808218808372699
Rh 6.779609141485922 3.28164667344167 5.381292153172185
