14
Energy = -72.1890484 eV
Rh 5.873907361774836 8.739243496357828 8.206637430412805
Rh 8.05396876408747 7.675911093806612 8.121343485934467
Rh 9.95408839361682 8.730765387099558 6.928498402108888
Rh 3.9029084106009595 5.126231417118227 6.928498402108888
Rh 3.9232641313622993 7.586114849659687 6.928498402108888
Rh 5.803028040130309 6.181085710411159 5.735653318283311
Rh 7.9830894424429335 5.117753307859951 5.6503593738049664
Rh 9.933732672855479 6.270881954558085 6.928498402108888
Rh 5.873907361774836 8.739243496357828 5.6503593738049664
Rh 8.05396876408747 7.675911093806612 5.735653318283308
Rh 5.803028040130309 6.181085710411159 8.121343485934467
Rh 7.9830894424429335 5.117753307859951 8.206637430412805
Rh 4.342650360567826 10.115740000000002 6.928498402108888
Rh 9.514346443649943 3.7412568042177763 6.928498402108888
