11
Energy = -56.52710378 eV
Rh 5.891540387914064 7.779363218502136 3.5038878180876147
Rh 6.629379246533422 7.67558413623142 6.067963788523537
Rh 4.272789788427331 7.077879790306637 5.169461398485479
Rh 4.720273676429785 6.938042052873355 7.717866728326268
Rh 8.317921005666182 7.200392944160056 4.110100955389984
Rh 8.534754236893422 5.905379391077897 6.150025385680781
Rh 4.432091786875567 4.862869294197654 6.4762385903383075
Rh 5.1693827990232535 4.729285106371952 8.918540382964636
Rh 6.345152363196833 5.5451308247476545 4.808556141318766
Rh 7.085014438350739 6.279597211545103 8.247402819268467
Rh 6.791546191762819 4.196321951059381 7.019801912689705
