19
Energy = -104.63914794 eV
Rh 6.394335983383049 3.860135797100068 4.272476303527088
Rh 6.072094518838784 5.966463988036374 2.8804673460938814
Rh 3.9313940712193376 5.3079896359084815 4.344235202493625
Rh 4.106217756376119 2.9274615232824015 5.105703177318163
Rh 8.207918342814395 5.786153917133298 4.696531909518576
Rh 4.395722173025507 7.768091975883712 3.753832228069034
Rh 5.7952094343075675 3.7548869614693055 6.742513138694246
Rh 5.3022114530507425 5.920902512617152 8.017430264356847
Rh 7.300319156416255 4.410445755594651 8.606252655627802
Rh 8.723606165269207 5.894783154879078 7.224369646928211
Rh 7.339822324287861 7.024120648894241 9.021961982238187
Rh 5.283542719849079 8.450017395052356 8.080911557431234
Rh 8.256195274605922 3.666617218048297 6.13043989462876
Rh 3.8976484690176596 7.245453417099854 6.259341077333007
Rh 3.4006035693249514 4.709673881180388 6.781933975670927
Rh 5.280796070204418 9.298544277686874 5.623200779895064
Rh 5.959458063722778 6.029613580055737 5.518335609890751
Rh 7.233257935611253 7.837261987154219 6.602721692811796
Rh 6.939947820582376 8.068362156986211 4.114055858127088
