13
Energy = -67.69507058 eV
Rh 6.7721194360407235 9.133680933378226 9.022584973729378
Rh 5.538669427185619 5.459169698061033 6.980395483659944
Rh 5.538669427185619 8.085069174020415 6.980395483659944
Rh 5.5479713650878475 6.7721194360407235 4.742616543578916
Rh 6.7721194360407235 9.019815240283307 4.922444140688776
Rh 8.005569444895833 8.085069174020415 6.980395483659944
Rh 8.005569444895833 5.459169698061033 6.980395483659944
Rh 7.996267506993602 6.7721194360407235 4.742616543578916
Rh 6.7721194360407235 6.7721194360407235 8.886987770129462
Rh 6.7721194360407235 4.5244236317981406 4.922444140688776
Rh 6.7721194360407235 3.088354872081452 6.926845823882705
Rh 6.7721194360407235 10.455884000000003 6.926845823882705
Rh 6.7721194360407235 4.410557938703226 9.022584973729378
