10
Energy = -50.09370304 eV
Rh 8.852008687255399 6.512941851888419 5.864937146906939
Rh 8.115092660741048 7.957038642770092 7.835991296038412
Rh 7.104669763471964 5.6876461626755965 7.512683484909333
Rh 6.750116349817371 5.57808904352308 4.910799915803847
Rh 6.771172412140863 8.002678762654726 5.777525251261715
Rh 4.681216396910844 7.1751107305154544 4.88208976674736
Rh 5.519456005902398 7.737114196526275 7.9447940682458205
Rh 4.453797267526297 4.582258297668039 4.747384589795591
Rh 6.076727875731535 3.6787946843765624 6.48115127429401
Rh 4.606182248303853 5.726906675176113 6.930478422697706
