10
Energy = -50.82359254 eV
Rh 7.811619324913769 3.9698768209551423 5.430862443319787
Rh 6.3867160938272765 4.415176141628932 7.322721182303574
Rh 5.3105850855884 4.129984742164297 5.091307626424389
Rh 7.592574883168375 6.201655123261131 4.67231071543367
Rh 4.602757081953929 5.668975272245668 8.326779180075253
Rh 3.6159108338422232 5.601294588718287 6.136178561306046
Rh 5.957652331357912 6.709347169867006 6.379721552335608
Rh 5.765735361321993 5.706650695335964 3.221802125870072
Rh 3.4123317843649086 4.965395780672377 3.6481736089365717
Rh 4.250698176707497 7.258811683378009 4.424510096863188
