16
Energy = -86.54592836 eV
Rh 6.761468348630368 6.805138006100522 7.043134644542089
Rh 5.594352894395267 7.627241956288314 9.367227880221852
Rh 6.795231282123222 5.303014654665901 9.263318002898334
Rh 8.158030301739435 7.490341879355824 9.207268493456365
Rh 7.130093938084161 9.190945662907874 7.553194040036854
Rh 4.604187668120602 8.442229671715669 7.158245888846072
Rh 4.563455304205477 5.861823847169837 7.653799199041401
Rh 6.554569964513687 4.253620812547984 6.935083444012734
Rh 8.818447235362473 5.582202061193469 7.530393372626591
Rh 9.484500431751929 8.170333421167623 7.152228092548581
Rh 6.014714040828432 8.160432413506442 5.075009656354036
Rh 6.284573525307796 5.574398074153995 4.798938542770229
Rh 8.432321019321945 6.96934833000249 5.181483414032262
Rh 8.166446559377464 9.47067717156995 5.294846729470893
Rh 8.490680831637812 4.415145937346934 5.317221796226639
Rh 4.02863274277366 6.564812188191569 5.350312890798359
