16
Energy = -84.81748722 eV
Rh 6.104950449868948 3.4902686221050243 8.116826292306857
Rh 9.858038337122593 4.751968440621393 4.619185558772657
Rh 9.12072519667184 7.075061646543013 8.197770266403237
Rh 8.483480375606645 5.966059603056824 6.113711063519866
Rh 7.593176922088811 4.879518173265882 3.904599813690644
Rh 6.151053780057869 4.661434567890317 5.991887362298982
Rh 7.0086028160172535 5.820899987930402 8.217487556034987
Rh 4.517698606777246 5.358994970567844 7.995346101187658
Rh 4.039461071875103 6.206621985163017 5.658909991985724
Rh 6.413355261434978 6.993651626965925 4.719119298396433
Rh 5.287816111583613 7.709927459001598 8.643920939354684
Rh 5.12035976980406 5.075317921284949 3.7314252941375052
Rh 3.00535824698157 7.380733153194652 7.573635998693131
Rh 7.278207562978412 8.110543747467888 6.972155256501365
Rh 6.674307837221548 9.394944962635044 4.894829411311708
Rh 4.860387274629508 8.528764089793512 6.273699824184583
