16
Energy = -85.83939574 eV
Rh 7.210233309119074 8.753600804746547 5.822841210912397
Rh 7.858220810368852 7.172249931912434 7.704653488442394
Rh 8.078435248430367 6.37172365894126 5.358958075880308
Rh 6.557721997009261 7.322478240251116 3.6385101241516065
Rh 5.509339586432849 8.220005099011098 7.791872646903561
Rh 8.105299273155744 4.615142140507473 7.2274871128298
Rh 4.824454108703619 8.042021362121421 5.331833225191755
Rh 5.790820815492272 5.059041496529733 3.005346143046408
Rh 7.2455008051179295 3.944574511677991 4.862026094403693
Rh 5.649287064382956 5.7479086131712025 5.488286072870973
Rh 3.5567991683526867 6.799728865856111 7.1088101545959095
Rh 5.9992236089078315 3.160249972597994 7.044898603693055
Rh 5.827990586315668 5.645334606629214 7.894210706821688
Rh 3.3607203282075617 5.603100147569411 4.57078749590211
Rh 4.757104206000116 3.353427660101107 4.5731552488157226
Rh 3.7845409603950837 4.302490040015345 6.6874201397545905
