19
Energy = -103.98758535 eV
Rh 3.7307302292072255 8.943709021266384 7.79424083140191
Rh 7.798874743767758 8.85262865870323 6.911596345533444
Rh 8.05982465406236 6.245743009193299 6.839778059638559
Rh 5.785547532572308 8.422513382229095 4.063716524163278
Rh 3.940991402848954 7.505057917428765 5.757587093248801
Rh 7.538574093012449 10.117414969513328 4.738586418203511
Rh 9.113089842337212 5.073808329584756 8.86356168777294
Rh 9.00948382607323 7.736029421517482 8.69230603428766
Rh 3.81071231143672 5.060231256364445 5.92658904577384
Rh 5.996210100173063 6.144045542888262 5.080962857326196
Rh 5.745443888011997 7.512079869597047 7.502345024588892
Rh 6.107582778225966 3.632695753897774 5.279449454778025
Rh 6.995658867283988 3.796649569717229 9.355297068940551
Rh 7.945073324867134 3.762649650252495 6.9911818851892
Rh 8.19272457767205 4.970089661528689 4.64956318479302
Rh 6.969451751643471 6.365851718300945 9.292704421577017
Rh 5.494099149116809 9.701515927611002 6.243240817569224
Rh 5.683274608334435 4.922874305553546 7.495199565502191
Rh 8.107416452880946 7.622386455860628 4.672728600896017
