19
Energy = -103.20131166 eV
Rh 9.007484145378019 7.235615247940505 6.653255794335042
Rh 9.264544423597123 4.984683785398902 5.430010657481768
Rh 4.978749571334576 6.1439642233441605 6.231647593060391
Rh 7.393041160203472 5.158000372432584 6.995100063532104
Rh 6.8237812890588945 7.444050406473236 8.198418522076443
Rh 4.689832083682563 8.414698142350932 7.297831813667654
Rh 8.683852748328977 7.121710550743196 4.165150324157961
Rh 8.092430361486153 9.46569319835068 4.04857926597683
Rh 7.055144630020095 3.6220835031539633 8.911257804153347
Rh 5.300054800947095 3.624997919832929 7.149197750535303
Rh 3.4139852158187183 6.477818273942396 8.287207698651407
Rh 8.803652883937676 8.894434796108248 8.588041486754134
Rh 6.694046666373883 8.054580138884674 5.630244359804178
Rh 5.542602441517466 5.540557385415355 8.930321758640165
Rh 6.846259435479413 5.534511529312376 4.572794052123553
Rh 9.024266270338087 9.727976633981 6.236909204065875
Rh 4.887449280133841 4.08015311383265 4.797225960462854
Rh 3.0117913706631096 4.580519934103205 6.748214516316597
Rh 6.752977946995965 9.915235030981501 7.358737239052005
