13
Energy = -68.48391689 eV
Rh 4.69758028236961 6.979170346619875 6.713260234377953
Rh 6.830339531450133 5.954149851759458 6.6162937983941035
Rh 6.021071597142644 3.891504237340639 7.828781992073845
Rh 5.289442346108432 8.545439138425943 4.937718385602497
Rh 3.7295299841471232 4.982439466919516 7.596051498906817
Rh 7.499024729459612 3.6524597951489253 5.684111434093716
Rh 7.523474709118866 7.7010117692715765 4.909702995612315
Rh 2.5515064008718773 4.937474555008682 5.339997869748324
Rh 4.986095408715986 4.061255797681712 5.518810488979077
Rh 6.773249154449252 5.581363682983487 4.09667670180129
Rh 4.422741423532516 6.3232795407615265 4.298508156779892
Rh 3.76576678094875 4.102931401109167 3.2698709924020926
Rh 6.164424694927733 3.3428742723083653 3.346639811548348
