17
Energy = -91.95955485 eV
Rh 7.510123390263612 10.245575935395397 7.444183624732328
Rh 9.058908386509469 9.904850484029016 5.635422458560636
Rh 10.006942696148581 7.9626784117080565 6.636795015920229
Rh 8.367934661637435 8.28270184154667 8.529993293131724
Rh 8.093649877549572 6.465434080445646 10.244674110636986
Rh 5.8835463357023015 8.975959067391058 6.2188432308714345
Rh 9.03476268692399 5.838119837334071 7.780587382073964
Rh 7.465139132015734 8.603766776518137 4.364369473544865
Rh 5.943430213763163 7.480334421783751 9.415602283124082
Rh 8.442307426813617 6.584102453768311 5.249622782899427
Rh 6.881229784577825 6.959433872495442 7.12235249013041
Rh 4.351257031135035 7.274096500300545 7.336601901751517
Rh 5.501493962084743 6.609970061104101 5.060516738996971
Rh 6.62334984861314 5.066131760020043 8.737268448305322
Rh 7.3575289071202885 4.419779522985699 6.414868955923206
Rh 4.325747554441637 4.918305799919701 7.9538903987655765
Rh 5.064499835776722 4.311609238824621 5.751348227632711
