14
Energy = -74.21646081 eV
Rh 7.9211486280269785 6.332667746200369 8.996307158366594
Rh 8.339613538945754 5.102598342463298 6.636119525800774
Rh 5.467621233908737 7.435333647152059 8.933494335623434
Rh 6.137888813056051 5.453703800979422 5.116680136257522
Rh 4.39231502260423 6.827948795495307 6.576937296105727
Rh 9.410879821642133 7.533708415149865 7.096739726783542
Rh 8.324330168020534 6.921426738268895 4.751769902011352
Rh 7.65208636355842 8.898123594911567 8.547593111715415
Rh 5.872389884227562 8.091452360091004 4.6890842961177945
Rh 5.470722534864981 9.284707335094273 6.988015654798128
Rh 7.845381930621787 9.34136431666687 5.879672786821046
Rh 5.89098874424818 5.044211763885563 7.768901018855689
Rh 6.894820617347406 7.188895468781056 6.830771096896418
Rh 7.848362730400526 3.8664604630283086 8.732152628379586
