12
Energy = -64.6164764 eV
Rh 5.299863808431464 5.302643874203635 4.141451759047779
Rh 5.331888522661117 5.3293851266645165 6.514482385771104
Rh 5.3121068096799124 5.304028338966004 8.88765995368235
Rh 7.712431818040557 5.305499869242661 4.135181354225389
Rh 7.6930217920334245 5.331848793459048 6.508367476036674
Rh 7.725239257853733 5.306463285581956 8.881745694349554
Rh 5.297369789521784 7.715269602284228 4.140759525516042
Rh 5.32930965841614 7.690473712590791 6.513873817748865
Rh 5.309363984691502 7.717042115522186 8.887183940327551
Rh 7.70984769168182 7.717953336631346 4.134405584790604
Rh 7.6904100865874625 7.693004515456505 6.507461587767241
Rh 7.722524567050581 7.719765216046758 8.88080470738635
