13
Energy = -68.75188997 eV
Rh 7.462637643981671 7.1709067409662035 4.180266715785157
Rh 8.950276215581468 5.725856679948349 5.592401763595745
Rh 6.94607799632045 4.518038481690968 4.797292691482861
Rh 7.587125697567974 4.138395024979931 7.218028744838896
Rh 6.587000596472986 8.707557894514593 6.040032537531491
Rh 9.042134675855356 8.199448840783976 5.939587873013083
Rh 7.447996566963027 6.649470068646088 7.326847481581127
Rh 5.524391798766649 6.392247650921217 5.659539898418464
Rh 5.140381624334556 4.153105797425523 6.729723439406615
Rh 4.098924371316858 8.509002748924745 6.28886132775999
Rh 5.865967163559053 5.394652366602926 8.814500946990927
Rh 5.613631418566771 8.11960815363957 8.3429422312912
Rh 3.965565890558749 6.384505000187203 7.580799098143169
