17
Energy = -90.22514202 eV
Rh 8.99893629389904 7.689822374644048 7.896786683229847
Rh 7.77624905720215 8.545043514380453 5.970745754698074
Rh 9.014504002227582 5.607927312819918 6.723888205016043
Rh 7.39375064424048 10.547956410419529 4.752135090929009
Rh 6.7671182103705805 6.307955985203428 5.9743905943462865
Rh 8.418088930778126 3.4054563439814833 5.883156257950078
Rh 6.491327410862141 7.698191889533181 8.05123291325047
Rh 6.72740836263645 4.459418050882368 4.462147476354311
Rh 5.963516923993115 5.744883942441866 9.337808922209458
Rh 5.451604080202792 9.308597475141955 5.312812639314224
Rh 6.909727328652952 4.332695871883303 7.595798662660765
Rh 4.3628716234065985 4.271341135091272 5.3057098899103385
Rh 4.491829318005828 5.72628579072789 7.343042667925499
Rh 4.845739461180826 5.365880731351704 3.1748768370942293
Rh 4.25645019830757 8.290349550768466 7.181023131042617
Rh 4.661928528349297 6.991760705469192 5.007570737266241
Rh 4.807483521679545 3.1536688219806406 7.38885899335228
