14
Energy = -74.00562256 eV
Rh 8.684020417593299 6.387080718102343 4.824623749472353
Rh 6.332741887929586 5.686507254355744 5.535954028357899
Rh 8.28190147959534 4.126812563001638 6.047733519243371
Rh 6.604193523275438 7.483948146600799 3.6376942295575834
Rh 8.446504711282824 6.380383169568216 7.4029928666218385
Rh 4.355136653483601 6.176778462737776 4.173417024194157
Rh 7.273857986348162 8.151459960337199 6.027606990501182
Rh 3.443204188374295 4.126240175347925 5.170246173096919
Rh 6.727818701358945 4.62596051280892 8.012779088502029
Rh 5.649706391221276 3.3037426734154147 6.026581168739845
Rh 3.134049342797034 6.68299265067151 6.284179103713964
Rh 4.241350066212222 4.775605906172029 7.507333065854585
Rh 5.416673601131439 7.048679706053984 7.479066644345506
Rh 4.838565054584126 8.421623329127733 5.302785309386834
