10
Energy = -50.8830029 eV
Rh 7.8360155187394405 6.331465831079544 5.599105312616483
Rh 5.204280348645294 4.275839251288876 4.912447394673186
Rh 7.474802108378261 3.9275042327363434 5.667901278337325
Rh 7.000210676939384 5.074314684582744 7.715262687842265
Rh 8.06563554181022 8.677975868889316 5.999767201583845
Rh 5.409252236590448 6.330114550989382 9.127788879990314
Rh 4.674507423429794 5.442744119096601 6.937364290830639
Rh 5.6225327740126465 6.668952120439517 4.852782033671451
Rh 5.833583459566321 9.013831098930792 5.253033700721484
Rh 6.2066367580133 7.626273041480145 7.312647194206346
