10
Energy = -50.8058087 eV
Rh 6.682472431686513 9.89100385579576 7.182992327238271
Rh 6.028710042072784 7.84571360268444 8.308380229623799
Rh 6.1394761881885875 7.94169451978916 5.748182771927056
Rh 5.688186782792376 5.6763353042989655 9.367397232938675
Rh 5.541722919148835 5.74843788511607 6.934714805583451
Rh 5.738252839790729 5.823248824533965 4.520493750631043
Rh 8.360758974579978 8.151330687637039 7.014220643265614
Rh 7.804954310509153 5.905313610457854 8.26443982553926
Rh 7.873151347919069 6.054620043884962 5.640132167946125
Rh 9.850690910360365 6.224568110159192 7.052338899739547
