11
Energy = -56.04126961 eV
Rh 8.600643333565632 7.063827699052435 6.093034266204316
Rh 8.047777247294945 4.990278012799317 7.4918001822877045
Rh 7.832220023102927 4.751209473743894 4.951631494122322
Rh 6.489682193359653 8.728811733384424 6.102767717688551
Rh 5.958067665731135 3.6991200348766005 6.347094886752264
Rh 6.2164190807673005 6.2118617466672665 6.250594678968522
Rh 7.211971710618795 7.461840479215423 8.207873561115035
Rh 5.243681219072172 4.9911685100192855 4.255747926542709
Rh 4.415144523373615 7.447593360091411 4.96534739765708
Rh 4.608664273303573 7.7058517575711445 7.5060371084153905
Rh 3.8331062235025124 5.379252303298825 6.357992924349163
