12
Energy = -61.80390704 eV
Rh 6.89595970401422 10.294654000000001 5.306820339521875
Rh 8.126669885072138 5.687883598200553 5.534602567069464
Rh 8.126669885072138 8.104035809827886 5.534602567069464
Rh 8.11201742756367 6.89595970401422 7.809776588553506
Rh 6.89595970401422 9.269406653305236 7.509367667544549
Rh 5.665249522956304 8.104035809827886 5.534602567069464
Rh 5.665249522956304 5.687883598200553 5.534602567069464
Rh 5.679901980464775 6.89595970401422 7.809776588553506
Rh 6.89595970401422 3.497265408028442 5.306820339521875
Rh 6.89595970401422 5.652707305310009 9.680588417967217
Rh 6.89595970401422 4.522512754723204 7.509367667544549
Rh 6.89595970401422 8.139212102718435 9.680588417967217
