11
Energy = -55.83759004 eV
Rh 6.888828803894743 6.888828803894743 9.288217440753643
Rh 8.159348818028823 8.165353467233311 7.4662724913360865
Rh 6.888828803894743 10.320057999999998 7.627976250152496
Rh 5.618308789760661 8.165353467233311 7.4662724913360865
Rh 5.618308789760661 5.612304140556175 7.4662724913360865
Rh 5.631148700227786 6.888828803894743 5.213893286953558
Rh 6.888828803894743 9.142298796167118 5.470035295805255
Rh 8.146508907561703 6.888828803894743 5.213893286953558
Rh 8.159348818028823 5.612304140556175 7.4662724913360865
Rh 6.888828803894743 4.6353588116223605 5.470035295805255
Rh 6.888828803894743 3.457599607789487 7.627976250152496
