11
Energy = -55.80409725 eV
Rh 8.724586542556672 5.450324509795454 8.421732800115107
Rh 7.100444590422002 8.126926021437587 5.02212981372692
Rh 7.427587567285241 7.588183998204549 8.306975079012071
Rh 8.48357277763097 6.70351276203584 6.2677589988306766
Rh 6.243863550613119 9.231612805680818 7.000157474368646
Rh 5.527250083914205 6.117833790969214 8.125058422187761
Rh 7.050400445612617 4.7041125994931585 6.842722422393354
Rh 5.072643462574725 7.241604501201664 6.001868140055123
Rh 5.659757636841967 6.9775955133786605 3.4666309763164342
Rh 4.595801479053618 4.1540002703225705 6.989956118284479
Rh 5.447827290454567 5.067536360225196 4.927201031972106
