18
Energy = -96.93986117 eV
Rh 6.279828053178953 5.688045342910562 4.921648278106027
Rh 9.622444361088652 6.356948898353612 8.019207734884063
Rh 5.09695439911199 7.236880411657069 6.350161383154351
Rh 7.714290388603044 4.818354899988379 6.95590510244509
Rh 5.508015747348954 9.053023045142403 4.783762283407548
Rh 5.841740131735825 3.4320417756308257 6.123022956187552
Rh 8.391345855037915 10.449453752728603 6.483321666591139
Rh 5.151980756034278 4.9894392615847165 7.889468585089294
Rh 4.123685325573325 4.392754738407261 4.714464151588394
Rh 6.566002819424895 7.409825192699232 3.3115430429768367
Rh 7.996050258270699 5.741204830834353 9.705321434135682
Rh 8.648836956315257 8.757901028962634 8.216195754341083
Rh 3.246279234754902 5.69228829459323 6.491995042568901
Rh 8.070695322471328 8.782694221425832 4.716879178804374
Rh 7.9599416264981135 7.189532239034336 6.414811106299791
Rh 6.468865854520033 7.065400692428924 8.50901747280492
Rh 6.330448249085818 9.243025396023855 7.25974688482661
Rh 6.875432799267136 3.708171531841473 9.041040294646471
