13
Energy = -68.83238871 eV
Rh 5.592774931504624 8.892067233797787 6.9400187714457156
Rh 5.592768398840351 3.780985369961247 6.9400198602232
Rh 5.4733428445446135 6.336529023823036 7.072508539553318
Rh 7.69927432826833 5.051596277553056 6.14833610553247
Rh 7.699277594600531 7.6214476159868605 6.1483295728682
Rh 4.179460979474134 5.039596382490608 5.281829466789191
Rh 4.179466423361176 7.6334573100457765 5.281835999453337
Rh 7.0537434282483895 5.076814074892686 8.650228828778914
Rh 7.05374778335782 7.596208043099574 8.650223384891875
Rh 6.254215024752885 6.336530112600267 4.455700140526714
Rh 6.251307708747137 8.863349956726045 4.491901910987597
Rh 6.251304442414937 3.8097059133651827 4.491895378323197
Rh 9.094109408170274 6.336506159497894 7.821965603243724
