17
Energy = -92.58614314 eV
Rh 7.6241193875866395 7.132290308560369 9.106887762508137
Rh 5.327883639264519 6.006216286224488 9.453578000291646
Rh 5.558744152864453 8.475036429492167 9.801226461070625
Rh 6.943219972987592 4.9487217691961325 7.747889668071391
Rh 4.895099143736286 7.530697162739395 7.4944043479767295
Rh 6.770849993762413 9.355612020497421 7.75144988116655
Rh 9.272251688204486 8.427566051913223 7.61481717190593
Rh 9.34940423161289 5.829525718430625 7.4930464755285096
Rh 7.269027501258343 7.15960370424921 6.571415617801369
Rh 7.297578374384364 7.361861981965441 3.9504248047814405
Rh 5.390051902045551 6.179179564220341 5.244765032791017
Rh 7.9805930582659474 5.13176327984396 5.264253407210032
Rh 5.591744061136201 8.805421246515927 5.361601990550974
Rh 8.082120975006548 9.386352204283678 5.469731367623727
Rh 9.601949433251361 7.167912703428721 5.287782131525831
Rh 4.457937543151778 4.9766128335524105 7.330266915963617
Rh 5.9139253025405445 3.7419821746173683 5.738385940449919
