18
Energy = -97.316428 eV
Rh 9.716768467251505 5.2640654474708155 7.532545219400149
Rh 4.750905220451225 6.2152454227748075 6.6627585847196595
Rh 8.481405761238499 6.7219091780325195 9.263845202248822
Rh 7.05141114695209 8.915162855987818 9.296956849891208
Rh 7.742642693995571 7.906353073259852 3.954522484432177
Rh 7.237523218933541 5.023812834299945 7.854004467114707
Rh 5.668482952096418 8.072687578041428 5.454330331728657
Rh 5.7574166483789275 3.8659345286180473 6.170566357989215
Rh 7.399452935038814 7.574544849474524 7.209539421451334
Rh 6.527274580061799 9.891362242199571 6.990786070825463
Rh 5.812100083381024 6.793442436724372 9.094450340007203
Rh 4.888358262369681 4.460394873882408 8.567221442636031
Rh 6.711864431801382 10.182000347564319 4.436615193469257
Rh 3.39125396186764 6.386479127512534 8.693321499871555
Rh 7.082012082064716 5.84585100818844 5.275210989919851
Rh 8.278440048995614 3.7096642900397963 5.969986463302958
Rh 9.328954131693118 6.867976732510793 5.778356721432708
Rh 8.705390483672094 9.309937791600746 5.76895712153894
