14
Energy = -74.71951281 eV
Rh 6.468392801710807 5.362993930482427 7.85769938417475
Rh 8.971648263512666 5.26711336631342 7.6007934928275365
Rh 4.040836349690212 5.032544206416897 7.317463123606527
Rh 7.7683917613748275 7.505823191013577 7.389593320312636
Rh 5.054866131326761 7.431363573030432 7.385722926189437
Rh 6.452855144579884 9.620612193271807 7.246939573304742
Rh 5.755887375669292 3.0702838973819375 7.139277951971638
Rh 6.409163459034282 6.532939988901862 5.31252931820127
Rh 8.943167619189394 6.474919184233824 5.330656536180058
Rh 3.876176228681403 6.640741839701837 5.266419697476281
Rh 7.715991709752062 8.720842013743892 5.184597575274571
Rh 5.1290491597201715 8.81009015805205 5.229650265378486
Rh 7.539960333039411 4.293929179307773 5.779475273162817
Rh 5.028600946599008 4.390790384474081 5.114168401932482
