19
Energy = -103.04848999 eV
Rh 4.225631643195409 4.0736893002432 4.6900444220973245
Rh 8.128656847725507 5.4144322913806455 4.448965278223182
Rh 5.5397747638602395 8.0839191298926 7.685032751150271
Rh 7.57666241895162 7.782171975283905 5.1600171153886185
Rh 8.686824387897637 4.754074997658372 6.792111075944694
Rh 6.624179254815743 9.534519079885655 9.428716711826768
Rh 7.073868624014829 4.889761226131471 8.78454333274159
Rh 9.790564869597054 6.787462505775622 5.781540926630217
Rh 6.675900796197547 10.113020228778996 5.042289069726053
Rh 6.93554882975497 7.200274299631863 9.862740073045579
Rh 5.714503876479431 6.1206996264730265 4.5134223282427985
Rh 3.3368310668354773 6.7230087622201795 4.689108464067457
Rh 6.424726980456991 3.803055451825476 5.6586199432216775
Rh 7.432711621104977 2.739620611444891 7.607030190875451
Rh 8.00383610384481 7.068257330387264 7.639704017676132
Rh 7.671925045748655 9.505288050746701 7.227203429224488
Rh 4.986502871642132 8.435832478397165 5.368754877123175
Rh 5.765345278994366 5.720854615191588 6.99494822878922
Rh 3.4588085879440973 5.321213764178005 6.659066253301424
