17
Energy = -91.47048545 eV
Rh 7.150267393508727 9.596740734602736 7.9912608156842655
Rh 9.050489903473038 9.073430106872115 6.656645169617354
Rh 5.67778813314983 8.283456305595042 6.45942978608561
Rh 8.674816222168662 6.6760727529749735 6.949734348629476
Rh 5.538272149594237 6.199215584599216 10.216722161426198
Rh 5.661154700825099 9.451948010559091 4.344774867190544
Rh 6.859672041252614 7.247736333769271 8.422582757561095
Rh 7.637976088770184 7.979951824913914 5.042228902689835
Rh 8.667524731926923 4.286187721989014 7.509719547232414
Rh 5.794169321920762 7.203772896483097 3.415107664981296
Rh 7.869901858229474 5.905862730383467 3.6445707502383873
Rh 4.596258039013479 6.121088575169661 7.917840604345872
Rh 6.543157886887438 4.65621690535637 8.60435373949768
Rh 4.943605824263452 6.1133780674436755 5.34113216184969
Rh 7.056394434982215 5.086395922402449 5.730597453422566
Rh 3.8282254733698675 4.298829356920501 6.499946507162452
Rh 5.941976973867734 3.195892615619152 6.740483357312039
