16
Energy = -84.39254308 eV
Rh 4.659263705864318 9.523062109148212 7.9626461021196
Rh 5.215146601654283 5.265395962998225 4.5385725198488895
Rh 7.997918218350823 4.776176786816848 3.3077648292902033
Rh 4.871644685151199 8.392018887639509 5.915644027134743
Rh 8.400484827481128 5.255475532588453 5.717271562624107
Rh 9.321773572535902 6.852247246785723 7.194550093483222
Rh 6.984007192821464 4.428807117864013 7.527517000342259
Rh 4.811716874385746 7.504405872549381 3.6694030584581805
Rh 8.004107193787759 5.98184611884383 9.02916060362154
Rh 6.304029938634365 7.565068658733586 8.597868062824888
Rh 4.691869170766046 3.7664506021421076 6.511638462281798
Rh 5.401814196548283 6.1605645145292325 6.8310624937742315
Rh 7.313643044975804 8.02083941370924 6.410496591094542
Rh 5.076774274782757 8.83035213768591 10.180198091922929
Rh 6.776996872799715 3.4471525011379907 5.077866730941475
Rh 7.135983858186351 6.8837750968813145 4.230454167554797
