14
Energy = -74.66955742 eV
Rh 9.139232957643275 8.309816295446723 6.300496078004794
Rh 7.002863183552679 5.697980749753392 7.776095259037567
Rh 9.162978517066055 7.002863183552679 8.49285873900636
Rh 4.866493409462081 5.6959100716586315 6.300496078004794
Rh 7.002863183552679 8.30774561735196 7.776095259037567
Rh 4.842747850039307 7.002863183552679 8.49285873900636
Rh 7.002863183552679 7.002863183552679 5.449879777130763
Rh 4.866493409462081 8.309816295446723 6.300496078004794
Rh 7.002863183552679 9.463158147061307 5.58939250282253
Rh 7.002863183552679 4.542568220044045 5.58939250282253
Rh 9.139232957643275 5.6959100716586315 6.300496078004794
Rh 11.083920999999998 7.002863183552679 6.906762356270872
Rh 2.921805367105358 7.002863183552679 6.906762356270872
Rh 7.002863183552679 7.002863183552679 9.85800284267299
