13
Energy = -66.97963921 eV
Rh 6.8260089875936725 9.395926619478024 9.340171586982926
Rh 5.500597011113834 5.531404070531701 7.723177926812228
Rh 5.500597011113834 8.120613904655652 7.723177926812228
Rh 5.560639733980791 6.8260089875936725 5.45161453991567
Rh 6.8260089875936725 9.079773884121295 5.799183309974236
Rh 8.151420964073509 8.120613904655652 7.723177926812228
Rh 8.151420964073509 5.531404070531701 7.723177926812228
Rh 8.091378241206554 6.8260089875936725 5.45161453991567
Rh 6.8260089875936725 6.8260089875936725 9.57723607699623
Rh 6.8260089875936725 4.256091355709325 9.340171586982926
Rh 6.8260089875936725 5.582191199698616 3.543115052183577
Rh 6.8260089875936725 4.572244091066047 5.799183309974236
Rh 6.8260089875936725 8.069826775488727 3.543115052183577
