19
Energy = -103.40348255 eV
Rh 7.917692281925832 4.88381663359203 2.7224031547750283
Rh 5.251812331515993 8.252004387936722 4.6126644312893745
Rh 6.036495241475931 7.065959851711537 9.577332494882969
Rh 8.012222550777208 7.397346512433233 7.6994889483730535
Rh 6.131775743539363 4.89704451602484 5.600425049478313
Rh 8.039211184231325 3.6207537127386824 4.808801996667745
Rh 8.086293572144177 5.50322167425489 9.376773186280634
Rh 9.310984965601572 5.771087405197687 4.580845956750803
Rh 4.419063583831896 8.686230910889929 8.66202278602045
Rh 7.733828557938719 8.76956164216227 9.689074672452637
Rh 8.315592774435325 4.9851473967654245 6.983103491139222
Rh 4.000797529360476 6.130811189013324 5.251006564528822
Rh 6.232148245636878 10.236227010714476 8.516919619274114
Rh 5.999321772042874 6.068565125194884 3.4639129305990233
Rh 7.46754915809974 7.147456209701135 5.183360290293915
Rh 5.893000977607505 4.975910170081828 8.184031369582515
Rh 4.040596602412241 4.220588804255503 6.819454705507313
Rh 5.479562648092393 7.238736216552192 6.991395595120184
Rh 6.869240221441828 9.306627286033716 6.411659991638766
