13
Energy = -67.46699242 eV
Rh 6.9068224544729215 6.949317340528174 4.063358243400896
Rh 8.71194711104834 5.129332590888222 7.5229434942279445
Rh 3.7758095876578572 3.652565419268878 8.456007800975904
Rh 6.758764550691681 8.638739529184486 5.967808043689183
Rh 4.984030780237225 6.72042659704678 5.823305046383272
Rh 5.028992262525069 8.350510954125982 7.690575534233793
Rh 5.313679054776929 5.071385156025225 3.9988543857346968
Rh 8.73877126405552 6.960124426343503 5.911798249631794
Rh 4.721296345688965 4.171840874099302 6.316955392354791
Rh 8.505774502467608 8.76008183917011 4.28530841334591
Rh 6.860554240567175 6.655104885681495 7.7661381803498335
Rh 4.563055924329795 5.903383885030345 8.26399623111561
Rh 7.016029796503465 4.9416220494500624 5.818503926855526
