15
Energy = -79.88236161 eV
Rh 5.413621193595454 4.937430452771535 3.133705709364709
Rh 6.0011568550850525 7.486648813964483 3.554563046224719
Rh 3.6746284506430844 6.751348470052743 4.0066116721653415
Rh 7.732562957618609 5.737998803915024 3.9224978953375973
Rh 3.2139571584884172 4.528301281127891 4.901199364810464
Rh 7.202422955451293 3.512758468188731 4.853009196829732
Rh 4.899004774142116 2.889302410567008 5.499867645999631
Rh 5.64161530289668 5.476604394868299 5.608180958909664
Rh 6.249988737184813 8.062170657841598 5.902331223508211
Rh 8.144319742581958 6.559968509956358 6.1348629211064925
Rh 3.869417519425426 7.586583073590049 6.231048741811282
Rh 7.56828594527699 4.363410525307157 7.072838833838414
Rh 3.2469343725272304 5.3975657056301865 7.1736207200881505
Rh 5.210190638006055 3.8970026558983686 7.649972640527607
Rh 5.5470694732624075 6.428081852505482 7.970865505663318
