19
Energy = -104.59124317 eV
Rh 9.586455695565835 5.619521799896613 5.26499237999578
Rh 7.276846784408982 5.403478370651044 4.4836664677325855
Rh 5.687726466770168 3.5251189535057135 4.623061489594869
Rh 8.909802253886793 5.105656954325311 7.5389068517328015
Rh 9.286426190653875 7.994130395544499 5.601638020901224
Rh 6.86832842850944 4.069124312806903 6.754841460317253
Rh 7.018538638009999 7.8075168815498035 4.438974453650739
Rh 6.342311245696654 6.503885454360443 6.566865568293704
Rh 4.430964736487079 5.619123876370241 5.182592227155431
Rh 8.252277784917116 7.564511967696503 7.717809303834284
Rh 7.985223938014126 9.989649988517009 5.137675725838155
Rh 4.598901658847459 8.071656510378187 5.129432316683325
Rh 4.339300509868783 3.884420619124046 7.003133187258266
Rh 5.812847142631689 5.104115093158218 8.793124764334364
Rh 3.94245158567092 6.397817860344399 7.595828497848563
Rh 6.403954982815932 9.151867378136732 6.762516567377947
Rh 7.905294888532803 5.998986832866104 9.661675346289153
Rh 5.860498286402185 7.707533117244068 8.815757845036469
Rh 4.000283756107849 8.912788859309886 7.453042744147252
