13
Energy = -67.68988876 eV
Rh 9.626794746975161 7.153675041372556 7.359495430875176
Rh 9.611002798462358 5.555545012151497 5.327407297147271
Rh 8.245333055401566 7.68372266368993 5.318447010806724
Rh 7.153203223568824 7.885411604582633 7.819026875663808
Rh 7.739753730504222 5.51849836547302 7.016863269528081
Rh 7.140063156556437 5.301647009700975 4.5298648049928865
Rh 5.896289786488269 7.089605426364018 5.789049988740071
Rh 5.685177256086191 4.214455045794052 6.415187870393546
Rh 5.688839492791565 5.80388722104106 8.432935216459242
Rh 4.51239651741265 7.873057888199642 7.726894579311301
Rh 4.508095570077154 5.385043919433944 4.567903439471469
Rh 3.471041116373251 7.570144532325856 5.409688983556241
Rh 3.555496441795753 5.575877318735908 6.979121706541224
