18
Energy = -97.72553396 eV
Rh 8.992338560962924 8.617727915256566 6.588995526808296
Rh 8.858980277524456 6.9670073339655225 4.794857516567416
Rh 8.052014543228584 6.81299531277947 8.03315619932628
Rh 7.438616920536014 5.476729471930406 6.104710645503209
Rh 8.225419284728494 4.355649393773397 4.020495185643021
Rh 6.5732254768104 8.786899937477116 7.424236680744928
Rh 5.525304726600665 7.167957666882648 5.904149276798608
Rh 6.3268422798502835 3.3756465291032427 5.533043284154883
Rh 5.953278547078675 3.95592147096629 3.00742284434592
Rh 5.321336014024536 3.248198349555573 7.693161717507382
Rh 7.066215823008313 8.753713352407685 4.83271609500741
Rh 4.619155234258278 4.9777388466986 4.819061776041704
Rh 6.174728628348874 7.49443392440235 9.59708936270341
Rh 4.407996102339154 8.89192084659326 8.634666760085238
Rh 6.599320142677987 6.3188479555832835 3.7209917168368714
Rh 3.5317155036154815 7.193642425691122 7.229156416424667
Rh 5.6355932893079475 5.663909380576234 8.013442083038559
Rh 3.511303597676731 4.741490275747187 6.883804518886253
