16
Energy = -86.45459738 eV
Rh 7.378421359832569 6.586355643608885 8.90626840176551
Rh 5.22596171710367 5.344820861333317 9.48524508194993
Rh 5.316332603836701 7.860314891551221 9.573836289348495
Rh 7.54269385152835 9.031403108121605 9.619946586977347
Rh 6.53062687169124 4.634754442802474 7.428606264311883
Rh 4.804928609655022 6.671740514243042 7.3405870724597335
Rh 6.24116797897295 8.947089444030254 7.423237788829212
Rh 8.822999603872743 8.268770784857114 7.564666459608251
Rh 9.114991560681872 5.5532244003587365 7.346597343504205
Rh 7.134392954993342 6.8361853742499985 6.316196995048502
Rh 7.16702610732731 6.90399282814975 3.7336562209021444
Rh 5.402791578463144 5.4683395332988916 5.053971557001199
Rh 7.9299601799958115 4.738634699685966 5.119525858533422
Rh 5.173827456840993 8.113462757907527 5.1906076977726805
Rh 7.659931051824321 9.048198146066756 5.18582203713067
Rh 9.411648428243575 7.086020272011108 5.208238474091245
