19
Energy = -104.00281676 eV
Rh 7.6771942720297535 3.7573991582686084 6.459254676201343
Rh 8.314381547464333 5.924592580023182 5.179976649981608
Rh 5.049915481795624 3.068875178353145 6.362037132023889
Rh 5.993856214784432 4.98445363680328 5.050529472424542
Rh 10.055718425105027 6.49635016837117 6.9783074523160575
Rh 7.740194510784598 5.940121959660287 7.768843876254726
Rh 5.473738309998579 6.893989641254296 3.723461432284179
Rh 7.785239509767855 7.623783111390973 3.400817192612993
Rh 5.9799622433978215 4.2216458619237525 8.354385620244274
Rh 9.195079461622667 8.322165671090897 5.435975298244722
Rh 6.099291066463247 6.557396410470465 9.551912624756616
Rh 3.5595306496115775 5.034225006442125 5.926477743539767
Rh 5.148859610822608 6.299848320935594 7.182333267682619
Rh 6.644489231987494 7.991817019729521 5.671441510286472
Rh 8.417372861128081 8.283201771241616 7.821301883205682
Rh 3.2469753533591805 7.0620547856448015 4.643637335570857
Rh 5.893635195835754 8.58843912490045 8.091368179173013
Rh 7.474611904626277 8.53486305621171 10.044892396611507
Rh 4.250882939005295 8.54320078879197 6.284121444158632
