17
Energy = -91.47755365 eV
Rh 3.3281148296554126 8.073039426189117 7.288454198672112
Rh 8.134905543074808 8.42106374158477 4.361443972909901
Rh 5.868062954682745 4.0175154734863 6.901406083951242
Rh 7.743547426411211 8.443403094295174 7.872083384933604
Rh 8.330017416313659 5.1558396519625225 8.733681689636882
Rh 5.912387329699899 7.978186423150967 3.588163978724231
Rh 9.627310161489389 6.912611329083225 7.689397058976116
Rh 7.303336349298706 9.960745655703207 6.029229744794834
Rh 8.335131717981 4.398145728773163 6.372083962525606
Rh 6.202370562736978 4.0830499239322675 9.283485184034545
Rh 5.5066131122917055 8.316459366560801 6.038034808461096
Rh 6.245498996605645 6.343402049402644 8.135891643100969
Rh 7.73104962090434 6.689082630424109 5.993625013650998
Rh 5.877291518347547 5.857734504983884 4.64110055260299
Rh 4.324496713284635 6.014995410092381 6.576004218640986
Rh 6.795332057384683 3.633392226554529 4.619566523051497
Rh 5.294685865555794 8.508658416096498 8.632043901124328
