19
Energy = -103.1648949 eV
Rh 8.033467056503321 5.123360631625242 3.651667190211345
Rh 5.4288368842722 9.182760040197211 4.8983684353259545
Rh 4.11014579369847 7.082473338713703 4.991370526214492
Rh 7.763164961903398 8.58718180927805 6.067081579754684
Rh 8.43677865498288 6.06315678824738 6.05511268878824
Rh 9.754626970580805 4.063577335124753 5.356940404066843
Rh 5.658762742197842 9.060131775970207 7.439855370659405
Rh 6.248979764994665 8.710953908133765 9.727555257379095
Rh 5.360842429060189 5.446005429246161 8.846691039861069
Rh 7.166603825108448 7.082348383684701 8.071418418728506
Rh 7.212804767282512 3.697714519277058 5.590069881499577
Rh 7.526235182755215 4.592556334116451 8.047929135046076
Rh 6.654242860101331 10.911940443961186 6.103349796076255
Rh 5.493783695789752 4.794732315611682 4.042626539787555
Rh 6.633677973847781 7.073955690310293 4.357467725132704
Rh 4.066755905605582 7.2583308595256595 7.543387227013588
Rh 5.744406745358017 5.720706878479628 6.347142086256673
Rh 8.942643767094696 2.8439414961706606 7.298904185956439
Rh 4.385366832877079 7.254787215124605 10.05460518139711
