15
Energy = -80.64646926 eV
Rh 6.226432753007992 6.328077421868264 6.433107711563014
Rh 8.765690381883049 6.29071664046032 6.443132771044779
Rh 3.4128653327614007 6.609772971292714 6.4249086348143125
Rh 7.53631063406683 8.509255747181738 6.427157148614109
Rh 4.843759780325939 8.573833046673665 6.420673347649928
Rh 7.400121261751965 3.9681267480602824 6.447754750030202
Rh 4.9905284427696115 3.728454180517434 6.443789918896072
Rh 6.065393514013711 7.719310326844152 8.554750892777347
Rh 8.61143640586517 7.672181013023145 8.604644436029748
Rh 7.297800097937063 5.481349374726226 8.57135711489973
Rh 4.66899934224816 5.424784352830618 8.227850345261722
Rh 6.082251775628637 7.699824705218009 4.300544556814741
Rh 8.62824417862836 7.647446818143476 4.266373417758589
Rh 7.30979112272617 5.459822277110969 4.312424773411095
Rh 4.680139592087373 5.406809007636741 4.641294796136163
