15
Energy = -79.14833004 eV
Rh 9.956736262518376 7.532062412480378 8.217768895980884
Rh 8.371589573985247 5.68435385443714 8.096567081062515
Rh 8.562369146975183 7.2593819669383555 6.206992059724306
Rh 9.144204958205869 3.9204396810473954 6.628763004408534
Rh 7.02701099059609 7.364780897783759 4.100512919286822
Rh 7.62098773489451 8.273390082588119 8.43379529924259
Rh 7.889422716243323 5.197900599562624 5.03520077697309
Rh 6.649343704719971 4.1059522955481125 6.98057609230654
Rh 5.815796208787016 6.319568824710359 8.025772901771191
Rh 5.421872405215473 5.935679773884932 5.51736830224874
Rh 5.146843682882573 8.549096589259747 8.600904639158763
Rh 6.300886096285068 8.343422756876524 6.294243190925962
Rh 4.434328458072083 7.978457015839395 4.666870035446559
Rh 4.268437872319956 4.6329413848386345 7.224148841001831
Rh 4.08656279757748 9.446807525254675 6.593910662038769
