16
Energy = -85.99821079 eV
Rh 8.174625747569019 7.815755230621207 5.044189426855812
Rh 4.454848458006952 5.5182149983402935 8.062252841257298
Rh 5.658870665393548 8.897249600869351 5.867536493726908
Rh 7.1203251778080645 4.590898189289368 8.020287763799162
Rh 6.439371711589295 6.938420145115384 7.81632022768359
Rh 6.078882133562309 6.482655441799334 5.4038653463478585
Rh 8.272726529900343 5.277232673903842 4.732111662368141
Rh 6.005543133218111 4.670782035504465 3.6711487216138434
Rh 8.713479539809454 6.310405965199403 7.02433284054026
Rh 4.4407387019064695 4.574974029187134 5.7428959178354555
Rh 6.765530556199654 3.6290390311569554 5.8521313473976155
Rh 3.6863571275519775 6.957756534386782 6.10608532975293
Rh 4.481904000745922 8.344921480870742 8.041649851975876
Rh 5.930253655529308 10.288070044503593 7.955284387292064
Rh 9.20747388231043 3.828418555080895 6.625478696205392
Rh 7.792599622081622 8.914396451957813 7.2483341781773545
