14
Energy = -73.89000609 eV
Rh 4.681473328107896 7.5438495808297565 3.0184004079781577
Rh 4.944440437847113 4.9767636486367355 3.0293870753457277
Rh 6.881194215329807 6.727006510714367 3.6980746118390138
Rh 7.389384914484081 4.293987883325114 4.185750158375131
Rh 3.016419460637022 3.806472981596348 4.788255255643689
Rh 2.9565608684655005 6.309712830459149 4.227203930818116
Rh 5.35667270414269 2.6360044577543444 4.506381784016961
Rh 5.214402303111793 4.954791654703307 5.3982605111469
Rh 7.451220335876588 6.043579743090167 6.065882431111507
Rh 6.843331247592591 3.5155172794788565 6.6686789385415555
Rh 5.030795704926184 7.327059653255852 5.566646005650825
Rh 4.274002148220296 3.2497664443507652 7.006216008729488
Rh 3.082825823874414 5.548525382407351 6.669156326617128
Rh 5.474555968806766 5.6642414108203605 7.768986015608542
