15
Energy = -80.42834337 eV
Rh 9.2673527412166 7.608535102991362 5.036242358247559
Rh 8.678518576471195 7.672125346203833 7.35972233099519
Rh 6.86877310013273 7.861198144182621 4.437888221296121
Rh 7.917597412964719 5.604763096955061 4.779054052494391
Rh 4.511381921146961 7.770061248583707 3.7702636733121797
Rh 8.114250130839755 6.339236393917754 9.31234624372486
Rh 6.294880417566879 7.874796730911529 6.769114469150465
Rh 6.350880302421523 3.8152667521514214 4.406568538439767
Rh 7.47867554749618 5.401941331000994 7.100126622227851
Rh 5.747476081476152 6.6382407719998 8.752791229581762
Rh 5.214664281930885 5.874260650778073 5.210203618945893
Rh 3.9160811856008513 7.9074554601416605 6.1266411008152595
Rh 6.429138833616053 3.182348527560037 6.72820428830549
Rh 3.3527208671818185 6.6346583836836635 8.080528209961974
Rh 4.780613352543342 4.8378102473613405 7.296407062448468
