15
Energy = -80.05682604 eV
Rh 8.648541001150907 5.725945631661017 7.802591098558492
Rh 8.897407507849035 6.848194968271266 5.5536862953606105
Rh 6.026898420907771 4.611582991377551 3.7095258341118127
Rh 6.586629447629496 4.361313984258224 8.486301152442056
Rh 6.744282518481401 6.9115804846310755 8.862656673516563
Rh 8.481088220446068 8.314852154128635 7.624105853508242
Rh 8.546341605392419 4.941959368178865 3.9705864890474207
Rh 6.9722893959467305 6.929987025934896 3.847800773483332
Rh 6.987256555614363 5.071575579595784 6.03164963579135
Rh 5.983511544833224 9.22059532418701 8.101964240331208
Rh 4.344317188594357 7.565132413616258 9.15215756366518
Rh 6.494806496611704 7.681687160883563 6.191431854166723
Rh 4.878151298028936 5.799715170521916 7.374272508609849
Rh 4.689143764404688 6.301639422514989 4.9397966568796186
Rh 4.052234743607221 8.121611496702918 6.6737135583418254
