19
Energy = -103.9243078 eV
Rh 10.259416146262216 7.619674130416891 6.311776396766362
Rh 9.806337992618563 5.288060955345273 6.512575169294939
Rh 7.983818336909393 7.993682017929848 5.45318728328439
Rh 8.462233425609707 8.154852411445619 7.929530136282995
Rh 7.510349989366504 6.786292754263855 3.315580241777354
Rh 7.529723951373763 5.627035839992902 5.661439991068805
Rh 5.60778434938673 8.192037544532331 4.514324032889647
Rh 8.156154071019488 5.822967104726757 8.216918704097743
Rh 7.4996349486401765 3.5762134239804544 7.2010256549992215
Rh 6.37195302230716 7.233803749611566 9.494902262106436
Rh 5.451534982980135 5.724033064784849 4.0554760879174685
Rh 5.708990166491277 5.199882123843937 8.148128251945781
Rh 3.393243175704644 7.08093818674497 3.479055078461285
Rh 5.380802795086432 4.067726917089362 5.935986605818339
Rh 5.981172827316373 7.632061733797173 7.003788904412569
Rh 4.018681069538284 7.062004630023385 8.485665359468978
Rh 3.8194450398352258 6.912405045777783 5.904739705494252
Rh 3.218532528524556 4.741086642992264 4.670770917347316
Rh 3.324550031234526 4.85398248491483 7.262586523549602
