12
Energy = -62.38864052 eV
Rh 6.618545349123042 6.6426550617854145 3.8759105133441074
Rh 9.001597496162839 5.698385176925185 4.087994756341825
Rh 6.947044140241541 4.416781690085406 4.934735394155756
Rh 5.5519474575286 7.912821642402414 5.902605198153953
Rh 8.167687492622985 7.6351037219294335 5.520975006328762
Rh 4.715398039861598 5.638641531699853 5.274372781900483
Rh 6.039755933763908 5.032368039209643 7.307976786394973
Rh 3.886358142737899 6.532150105338936 7.44127698103594
Rh 8.529465006235771 5.407929292775459 6.567967570176381
Rh 5.05591353399942 8.494597238530831 8.442027612521043
Rh 7.082703317332556 7.161838550362037 7.762861260274524
Rh 5.387777820827423 6.294654027425335 9.47139635922482
