10
Energy = -50.1931504 eV
Rh 6.72536555475628 4.080234182760697 7.073748343830988
Rh 7.999653633478383 6.33652164526352 7.256111503772053
Rh 6.65926362932368 5.788759182986196 5.125264978673761
Rh 8.513969806079984 7.541172468446788 5.021564480809197
Rh 4.560813987683329 4.0256971761263465 8.311435361663001
Rh 4.546797863789837 4.489214942496905 5.852688943435497
Rh 5.367270051709674 6.192776127495998 7.569326031520772
Rh 6.346244801665867 7.953539360253724 3.8069008043023125
Rh 4.398595759802479 7.019884704035471 5.23862456431033
Rh 6.432647047506899 8.126684521723497 6.323429595802343
