18
Energy = -96.71581024 eV
Rh 7.47087464405124 10.39790313918861 4.816610925505137
Rh 7.941012878247325 4.582463433713906 8.011556141152283
Rh 8.475863130051346 4.2582056791872445 5.597767792602322
Rh 7.779863594732977 8.221963452286962 5.883159729420747
Rh 4.812378640910356 7.376720978761318 7.485398595910248
Rh 8.111193081269368 10.515628925922316 7.264065309578152
Rh 5.2278648350531896 9.87053178010214 4.166401952273575
Rh 9.257833285660752 6.321925829403618 6.663602835464721
Rh 6.761251461640294 9.401083978506843 9.123739121382382
Rh 7.058439232572104 7.02469941393817 8.302221602347744
Rh 9.501353486437445 6.132596927203263 11.627121283671464
Rh 5.775995999931698 9.628476534686392 6.754208484280349
Rh 9.24112656611153 8.452562441273514 8.09084464248625
Rh 5.381710623179323 7.698135248866908 5.099284920072188
Rh 6.640550708919489 5.819337648557146 6.094579043158209
Rh 8.269062759663049 7.9392462062293845 10.420824667285604
Rh 9.66949815727388 6.147658370264708 9.17459680936834
Rh 7.524993543643498 5.476599539984905 10.310444252614836
