13
Energy = -68.28345175 eV
Rh 7.012497411532261 5.696844874377745 9.144882878027742
Rh 6.829358157130426 4.416739295102811 6.793628839249066
Rh 5.737129865853814 7.989103935010658 8.884241431932578
Rh 5.468338507700674 5.9690427393348475 5.076325084888272
Rh 4.781950664448459 8.154873345527356 6.382053268733638
Rh 9.09927099655658 5.695756567148562 7.453496652885473
Rh 8.147669997511516 5.862356091880502 4.949379432599415
Rh 8.414236962383207 7.878324225270745 8.75966616276532
Rh 6.8703299851290796 8.149964082096412 4.690299622614484
Rh 7.053177727747481 9.431238483270914 7.043783769029687
Rh 9.125031095026024 7.98404796603949 6.162232928343982
Rh 4.756502482847425 5.867702404200176 7.674229416822315
Rh 6.94157574106593 6.926314575540691 6.918263274547246
