15
Energy = -79.1678932 eV
Rh 7.552506316473066 7.638099851833567 5.641585401816416
Rh 5.002139738838254 7.408528345155629 5.389359668569389
Rh 7.216112058308214 6.447640666314543 9.881231320913722
Rh 2.788087796479787 5.9286607995621 5.361238794561655
Rh 3.8903613663862706 6.147917451598446 7.417820092652189
Rh 6.082564174597506 7.53756076141218 7.7503778632424
Rh 5.2034587205320655 4.885186792411817 5.493645896389869
Rh 9.946420504400617 6.61441520071745 6.026025308342503
Rh 6.250658640258282 5.115622790645309 7.8291417478453535
Rh 8.471400935440418 6.486819382805012 7.844357981023604
Rh 7.764245478332353 5.112832558170329 5.718160184326257
Rh 4.218116770349349 5.965376225264 3.293615718631267
Rh 4.736580787328543 6.3063900883853865 9.648271982997779
Rh 8.93455786601599 6.446551523467041 3.7332193650201484
Rh 6.558331807615162 6.208079223848238 3.6980223255239943
