12
Energy = -64.63192917 eV
Rh 7.178496491913375 7.181286373550156 6.0209173118988355
Rh 7.211507784918345 7.208899981397842 8.38857029439223
Rh 7.191322874681407 7.183137890376796 10.761365572487037
Rh 9.58713140772446 7.18403262004768 6.014680817271802
Rh 9.566665121009786 7.211517641897436 8.387904595804619
Rh 9.59925392080687 7.1858247928553265 10.755236554059191
Rh 7.175905033085205 9.589923839395661 6.020228505020284
Rh 7.20888312233338 9.564062874955757 8.38790459580462
Rh 7.188635063896325 9.59110841971295 10.760777437205217
Rh 9.58453350923548 9.592699627433314 6.0138507866877475
Rh 9.564028300611547 9.566678087589967 8.387077899439046
Rh 9.596541369783687 9.593731850786982 10.754387629929626
