19
Energy = -103.435002 eV
Rh 9.572175079900848 8.10915643320458 8.595021436425295
Rh 8.987503771016517 4.153234210256967 6.385540761371867
Rh 9.126196428056582 5.748541578635732 8.294250511901454
Rh 8.461756616959727 6.561246681390445 6.003682514376741
Rh 7.673577476519779 8.691345728341688 7.183549204885054
Rh 7.676183359627526 7.591670914773524 3.9074289218354963
Rh 6.855278642562434 3.536079446996655 7.458130738917011
Rh 7.251310820679237 7.242280296413991 9.261286378396992
Rh 6.766680696867469 9.613271714705643 5.100309043029543
Rh 7.333539157044506 4.651172768507553 9.578159675781809
Rh 6.716362864945018 4.815355308642577 5.1836420469793
Rh 6.048185355750754 7.2056835663109196 5.84918109370715
Rh 5.203304668253335 8.285966831973413 8.049859033869591
Rh 5.728178958091333 5.734164257569988 7.897697481355095
Rh 5.065315381246325 8.033754329395059 3.6166967034624418
Rh 4.3228670674315515 9.127606695439507 5.813114916375503
Rh 4.484464563574711 5.773532032968496 4.385248128265952
Rh 3.696546100882027 6.602595679051501 6.628276435893388
Rh 4.561391089959809 4.071436410805397 6.326024085724019
