12
Energy = -61.96478315 eV
Rh 7.025061427558323 4.336787409885602 6.981024814764698
Rh 5.603300247263289 8.075763445747459 9.08424981998624
Rh 5.645860994207527 6.035011863810291 5.4735170860018085
Rh 4.866167590759085 8.181775136741697 6.581130391689794
Rh 9.190288659133664 5.605857489371833 7.658686492666158
Rh 8.111561808562477 5.868534251319103 5.145556990133446
Rh 8.594526769998653 7.82883302323262 8.946277211511017
Rh 6.945568655044173 8.188162304354323 4.863443392890158
Rh 7.07161270742075 9.259196486424912 7.3000598602741915
Rh 8.993279727970883 7.920992568555932 6.3904266842202
Rh 4.6845830121013 5.933386522608415 7.89046017369359
Rh 6.9703701966936675 6.740527514584367 7.461858773621627
