14
Energy = -73.95702246 eV
Rh 9.191070110625773 4.2601187353493 5.885624577862523
Rh 8.754941955981314 5.880958038175388 7.705310080919642
Rh 7.312765174585097 4.3395010811776835 4.190486957664375
Rh 8.006641467464013 6.5192401082787255 5.328954200924177
Rh 6.626714488877507 5.749665280791211 9.076848162412047
Rh 6.778804809249646 4.68352341129863 6.701882454168282
Rh 6.651700465883158 6.505398544757468 3.1318921127825345
Rh 5.127257131475432 5.486581843016252 4.912413456603821
Rh 5.236403263402023 7.779606155913138 9.385704267908963
Rh 6.880109097784361 7.65569891489071 7.402962899469895
Rh 4.750259885019602 6.1837338374997035 7.380295790730154
Rh 5.829697300596338 7.907244923685322 5.069552682585756
Rh 3.3905610308301544 7.250677526196708 5.459834561068419
Rh 4.533211709717556 8.7059069318237 7.143047419371104
