19
Energy = -103.77300893 eV
Rh 6.108757780468419 4.954292904528371 9.303991971384532
Rh 8.732880773216442 5.466935024452405 9.087025518575324
Rh 4.804439806544426 7.298818236408294 9.301712681057253
Rh 9.051405733529322 8.12450726471364 8.95238420782601
Rh 6.624476136480246 9.258997372867363 9.084520097306939
Rh 9.17467443569063 6.643497163093905 6.717813312635254
Rh 7.858524557277916 9.008196544033241 6.716505808020249
Rh 7.338495034991356 4.667236302014002 6.9362425106624785
Rh 5.212426819534032 8.491757611123198 6.93375532461186
Rh 4.892289275081845 5.8112257559574845 7.069852607479346
Rh 6.286897151090054 9.063830731266675 4.545318221911889
Rh 4.470976409868008 7.106743934837053 4.7596736483324715
Rh 8.711496325533155 7.931938877771934 4.412635444369627
Rh 5.773699452057823 4.766309326750052 4.760146468550444
Rh 8.393116203322803 5.277806925833976 4.544388561333683
Rh 7.1682370824988 7.078679718220198 10.566395892165408
Rh 6.98599502110875 6.976565582113618 8.092480415874936
Rh 6.806347060682946 6.873390974555182 5.67262123915698
Rh 6.6233915238688335 6.772491890184198 3.188041678568013
