19
Energy = -103.52639279 eV
Rh 3.279124374632919 5.318791186905309 7.0964560702195785
Rh 7.273370508235418 5.480639511458559 7.105754660671074
Rh 6.813779208827429 4.915080357025233 9.606141216321808
Rh 8.009532331308215 6.955186348016331 10.248243320333701
Rh 10.248770855667411 7.0222053219482214 6.06395784416716
Rh 3.5817695194839896 7.752959005524118 6.90505218694111
Rh 5.217364420338744 6.267365781241791 8.32555640225478
Rh 8.747256684403775 5.214031276698892 5.239644988047476
Rh 9.190731808912119 5.196665580884732 8.662133029479133
Rh 6.4192545115499255 8.272044766366198 8.880406310841204
Rh 7.3095624455092185 6.947601245153667 4.330272741137547
Rh 6.491433501245555 8.278479429451359 6.299342600510997
Rh 8.73270337066294 8.734900303321261 5.304929919135179
Rh 4.864788215912205 9.71171169321806 7.622886607427461
Rh 4.590578534763545 8.954623401685797 4.971654879415497
Rh 10.64424399870234 4.760333608771981 6.828849751606235
Rh 5.058523273244646 7.075672601885609 3.5088683256761386
Rh 8.57590985385594 7.506050454190547 7.805816063122994
Rh 5.19512809124879 5.99739397690783 5.717265134678473
