10
Energy = -50.42924722 eV
Rh 6.332415299980811 5.4876413254152325 7.9900436137503545
Rh 7.480637410499658 7.804609803585353 8.282153559221827
Rh 5.977474570406791 6.772891326112115 10.02647299572683
Rh 6.538254830326022 4.297356119857052 5.828822478887222
Rh 7.889480822696475 6.495425861762644 6.158004744567231
Rh 7.96529198479072 5.054582914362306 4.038114474314512
Rh 5.339119272449178 6.446101392333904 5.729484289439869
Rh 5.040902181398672 7.740975432873309 7.965366053563394
Rh 6.457052848913766 8.701690577409487 6.089996887490754
Rh 6.83246962836737 7.177568930928953 3.9363506358373326
