10
Energy = -50.09080143 eV
Rh 7.592384424708495 7.415961252813961 6.055222023297389
Rh 8.838302408769186 8.758562694478398 7.588473609062401
Rh 6.705626838551217 8.82623659057265 8.798071995354297
Rh 5.464463301543224 8.3752291092049 6.780110640708966
Rh 6.4568345805196286 6.107692030052043 4.4023424406820695
Rh 8.467982803935438 7.006782070927428 9.23856572618248
Rh 4.403258942400487 6.681082558151223 5.426928563405625
Rh 5.772868576921965 5.92206495134191 7.2643193662297625
Rh 8.191928643802479 5.461916271135004 7.411665862000262
Rh 6.837506291269053 4.2048014510845295 5.802126330159281
