14
Energy = -74.76560963 eV
Rh 4.39849643742922 5.345662989078147 3.7087880852512374
Rh 4.410811251223884 7.7112557946983715 3.699874748475652
Rh 4.897030898876492 5.348530658495029 6.108276208208223
Rh 4.908844781448043 7.720451982029465 6.100023789156238
Rh 5.362159046347261 5.369760904798665 8.583557973281776
Rh 5.373839495240893 7.7108289923437665 8.575765303998267
Rh 6.766402568018058 5.332515459771215 4.417228670426359
Rh 6.77812845160972 7.7046415091696305 4.4090665521307155
Rh 7.312163778784583 5.343318406630106 6.916132909169311
Rh 7.323507759904843 7.707241597117307 6.90833517799586
Rh 7.738881339376722 5.317591708503581 9.406256795017173
Rh 7.751882209745253 7.745323549932988 9.398445983570406
Rh 9.409444217098402 6.518805342287466 7.840322066820377
Rh 8.957523439106227 6.513186779353338 5.317041442479958
