11
Energy = -55.46048159 eV
Rh 8.673525826716443 6.869008158017888 4.784519241943001
Rh 7.800418315129748 6.257889326702503 6.98253526850488
Rh 6.985386203301171 8.383213390176124 5.687037030823988
Rh 4.601698332939768 9.037021769597624 5.9609477522681695
Rh 7.892581203049876 3.775351226152005 7.396229817982056
Rh 7.0349919190175605 5.571692660731144 3.7421047427285896
Rh 6.149083617786062 4.924009748239016 5.919424572585736
Rh 6.120730111703128 4.879598561523201 8.51365870871652
Rh 5.245617938509853 7.004097318020444 4.6079222733499945
Rh 4.287320792738584 6.207604670434907 9.230816244157426
Rh 5.251255163863189 7.090189569555626 7.224515626858483
