18
Energy = -99.68621007 eV
Rh 5.784795743869543 5.456554044412607 4.936138638647699
Rh 6.762118604968829 6.9613283325632365 6.85429490629356
Rh 6.505851917778317 9.712286594298556 6.712576692194273
Rh 7.004858545491059 4.32174339250007 6.992199920035451
Rh 5.267939241045868 5.600817355387928 8.532000204090572
Rh 7.872948448508413 5.904686762348686 8.947802621096827
Rh 4.512938973414059 4.129501492910768 6.645330308260452
Rh 7.65987543366219 8.541923319609017 8.75334535842407
Rh 9.448181081733972 4.7446560128840485 7.32438095029055
Rh 9.380948904569454 7.243837933685682 7.215726562424923
Rh 8.403267062189993 5.756855691019303 5.242664689564312
Rh 5.0579871251167585 8.245380080130518 8.210106081428904
Rh 7.123314500159481 6.941334354008722 3.417935720689675
Rh 5.517676087875167 8.119193475084101 4.982256127303001
Rh 6.148400852568258 7.211324346414412 10.248019267586667
Rh 4.049610175201426 6.67093834975533 6.474617378400615
Rh 9.072124918284096 9.747457659151276 7.072880664863661
Rh 8.167007149276138 8.40058694614791 5.167707333376692
