16
Energy = -86.61860833 eV
Rh 9.134904318217458 7.513942808350085 8.969123671078728
Rh 9.082861777275841 5.19744317285114 8.3732890755265
Rh 7.8874317234993185 8.73728161271423 4.495048002089488
Rh 8.406864684789351 5.782077473307502 6.170223636794557
Rh 8.485261871183177 8.097394151562819 6.74392833152093
Rh 7.5988558519128935 6.379065472687262 3.88433602804572
Rh 6.847340037518725 7.375518745469293 9.707980951126315
Rh 6.782579573238931 5.06928895430128 9.039586542644416
Rh 6.184100735822894 8.027306250841443 7.486525448450561
Rh 6.721083576037657 4.180466726368454 4.945103604497841
Rh 6.113309101954752 5.689836017916462 6.835062771361441
Rh 5.697520736813878 7.677456115333815 4.959999057685051
Rh 5.116881030071122 5.572644836634241 3.690927195755712
Rh 4.299566757712815 6.550712200183076 8.409058732630939
Rh 3.909192581874447 8.364479452652198 6.610976706408728
Rh 3.893083408526363 5.976601706042715 5.847631996625033
