11
Energy = -56.48163162 eV
Rh 8.837206018125245 8.099209421486016 5.569053172871443
Rh 8.60181658496641 5.70358741740614 6.219769382614247
Rh 7.290210968043613 6.565739642397623 4.338076237729171
Rh 7.259575398452115 3.6847123907189983 6.1835312451407285
Rh 6.064048111317054 4.437569995931668 4.279252655549761
Rh 6.691428672927297 7.9945828296953145 6.574063178781611
Rh 6.3847477096471925 5.583572206465991 7.4719344268915275
Rh 5.053792272477023 6.185849318357741 5.601277783761452
Rh 4.177071506549086 8.142394964638065 6.885773162563036
Rh 5.610365522296562 7.531469212499103 8.828630204030555
Rh 3.882943170000935 5.902752468911001 7.893177390310557
