10
Energy = -49.51945889 eV
Rh 4.575764248602354 5.945869754609139 7.669025364807731
Rh 6.581713711594492 4.472169813188986 7.6655686559695715
Rh 8.58766317458663 5.945869754609139 7.669025364807731
Rh 7.810662572151446 8.284258910571115 7.6742646101932
Rh 5.3527648510375405 8.284258910571115 7.6742646101932
Rh 4.575764248602354 7.217557668579847 5.494402058381252
Rh 5.3527648510375405 4.8791685126178725 5.489162812995784
Rh 7.810662572151446 4.8791685126178725 5.489162812995784
Rh 8.58766317458663 7.217557668579847 5.494402058381252
Rh 6.581713711594492 8.69125761 5.497858767219415
