12
Energy = -61.7210467 eV
Rh 4.370352010145445 4.802257267095738 1.9972789172545975
Rh 3.4678159140041087 6.901420990337867 2.878282075266023
Rh 5.869491056161715 3.6175918138073393 3.580901468308814
Rh 5.6994302175726625 6.211386014005408 3.833039155030003
Rh 7.5055847913880065 4.772111273778313 4.9595157513559345
Rh 3.694491590154029 4.726192706180235 4.423027017268881
Rh 3.8386200141789955 7.106543068191123 5.3347947440838075
Rh 5.9514825725440925 6.20122499426083 6.4555123883798995
Rh 3.6115262988882684 5.272399414917176 6.918138710444804
Rh 5.458695169698522 3.6881754894802223 6.134526130528301
Rh 5.39505437689089 4.591170318966067 8.51015475912684
Rh 7.611190884039633 4.5832615446457545 7.448563778618326
