10
Energy = -50.47325934 eV
Rh 4.7932332075538735 8.1329304446045 5.02142914992161
Rh 4.826605412775578 6.502701459119357 6.815399983515341
Rh 6.297401038778923 8.68281758772908 6.844105861694824
Rh 8.560450025672807 7.48859965680556 6.890580877764147
Rh 6.801675578826537 6.657870210449982 5.279008127075169
Rh 7.747283176443382 8.786793306590898 8.801730366418779
Rh 9.134597197751866 5.847739261987621 5.141251699260187
Rh 6.748334045705762 6.606594455763168 8.567421329058309
Rh 7.692490099538484 4.908216369581109 6.891280863192254
Rh 5.548046233323106 4.508835081641708 7.89622157322731
