14
Energy = -74.91680591 eV
Rh 8.596183724798731 8.598048444575236 7.2573606036294205
Rh 11.145842399010608 8.596724705356628 7.3768779652449155
Rh 6.0160225893298405 8.629065745226987 7.493167365212604
Rh 9.864651524053398 10.814742802997676 7.4274400763123865
Rh 7.288134955764359 10.822009601861637 7.473735518732379
Rh 9.859325789537266 6.384245490683856 7.376562104312707
Rh 7.331387222933569 6.380592709655654 7.447189092067915
Rh 8.605284996710445 10.145205113383975 9.526653382403158
Rh 11.108269801105651 10.020924994408885 9.466332782658903
Rh 6.085400996113794 10.046259162216627 9.57542044488883
Rh 9.947914186740537 7.804959075128863 9.477948105910446
Rh 7.255684566251432 7.814540733439418 9.539504242730889
Rh 8.605284996710445 5.677055182931323 9.478770917076439
Rh 8.632427250940069 8.58517096519544 11.424852398819043
