10
Energy = -50.19880672 eV
Rh 5.65972387844069 5.110545336748185 4.964664430967473
Rh 4.0535375999851055 3.644134221203742 6.4130569276096905
Rh 7.357931037550827 7.3460269250177 4.477146422979437
Rh 6.0917475495028155 7.3360901031677885 6.667043066927582
Rh 4.835307794736198 7.516082691365014 4.426784374943942
Rh 3.8189865248427166 6.0514903140727005 6.267906402315382
Rh 7.992901494609486 5.558229336905022 6.119498300935699
Rh 8.571924140369758 7.979396145409105 6.669442898199155
Rh 5.863938871825391 4.916293373566492 7.493722368917151
Rh 7.689918130421057 6.477628574828029 8.436651828488527
