14
Energy = -73.80411575 eV
Rh 6.9475289916273315 2.9808005950172602 4.5029979658860295
Rh 6.787784794056306 5.353323644276955 3.8568892640632164
Rh 6.619296871304084 8.269400292934929 5.816850025185429
Rh 7.814241152743886 6.09915455776197 5.8930026466003
Rh 7.131598219503319 3.915646695077764 6.7786897447136845
Rh 5.530057921050796 7.411890852076093 3.8772289744260835
Rh 8.776789333715692 6.665302299305031 8.028434445042254
Rh 7.104611723658532 5.1626815208389205 8.946470252331812
Rh 5.012008892187394 4.294759751286003 5.267642446666123
Rh 6.1289477753040815 9.993951866790043 7.5231675691962
Rh 6.673530375982038 7.781514471476273 8.447205165235848
Rh 5.588912148889317 5.920802250778522 7.138115345668141
Rh 4.440055761779154 8.21831831846936 7.159097804825697
Rh 3.896560820739731 6.51965156546752 5.357278519655358
