14
Energy = -74.21781753 eV
Rh 9.669098828837058 6.661596456352253 5.591645953764781
Rh 7.706641359135283 7.878400509372657 6.2530214910352955
Rh 5.669368588524149 8.587438649071922 4.877895208920689
Rh 6.391282874304571 6.191179031467283 5.0529445614233826
Rh 8.426117638844635 5.228570528890245 4.167867512879865
Rh 8.370021323411834 5.6875761193526495 7.504554572151956
Rh 5.861782507828376 9.144988772107217 7.410675998378
Rh 7.404665560523195 4.058578095277534 6.095491151647873
Rh 6.007168582672857 6.63265317986735 7.858557660169324
Rh 4.011452872783887 5.958509772241377 4.6628680038098755
Rh 4.111201529658935 7.586302956080318 6.552978667250005
Rh 6.528166037191957 4.277794351552932 8.611015146723828
Rh 5.011220335225498 4.650273229435827 6.705671878100542
Rh 2.762218018349341 5.580061544232987 6.791464278864134
