19
Energy = -103.15581353 eV
Rh 6.522932837365445 7.197108937162297 4.84413341826429
Rh 3.2837505053758047 8.406169652750306 4.742720169031269
Rh 3.466176992868468 4.179984052627986 6.178028094174231
Rh 4.423102380712639 6.518549570536935 3.7215647930601374
Rh 5.217541044497644 4.765076856155323 7.758151501798326
Rh 9.572477308817678 6.713702829698434 5.8836772661588075
Rh 7.5103979869680115 5.549758812483166 6.685955721277942
Rh 7.809624011347612 6.727061721548001 9.115911556636778
Rh 5.687407538384654 4.791101002622609 5.190030229483844
Rh 9.6688061052273 5.400857588893545 8.026378218145656
Rh 9.381013879762644 9.224781865262589 5.692307678109188
Rh 7.409658705888244 4.21894659601973 8.824449281323359
Rh 9.782601653957563 8.007970873102648 8.091723199848687
Rh 5.478336937304171 7.372700912243036 8.228000083774583
Rh 5.2084247200492815 8.890198680871709 6.143428009768563
Rh 4.12134549433547 6.581629357628408 6.242762847917801
Rh 5.684012695002624 5.676466483009519 10.053749766087481
Rh 7.510847059606092 8.227789897449407 6.974461077043094
Rh 8.562751807886244 7.813175782655306 3.8622450921408893
