16
Energy = -85.73970651 eV
Rh 5.1167697113468025 7.708101802196061 9.418790642828958
Rh 7.532472454322439 7.114105408371968 9.553994505726788
Rh 4.27887657547597 7.156042220889362 7.063533254988657
Rh 5.478637829034857 8.604742181685454 5.2015465637340315
Rh 6.657561912900074 4.644414749716252 3.8144444260811694
Rh 5.9282770543384 5.56313841250409 8.338334841407452
Rh 6.950929414883052 7.08030134866767 3.3763229602083986
Rh 4.281862949778539 5.80971601030188 4.552960045909882
Rh 6.333425312574452 6.331604542229051 5.739922007316923
Rh 4.876925494189745 3.263471546272621 4.783462185852491
Rh 8.732910824767826 5.703979827674676 4.883646394160189
Rh 4.276745812851529 4.578396544457034 6.7692477115775445
Rh 6.815387965269829 4.022634894261222 6.39618610065369
Rh 6.619016537502897 8.310476436715554 7.503420978470487
Rh 8.106426372968862 8.146923661438226 5.478306148366726
Rh 8.30108784042129 6.182647450693235 7.362637533977989
