12
Energy = -62.14679255 eV
Rh 5.174758155648941 8.187290428803697 8.32779058337752
Rh 5.1530726516496435 5.786147648374814 7.516126632045403
Rh 3.788129754791164 7.597173357695262 6.432385045114363
Rh 7.574831092925439 6.075030934860278 7.1054740650180745
Rh 7.226970534581375 8.507574901750436 7.172007870423206
Rh 6.6866295392354465 4.180105112410798 8.452656438894946
Rh 6.04221403392658 7.486914529313187 5.262416116838836
Rh 3.960949115379095 6.576139491463819 4.245403487225577
Rh 8.431694805120904 6.975373907764867 4.9732887724976145
Rh 5.586339469890135 5.056958689727961 5.171727858086126
Rh 7.437699970804228 3.704115267995534 6.202457564241877
Rh 7.874817311728895 4.832155461497228 4.104220882805681
