19
Energy = -103.03081452 eV
Rh 8.704505766419715 10.108540816835907 6.076719771875242
Rh 5.567704865617725 5.173538609409408 4.975899167026001
Rh 6.330748554809391 4.850874529229252 8.904479108289681
Rh 7.980580649270968 6.033782488270357 4.214525076766903
Rh 4.173970184797355 5.41146364908122 9.80905309777307
Rh 8.328685372680944 6.291228718496168 8.879785940861757
Rh 5.798828267053932 3.398118389805959 6.831842910462864
Rh 7.50943912114174 5.203001638527051 6.520976639408665
Rh 4.54970687221339 7.353000913714151 5.796535939640646
Rh 8.485463532694782 8.509746838639606 4.245529104149457
Rh 6.0273384482536 7.517176916607383 3.798210200537741
Rh 4.229308650649014 5.2834352614303395 7.3169223928844005
Rh 9.886580203009622 5.504184208023831 7.038387116938482
Rh 6.140303945332219 7.1412853899324515 7.707742046253702
Rh 6.5230562503124885 8.946934576545168 5.9019145774841375
Rh 4.369160867257196 7.728790273229546 9.20888013671626
Rh 2.82674585150688 7.394082689961131 7.421345295814323
Rh 8.540954496738287 7.681939699792897 6.745807872385599
Rh 10.223895686569849 6.765446294719406 4.955581987044971
