13
Energy = -68.42930226 eV
Rh 7.757341232850812 4.207591566914837 8.210814173372075
Rh 6.589647657607261 8.196876101390218 9.247265346749645
Rh 7.646407176625666 6.531757155819842 7.624618301954601
Rh 5.387283684988534 4.165984898366013 8.451072885886525
Rh 6.355660909779001 8.785184973862263 6.96758561776073
Rh 5.290215394323002 6.492068447361151 7.870703676603643
Rh 5.158986155695262 4.6859733047374705 6.036860989470782
Rh 7.480310653032632 4.72298495082643 5.801312782782644
Rh 6.125712035937917 9.363941482499925 4.688418468030278
Rh 5.035584352644534 7.145409080020118 5.307132381484203
Rh 7.389289758353136 7.1849142922225715 5.061837086681286
Rh 4.8833310751562475 5.39632882826571 3.6750539100498307
Rh 7.251785331487108 5.432482657382746 3.432558564992638
