13
Energy = -68.39657355 eV
Rh 6.84807312432889 8.649304956548884 8.739340145132475
Rh 8.119021708711678 8.084953803984405 6.49819439128174
Rh 8.577085179501298 6.84807312432889 8.73388703210583
Rh 4.603537597975856 6.84807312432889 4.448678273430495
Rh 5.119061069156482 6.84807312432889 8.73388703210583
Rh 5.5771245399461025 5.611192444673373 6.49819439128174
Rh 6.84807312432889 5.595679647151497 4.312358774036539
Rh 9.092608650681923 6.84807312432889 4.448678273430495
Rh 6.84807312432889 5.046841292108895 8.739340145132475
Rh 8.119021708711678 5.611192444673373 6.49819439128174
Rh 5.5771245399461025 8.084953803984405 6.49819439128174
Rh 6.84807312432889 8.100466601506284 4.312358774036539
Rh 6.84807312432889 6.84807312432889 10.563644525378761
