15
Energy = -79.95906273 eV
Rh 6.9414963647353645 5.30839253099928 8.970937786310488
Rh 4.610830168188672 4.277863005729278 8.84760790730095
Rh 6.160366189475852 4.29389328689787 6.828395869804631
Rh 3.592022613541202 4.823304976283447 6.605211894821942
Rh 8.741399667667386 4.570323079288948 7.086067014085752
Rh 7.645509676868986 4.962615036181446 4.8442093728869
Rh 5.023879914205767 6.543566949457519 7.758100132227418
Rh 7.469953579772665 6.701229224691601 6.938195654397285
Rh 5.282584761240479 5.849689783006801 4.945611935965703
Rh 9.353638854911553 6.746972123705035 5.329449356146295
Rh 3.4080798361596547 7.254397348696241 5.821675690134402
Rh 7.169524763422393 7.403649777900937 4.128665926081827
Rh 5.707134367131855 8.350079282889666 6.0307134044344375
Rh 8.114038100252984 8.937537550715145 5.97246482389516
Rh 4.705043421763818 7.9711528961517555 3.7172138305730322
