14
Energy = -74.24731437 eV
Rh 6.744203291921742 8.553968231836885 6.744203291921742
Rh 4.9344383520066 6.744203291921742 6.744203291921742
Rh 5.508891312018457 7.979515271825031 8.963202524030688
Rh 5.508891312018457 5.508891312018457 8.963202524030688
Rh 5.508891312018457 7.979515271825031 4.525204059812799
Rh 6.744203291921742 4.9344383520066 6.744203291921742
Rh 8.553968231836885 6.744203291921742 6.744203291921742
Rh 7.979515271825031 5.508891312018457 8.963202524030688
Rh 7.979515271825031 5.508891312018457 4.525204059812799
Rh 5.508891312018457 5.508891312018457 4.525204059812799
Rh 7.979515271825031 7.979515271825031 4.525204059812799
Rh 7.979515271825031 7.979515271825031 8.963202524030688
Rh 6.744203291921742 6.744203291921742 10.831734000000004
Rh 6.744203291921742 6.744203291921742 2.6566725838434873
