16
Energy = -85.95639877 eV
Rh 4.53431034453454 9.559220171349011 7.079635773771419
Rh 4.141567983867888 7.295016101841364 7.710187438341172
Rh 4.8947551132319145 7.784072193529758 5.324040306166136
Rh 6.886996115502308 9.182900787664728 7.489285443672633
Rh 3.77378445869055 4.985582131181366 7.30500807338377
Rh 6.487105116302531 6.785441604388952 7.9428917790371445
Rh 4.760050876871828 5.2477837001196805 5.113574712908345
Rh 8.810390897618909 7.675307226388867 8.338938608050444
Rh 8.261415878787565 5.176036653538401 8.779182230425645
Rh 5.943079996897845 4.356201249846533 8.205603986505135
Rh 9.432309092256228 8.635516173526572 4.326564127919678
Rh 7.245755392780794 8.665984974176498 5.224752697090014
Rh 7.047897487214452 6.249384142620739 5.69276185643061
Rh 9.338838912294827 7.101884195138686 6.121001560538225
Rh 8.987067238211285 4.703305620763503 6.556342679101552
Rh 6.666862990912865 3.827030562300301 6.015180003474515
