18
Energy = -97.72798669 eV
Rh 7.924938005550563 10.36261147805009 5.056529487637459
Rh 7.669430261010763 5.192649340207038 9.13705714737266
Rh 5.998631811660559 3.8466251453961844 4.52407862493803
Rh 6.254698957472587 6.77285749182734 10.57212304435181
Rh 6.211272191849143 8.162395154360693 8.48134662138859
Rh 8.18719431508002 6.671248598623373 7.176402520051063
Rh 6.804161077036705 4.5273100732670555 6.772255488990044
Rh 5.950147193842644 9.502292338665088 6.360805183991067
Rh 8.241358341529075 9.245808843333833 7.342229097985498
Rh 8.457657810005587 7.593030356905898 9.532214769271329
Rh 7.579788312527164 5.910584296889614 4.72937536663848
Rh 6.739475003130554 8.291457773001397 4.242790935154055
Rh 5.288448473370963 5.753037232956497 8.473849624258586
Rh 9.021991167686481 8.044777068689871 5.246395428613029
Rh 5.160960877112123 6.226164994292007 3.961788617502187
Rh 5.711444581397536 7.01446191443572 6.261022919461008
Rh 4.304627724241232 4.933924193125253 6.145932040130339
Rh 5.113223864327907 2.6524445418396874 6.502638615165327
