14
Energy = -73.57054144 eV
Rh 6.236081876511918 3.4206072909720144 2.179628270721018
Rh 4.30358923752462 4.980446815600882 2.678084088952297
Rh 6.7880561301308395 5.642881958262931 3.154022372984523
Rh 5.102572022972182 7.311781791879758 2.2785950833496917
Rh 5.794642725780654 3.733800426884154 4.580426509922783
Rh 4.693934019456179 6.645293078958003 4.605394361153758
Rh 3.4499385663218654 4.434035907681845 5.106071002630496
Rh 5.555458676204246 7.96603942320601 6.547450150183908
Rh 6.758449051915543 5.835947130224538 5.76001289674315
Rh 4.376830272674471 2.196289691059887 5.954336961515408
Rh 6.245573724587623 3.6300557314701027 7.024109209227775
Rh 3.4665657044400464 6.439485070785347 6.755817137123477
Rh 5.567002873459657 5.90322131230045 7.985438022043574
Rh 3.847040521242765 4.0458497739364 7.576349336670174
