11
Energy = -56.17882621 eV
Rh 5.463798427858113 5.550691322913698 5.649993490707091
Rh 6.6929500463337614 5.707222999048148 8.181853688694149
Rh 8.075243544965732 5.45034299045002 5.957075763278281
Rh 6.6212597746388555 3.6872362644637793 6.773343311257594
Rh 9.45766420359426 7.332727845557741 5.169750073936819
Rh 4.596869144120421 7.6859244111065905 4.77717030150124
Rh 7.015438112008579 7.544048503863458 4.912860625542123
Rh 5.531305391792683 8.005465886271889 7.035754269736004
Rh 8.135866498642189 7.685840925169065 7.219472082323352
Rh 6.737597911659455 7.958180914062083 9.183508946599865
Rh 4.292558935617831 6.01286992832554 7.7597694725528665
