10
Energy = -50.700152 eV
Rh 5.351786725518813 7.200012448548847 3.374796869473562
Rh 5.396341598447572 4.8095800175644925 4.128120260048599
Rh 5.240537984065563 2.51288081516088 4.9963874435035285
Rh 7.173597311818928 6.43946447679998 4.973384951987644
Rh 3.155720929764197 6.991214747291757 4.476327487999174
Rh 4.112622818411461 5.367136240824142 6.050705064826559
Rh 7.1630352939733175 3.9253136917610276 5.759639498745253
Rh 5.1393652251301845 7.68797977326485 5.869156592247817
Rh 6.293402158158031 5.777642717666845 7.293451547141965
Rh 5.158826382321559 3.4740114987265307 7.263266711634566
