15
Energy = -79.74546889 eV
Rh 9.808194845469556 5.264090423159209 7.547682633209201
Rh 8.25420803746014 6.383108746930746 8.970018077083177
Rh 7.15818806437812 7.37623436656975 6.992527558539718
Rh 5.393789305352422 7.188723951831907 8.829617940247005
Rh 8.70516348145419 6.0937352887858225 5.547212635140764
Rh 8.271086385884386 8.43476687359574 4.983124053697034
Rh 6.515424827254968 5.053737400949891 7.940814770953828
Rh 8.056143623935311 3.8573420691915885 6.545034759781369
Rh 4.673198230306876 7.942314131282057 6.615531056172314
Rh 6.038512415722796 7.835919052741364 4.484463343429031
Rh 4.254269520133384 5.4407656859391755 7.1662872010550585
Rh 6.24445959729285 5.403049325083509 5.357523120350687
Rh 3.819773958574421 8.818688760659272 4.543312417641887
Rh 3.9561257545998876 6.315843950113506 4.652141875735245
Rh 4.25046712287986 3.9446936252303697 5.215810792026862
