12
Energy = -61.76683326 eV
Rh 4.49894984721421 5.011388362222977 6.753416705591934
Rh 6.381174333855652 4.579175606984033 5.16901513668032
Rh 4.24289741794436 5.543593714823951 4.329105255475357
Rh 7.166014460866823 6.102091347053203 3.509880355259665
Rh 7.88944747923985 7.299700092269887 5.583179390249613
Rh 6.016812856245536 7.849135916091428 7.153580536316116
Rh 5.234330643617215 6.274629756424875 8.794470787542599
Rh 8.077486691356414 6.821022532189977 8.043848264312679
Rh 5.5450017576154265 7.581828529344884 4.710648108929154
Rh 3.723496465080859 7.304103637767199 6.420412766449393
Rh 8.697772951674308 5.028571026867999 5.973280133094707
Rh 6.848547911248135 4.760295924569843 7.621756154264033
