18
Energy = -97.79411548 eV
Rh 8.41584866305717 7.809950841549392 3.964062198715679
Rh 4.707632893878859 6.027417649295129 8.776450008768114
Rh 8.477423375517816 4.386901819022042 7.482269392024937
Rh 7.230016315967413 6.172085892548533 8.762387072390354
Rh 7.786705469611388 8.421535745443238 7.37179952529763
Rh 9.267884090483365 9.38729112682683 5.699775165069024
Rh 6.053632879675321 4.693580845776469 6.9760940089650685
Rh 3.565299717752176 4.318675590525132 7.383439687032648
Rh 8.455208410193574 8.116506462474629 9.755605637297148
Rh 10.26009148386722 7.077705191086236 5.670525052051773
Rh 7.880676132766233 6.1822962519623985 5.855245717429409
Rh 5.953960769778001 8.293643139272637 9.148040587747374
Rh 6.038851634506613 6.891257454659655 4.2646566179281455
Rh 3.072657757443815 6.794091299086177 7.027021888741712
Rh 9.653106498480705 6.657227235605668 7.968609134553789
Rh 6.683434413099746 9.156985527374943 5.210044531414508
Rh 4.351001031393798 5.5149107064131595 5.281377296796274
Rh 5.491873561407837 7.389588849067271 6.7327587417347905
