27
Energy = -152.46044891 eV
Rh 8.788494358424133 9.206925532495 6.99033887257288
Rh 7.909054019697849 9.401813326095539 4.373049079420496
Rh 6.463318337406095 10.58341425331265 6.42696929165487
Rh 5.144845068131877 9.277598700625303 4.484096786589205
Rh 4.374455048230959 8.97102282991431 7.065426912235355
Rh 6.63061751637203 8.992544836394925 8.581362582430886
Rh 6.655610659403492 8.146282570525923 6.076498510567944
Rh 9.029838814323433 8.131374753227005 9.570704772991649
Rh 8.92991031769771 7.180725784888618 5.181370126904454
Rh 10.466931497438608 6.733873309989359 7.404977714966129
Rh 10.638194386224402 5.408865597890529 5.227252775366148
Rh 8.050844526805458 6.866359847132208 7.735281064323629
Rh 6.6034889802563885 7.04768319965684 3.775858447948557
Rh 6.736671505414361 6.727281172780056 10.01643615953114
Rh 5.460058364127241 6.782630477117611 7.799260921989717
Rh 4.456026447747828 6.839557699583656 5.382736120951876
Rh 4.365452479683043 8.033521577939764 9.617139937212677
Rh 3.003373529647558 6.690060661917903 7.616042819407667
Rh 4.385006838737423 5.337541475476904 9.51356315552217
Rh 4.573440497416379 4.58631904568094 6.831480806748673
Rh 6.7569261528539295 4.594724019136585 8.391803515188268
Rh 5.397642544838625 4.557051245722577 4.238962199402759
Rh 6.80377340385443 5.6324349531179685 5.905103132803604
Rh 9.017159151994353 5.449876120463394 9.527002915527945
Rh 8.942056574649019 4.570400749115522 6.925160736907258
Rh 8.373297859230584 4.656620435743475 4.306239061436833
Rh 6.720638810473958 3.1690156051996627 6.149238888720496
