28
Energy = -159.62471827 eV
Rh 5.868512849662743 8.996930848487535 9.480034707757087
Rh 4.659840065560589 6.759733746514614 9.5914055313486
Rh 4.9523774795253654 7.986378041895804 7.342627025430257
Rh 7.080409869523824 6.984163432524403 8.556085804040242
Rh 7.148565451305498 9.280678013157958 7.326499239773733
Rh 3.4306584043676933 4.619747608124581 9.735244186574644
Rh 3.2890628536738022 6.052407341576984 7.514783640718459
Rh 3.9711104572165996 7.074778771180273 5.182882442965698
Rh 6.046851511922368 8.638901882358786 5.110126138578571
Rh 7.995529077017959 7.133053048574009 6.125208286272492
Rh 8.458745892374427 9.571102135252493 5.136081788481242
Rh 5.961065488188664 4.67488270661953 8.941160736121674
Rh 5.708419375313736 5.54333391951731 6.518553194896318
Rh 4.077365983056105 3.507505304877152 7.651564541272008
Rh 3.429562414149847 4.529451265537719 5.416328445597873
Rh 4.9269001302458975 7.9283929939681315 2.941074211113126
Rh 8.170187585512762 4.9013773093441495 7.642091833578932
Rh 7.625042463262106 8.378445970563789 3.0644418928495893
Rh 10.329197567361536 8.034674592009592 5.366648635277276
Rh 4.305804194802755 2.0980786466794497 5.636523393440324
Rh 4.22857186221314 5.5121017237622585 3.129539125057534
Rh 6.492657386408664 6.235526520619767 4.003005662871355
Rh 6.504896645894586 3.095036791205214 6.776899189323971
Rh 9.062337725524204 6.501937103334093 3.867934382636283
Rh 10.124815651033657 5.6414714302566065 6.121088911342606
Rh 3.5189986829426836 3.120566312056541 3.320817750290926
Rh 5.724560787863671 3.7555619035123327 4.378071368222499
Rh 7.989402471358518 4.521405748839719 5.1692029241923105
