21
Energy = -115.7810744 eV
Rh 8.4556819808472 8.188986115150167 5.040379833415694
Rh 4.027038103923832 6.0458385499020775 7.246578012377233
Rh 4.0948968116738715 7.471915041536832 5.135039265049708
Rh 5.943102433349429 5.224701976119979 3.330651354618342
Rh 7.939171163107409 3.835020567481839 3.7004728252089176
Rh 7.775256190144331 6.450507965617796 9.733202391653267
Rh 6.388286332386353 4.925525475672429 8.107802227664497
Rh 5.395824376242236 5.688489625757285 10.35589590790394
Rh 7.215497642611766 9.26575648056367 8.393060558765304
Rh 8.529249510886576 5.704688007859386 5.326152821058328
Rh 7.983317137686214 7.126970564208028 7.369171641251233
Rh 4.1438263018166746 6.730255029175311 2.8236779856308183
Rh 5.583843480995798 7.425062738848174 8.62328464326285
Rh 6.260895443012472 7.804635607396496 3.808066391961984
Rh 3.784266968371185 8.581327264564825 7.364120239046326
Rh 4.00477594832321 4.341342518621632 8.898370038957983
Rh 8.860286034156639 4.802367571846131 7.685989216114481
Rh 8.156257391506623 6.392909433519149 2.9888973015812876
Rh 7.293022338353522 3.599609924375806 6.102595166513301
Rh 6.0036878605754955 5.8393447528558875 5.67014443892689
Rh 6.167366005754057 8.605194566903076 6.2305168967679485
