26
Energy = -147.69464184 eV
Rh 6.634216894550158 5.625005180063197 11.443149381372193
Rh 6.233472439705392 7.7744040182768535 10.202069029467234
Rh 5.896385865417431 5.473152822465464 9.122647672592706
Rh 8.343754502207 6.292491091973655 9.783395105014373
Rh 4.577235122462531 7.660720842951619 8.25739070908578
Rh 5.797223059254964 9.772598691239875 8.716561644053263
Rh 9.862538754285975 6.6420358569211775 7.819655205058326
Rh 7.944145735897937 4.933280984590231 7.6556049213577895
Rh 7.956578382506495 8.359494034190433 8.321679658607591
Rh 3.7214862799205264 5.295324239771086 7.900043420581444
Rh 5.787455098872638 3.537205515230771 7.544854817974664
Rh 2.4876579288303775 7.214578131102239 6.960812541304773
Rh 6.608045585739592 6.8880886698862875 6.962683932375928
Rh 5.063558315585605 5.267350564318853 5.870198806945802
Rh 9.77902681193467 4.566333480773178 5.986845109325658
Rh 9.71705563659912 8.990716512892332 6.612400217453739
Rh 3.904513932305506 7.218095470388166 5.032388581915477
Rh 5.376420983646357 8.92070616184494 6.167243160634601
Rh 7.422195631735133 10.38082924421767 6.880279373529828
Rh 7.318058888426845 3.991995378998041 5.43001811538724
Rh 9.448656978300214 6.892548947342787 5.242484812859589
Rh 7.735839543399505 8.766822644995509 5.0524330897055885
Rh 8.95036869672254 5.026817431334333 3.5858249871344383
Rh 6.963847581274194 6.2487086871619795 4.452903339233139
Rh 5.700558754150524 8.252558838423173 3.6604620256707365
Rh 8.384719416899284 7.623153379276531 2.9509871619884143
