29
Energy = -165.10356487 eV
Rh 3.0221475000098192 5.871046345206617 6.704338942785705
Rh 9.182959635062085 4.758039645646942 4.999018631752524
Rh 8.19034924476603 8.140478858624927 2.1401213410512283
Rh 5.520054017677341 9.475878720897235 7.14531043784338
Rh 3.38603630352087 5.966461428857223 4.2380720942987695
Rh 5.2444796034227545 9.303980072614308 9.57449340823019
Rh 7.268265808674737 3.31251073244398 5.755509094111249
Rh 8.74600255103757 6.397037949166921 7.052236923598851
Rh 6.933049881236229 4.694055986135889 7.809800924811401
Rh 6.834465635892039 9.148132668208163 3.8684477673291418
Rh 5.587715564642198 7.067503931376229 3.750778597103309
Rh 7.2589263251137925 8.035370271685892 8.51050782977147
Rh 4.510760811258513 4.582504828826251 8.209806023065427
Rh 4.134396535515459 7.898980134069557 5.680511155223311
Rh 8.327531181958685 7.070099606711892 4.512823712415558
Rh 6.6914658122782535 6.264117203400014 1.676471131307062
Rh 8.367395147043215 3.561939564572299 9.664282833042506
Rh 5.065964160578345 4.684902395158934 5.671194389820984
Rh 6.339693200492964 6.729927994435393 6.236910239216931
Rh 6.874331617728617 4.886362047190256 3.83645295566956
Rh 3.6971756562052844 5.823374533175399 10.211551850779893
Rh 8.095943285294455 6.009352450575905 9.688955980779744
Rh 6.001205915367966 4.49300267752151 10.212500909044854
Rh 9.237365698533608 3.816214182607062 7.303027729528472
Rh 8.991702835596971 5.6459493375383385 2.5979240368207837
Rh 4.720663995393928 7.148357780935595 8.211965952878387
Rh 5.858634601849201 7.03301443939367 10.449365508814287
Rh 7.81333648862907 8.847176898222862 6.1831048587030475
Rh 4.898930690463391 10.13517702004351 4.905464445445833
