21
Energy = -118.31771884 eV
Rh 4.589429351118551 7.0813400273451865 7.23833527841197
Rh 5.9547231598248045 7.0230059888573795 9.437821498679284
Rh 5.769129136407944 7.155742100643613 4.978442360232999
Rh 8.501772323161441 7.03237055052753 9.374557643271794
Rh 8.31540745408061 7.163875287667651 4.915103104330113
Rh 9.679689379345449 7.099046885699856 7.114552353521411
Rh 4.866471940373082 4.961366363144751 5.872386855925081
Rh 4.938667710017212 4.91017050620746 8.485847200906859
Rh 7.038865058256099 5.007014999278254 4.522875476883452
Rh 7.242910494686033 4.854116101601068 9.697270667535687
Rh 9.342020346826708 5.003161509830551 5.740065217727803
Rh 9.41560332123184 4.900086156074582 8.351472509529602
Rh 4.8413916629338205 9.316606084118401 6.004772155498682
Rh 4.946066380718656 9.213465405005715 8.601719226825457
Rh 7.029764372807696 9.36762236021107 4.643046857081725
Rh 7.228434777936258 9.210745901767352 9.847955136626098
Rh 9.31162452523598 9.308131870544116 5.8841745157701535
Rh 9.414732752561395 9.256107039497707 8.48219983610485
Rh 7.126832007531661 9.555445159114981 7.252918686918778
Rh 7.133889276614559 7.129754886857528 7.177670545742779
Rh 7.140986171125842 4.7613075906711595 7.105227839242636
