28
Energy = -159.91851054 eV
Rh 4.090159009946339 4.318180057537496 10.35672073073013
Rh 5.2720115177067 3.476904386831633 8.285367962116558
Rh 4.026024404678763 6.535250533527209 9.004237196629271
Rh 2.8986477336153507 4.344856893530668 8.13587061596115
Rh 6.280063907469734 5.423513176139967 9.700625578964
Rh 4.368386852083873 3.9442577505823717 5.949499901825822
Rh 4.519073458652926 8.38704470198689 7.17113120009823
Rh 3.1384855470463275 6.241198692030306 6.519227645817108
Rh 3.42105243610692 5.402788152311741 4.041944731034188
Rh 7.790517050561768 3.615771278520525 8.798342835662941
Rh 6.391293653800704 7.741712109730067 8.726325955228479
Rh 5.579880314243076 5.92179455816249 7.049343868414133
Rh 4.784247644986418 7.343277934270609 4.875585122074929
Rh 6.379272013399363 10.063562205073024 7.796689411347734
Rh 9.479165975546913 4.1191311259280985 6.801445473302936
Rh 5.104475130525313 6.727601468949208 2.458240089885431
Rh 6.992350845356253 3.8347212416263328 6.368085233281132
Rh 8.090847546709773 5.9608368317181935 7.8538760071811815
Rh 7.378353577298987 6.82163566509439 5.398160586635833
Rh 6.466260520042001 9.197719232703319 5.4326504227654375
Rh 8.265435222247785 8.467300917262628 7.110382009559235
Rh 5.040176983078845 9.254754870979722 3.303387404851229
Rh 9.829468043925877 6.60795994705746 5.951504368337951
Rh 5.92989722198325 4.965500500501559 4.205449522998425
Rh 7.503761586791943 5.657573193208769 2.329554021979418
Rh 8.564203825987075 4.78578349866626 4.519150800931585
Rh 7.220753095244832 8.033912428813968 3.16746524344159
Rh 9.473317982967616 6.959372043992753 3.499394249513312
