26
Energy = -146.66576163 eV
Rh 9.948919685229171 5.330762013282365 7.854910256824493
Rh 9.316501811988042 4.561215884982212 5.531041676392446
Rh 9.02860463108411 7.003128936794432 6.2092149478926535
Rh 7.534561701147371 5.003388585905361 7.281081273024337
Rh 6.4953661707822405 2.913712212842387 6.667087668668606
Rh 8.187256711168395 7.225360492628818 8.491611918726937
Rh 8.81908646468979 9.335121730017708 7.152942401429247
Rh 5.778992759517181 6.499458657578691 8.61720660692186
Rh 8.148912927304641 2.482185284851135 4.903769789939379
Rh 5.444472752374884 4.040005853240493 8.693944618275756
Rh 8.46836050022064 4.173750671153626 3.0374695534557707
Rh 7.716251291372349 6.239954056653603 4.199917037797522
Rh 6.236139752098705 4.165773232331362 4.533525819376425
Rh 6.347104541332382 8.738260304097704 7.493445812354075
Rh 5.831516883706928 6.5884940903696645 6.06998632636505
Rh 4.456891174508097 4.523256100538562 6.387389711192055
Rh 7.336560580585995 8.569547229182044 5.199771142389092
Rh 3.421494069994879 5.610642691742566 8.462281478181351
Rh 3.9604935476738357 7.951197524966985 7.4488434197729
Rh 6.28039832460332 5.332434530471094 2.30479152281675
Rh 4.247595213427975 5.615163550547221 4.008789967353993
Rh 3.8989085020658627 8.00399058355979 4.8251317339551365
Rh 5.764109458145533 7.652991538395253 3.396213977588703
Rh 2.557306625638964 6.1535194938707045 6.061575314311536
Rh 1.5993341395609317 7.312988644771208 8.22651878866797
Rh 1.9491018396982225 8.669758106400012 6.113025653311214
