28
Energy = -159.15585862 eV
Rh 4.493400993478463 9.075669822591669 5.129761380654259
Rh 6.147380588946991 9.805804487483435 3.2670819998533918
Rh 3.195665039866131 6.817744272907209 4.563536229834575
Rh 5.471648398972609 7.368192596412648 3.5258958031087104
Rh 5.742140646936194 9.092925022561573 7.486343610407928
Rh 4.403772085973115 7.059911923070893 6.756370045990692
Rh 4.902131051928653 4.9497123615387 3.916010579408313
Rh 7.0456386437155825 8.640589111259382 5.321346568889252
Rh 6.3965928161545085 6.22537141685357 5.643622833538593
Rh 7.053984014877409 9.075931847907865 9.683242713993565
Rh 3.4908490768302083 4.72952602741894 6.0793589661951755
Rh 5.29258973328046 7.218531785710967 9.211368679017939
Rh 7.932281790819271 7.890927875455713 3.0320123908706966
Rh 8.248537137462199 8.474927025388165 7.508910968621357
Rh 4.301480745246517 2.6129772734412264 4.886884692167761
Rh 6.807456109283513 5.577084828639303 2.3098581203018274
Rh 6.605987576751976 7.322801514152422 11.460228077182292
Rh 9.390973071380605 7.756124409211509 5.229261324688205
Rh 8.34759531394686 5.582811619134124 4.276162387459752
Rh 6.97812269775623 3.4646667882687527 3.8145095392882515
Rh 4.172694490372029 2.664459037982958 7.400194426254544
Rh 6.10791739584341 5.050566065599899 10.407722502950048
Rh 6.130614484434783 3.7423471690712606 6.156459972518634
Rh 8.532013154422213 6.033776519253883 6.892237443883103
Rh 7.698147189031581 6.630048945761789 9.229432056907427
Rh 4.8946245450168 4.93155359194564 8.213551914176149
Rh 7.364361757305541 4.262197999200634 8.294919660789885
Rh 8.565832800187763 3.6572520119966696 6.018148461268822
