21
Energy = -115.32603847 eV
Rh 7.589715020691808 5.95442119819686 9.930130124155141
Rh 6.181666890646484 7.8012421046085185 9.10414949655895
Rh 8.836849632749365 5.957603557745338 7.875410113813653
Rh 4.37068344275513 9.41008856005353 8.974182355840233
Rh 6.9798110723433195 7.181380261985262 6.931196715439299
Rh 7.611843204204511 3.8716220451232837 7.911373501256949
Rh 10.565727189211453 7.153279881659355 6.718117442961506
Rh 5.661346623556465 5.379865920589211 8.366184573296541
Rh 9.335474750362007 5.542965998269761 5.3473402914503945
Rh 3.7871764969815227 6.990242655033832 8.808199458698663
Rh 6.1837060521818294 4.727560067306242 6.0081033468443215
Rh 8.669678277904438 8.024116649658865 5.361332368336946
Rh 3.6705537600324956 8.559409217342775 6.812001187026795
Rh 8.308595419039964 3.4234213784250382 5.477840846548887
Rh 5.364357723568811 7.838545848036153 5.1287658720056095
Rh 3.9954466250432543 6.014355355613667 6.482514660090382
Rh 7.0685735061084225 8.63837591450265 3.629265836767952
Rh 6.586458383551577 3.862592733930855 3.6941798423222707
Rh 7.197872896739966 6.209734093335375 4.1653096001341
Rh 2.899840540510536 7.428931116602408 4.694784348284859
Rh 4.655370432299054 5.607693338900958 4.0690149883812055
