22
Energy = -122.14148295 eV
Rh 7.219865631498269 3.427115055054463 4.154256239283356
Rh 6.9469807279401845 2.2976501343286264 6.499327723597291
Rh 8.187441125717399 4.474028493943872 6.169919529347631
Rh 7.882948990535848 5.948054101739473 3.97571325596557
Rh 5.487796664443603 5.178552911316285 3.262716028544471
Rh 4.984893679361697 3.4905380281606564 5.309260036817691
Rh 7.256502205795043 3.8783070657138445 8.605839941864627
Rh 4.888813960148352 3.0338410098887545 7.905352717895853
Rh 8.204876973436427 6.987179207554358 6.38226427534036
Rh 6.330329947403138 7.612447178107957 2.685498089087406
Rh 5.906045744052775 5.180836657779136 6.804030977143678
Rh 7.72674119263334 8.690831295159368 4.557303276891383
Rh 5.814702687710262 6.8339995870359935 5.132792949511207
Rh 5.0543822204228155 5.180859920844798 9.350867093537776
Rh 7.101733578557992 6.554593987972817 8.597571246492446
Rh 3.4038876680697565 5.043792270637265 7.145009113022676
Rh 3.3320484018893683 5.290647103188933 4.639299313287135
Rh 3.833301060470429 7.334547865665893 3.1694088776585128
Rh 5.127324813276255 9.239813064629677 4.5016692822226325
Rh 6.388890001427892 8.747961099339793 6.788839129278599
Rh 4.692100835947966 7.2432538973848954 7.845366018980361
Rh 3.4164497492850847 7.598276508521412 5.696411814873405
