20
Energy = -108.82925209 eV
Rh 6.194961280931417 6.827044788738465 10.35219144975224
Rh 4.37294782805748 9.639818831329901 7.557116278251816
Rh 8.474880452952238 4.991308890840624 3.8097004684240234
Rh 9.607157627609073 5.528291564698028 8.149411481903206
Rh 5.766383304122371 6.3915380080672675 3.043489919042831
Rh 9.806540811364435 6.23769719741811 5.522359960486598
Rh 4.009801998007493 6.084436288700529 4.807402416440489
Rh 4.630471315181657 8.31163126552033 5.565937606107759
Rh 8.320056329325936 4.354634151749844 6.329660180563236
Rh 8.53972954508387 3.289017109070687 8.498491349015671
Rh 6.929941357588489 9.18491172599705 6.080573309744888
Rh 7.99930461320248 7.112134703604298 7.094424179573548
Rh 5.987907074975279 8.809137812950574 3.62226624517254
Rh 7.1169211309869045 5.3138737165663565 8.620886501846813
Rh 4.660010101869607 5.184696370276309 9.159715916355129
Rh 7.693649627628759 7.276197042844559 4.531291160274082
Rh 5.33676108297961 6.4626914132690025 7.074574290766497
Rh 6.379644390496616 8.42184336531442 8.43914290814749
Rh 4.107903757075631 7.647683999915113 9.063951949528466
Rh 6.347638141417723 5.20245960749829 5.223339817693241
