27
Energy = -153.51236138 eV
Rh 7.564316623285852 6.777352420053132 3.186892729824247
Rh 7.769253931307683 4.251699927287307 3.6533317012114144
Rh 5.3750744410607005 5.259479578381163 3.2766752082465134
Rh 9.155280361199951 6.109163241481674 5.070006426854163
Rh 3.212960657517627 6.6585155339956135 3.608405790164696
Rh 5.422072581850559 7.8109991415196 4.148917025515466
Rh 5.810796247077744 3.4598994506475202 5.155398690578847
Rh 6.530366875975215 5.858124193246545 5.4680763682950735
Rh 8.192719798223624 4.004651699331988 6.215088306642
Rh 7.745838693078109 8.329433272908272 5.272225980912436
Rh 3.5074549338974292 4.402418249083026 4.838702146255868
Rh 3.937286153229089 6.578889915377411 6.051251676807025
Rh 10.166798578179726 5.151065437301686 7.307619749605446
Rh 3.3305258027798836 8.96413109076792 4.889163898310949
Rh 4.491912368705983 4.401004112451321 7.288811612124252
Rh 6.3707470277470835 2.735966069136253 7.556524037389131
Rh 8.613957365572226 7.167550728187724 7.382929954980781
Rh 5.619286665770334 9.811578229094835 5.747367352035693
Rh 7.508277735380077 9.57663398097019 7.645242012142884
Rh 8.65592565929973 3.4360850846201916 8.604383686459668
Rh 6.025884764543486 7.691487720945544 7.104160548086951
Rh 4.506126704636285 6.584539876954277 8.672652355307557
Rh 3.7326009268531872 8.824837007390672 7.338581352786582
Rh 6.8092646754682935 5.20744517023364 8.052991343814119
Rh 8.958185064618803 5.799455372325268 9.492481823582828
Rh 7.063618388646951 7.346216956520802 9.474263988026358
Rh 5.3664066418467105 9.154375753450463 9.190343443162586
