29
Energy = -166.61945914 eV
Rh 8.84998891752686 6.10143677346834 8.932576967542222
Rh 9.414135369479643 3.545888665078333 8.652073684371683
Rh 9.87520187316126 5.103988800776673 6.678353776526179
Rh 9.942878184774298 7.605547394450638 7.041440915432126
Rh 9.672884599202545 2.5502452410602445 6.366571916454544
Rh 6.18183930717119 6.531120951749154 9.235710960496595
Rh 7.194369296703412 4.230724390475688 9.697692927973996
Rh 7.297141097307794 5.337483332447661 7.1791354451844365
Rh 7.502779762819794 7.923431800312538 7.500263055938012
Rh 5.070733868175744 4.395085420840801 8.118258831572327
Rh 7.3113145511744 2.8573832031637183 7.386732622941027
Rh 8.40681436367832 9.219549505667313 5.517795255471245
Rh 8.424532062743918 6.70775672243122 5.152285894684285
Rh 8.103680086888163 4.0626534535831285 5.097642757058744
Rh 5.618439263906524 4.1160795234831244 5.627196792834623
Rh 5.372413188932712 8.845722364951552 8.464638177107473
Rh 5.740406451834026 6.819254936144247 5.6798831991686
Rh 6.781310371350988 8.179705071703065 3.7625614900947704
Rh 4.223543814498756 6.805926364214766 7.525200186187598
Rh 4.941937683217565 7.138670025016791 2.3131747374165577
Rh 6.616620951703621 5.546148756980339 3.600058973603383
Rh 5.918335701507221 9.38753929590804 6.03944336219128
Rh 3.23750178041693 4.692033892444579 6.3786851514268115
Rh 3.452946150252383 9.131813090294369 6.710989819007929
Rh 2.4235416832593004 7.10746983748234 3.0368077893091603
Rh 4.0955877246056485 5.4698095059822265 4.047941195783139
Rh 4.228163221327583 8.464481164374687 4.351363128828133
Rh 2.4879245817781883 7.048210517139782 5.603108750187896
Rh 1.6097138613488422 5.039770979588602 4.388572662018205
