21
Energy = -115.11173489 eV
Rh 10.230010273116044 5.368150311476919 4.9808783936228
Rh 10.162624712634054 9.158268766070085 7.000698638314086
Rh 9.855628704565182 7.753316729483767 4.796871367987802
Rh 5.132121755810162 7.979903456277599 5.097631008345325
Rh 8.818210041747546 8.233928730200846 8.87901220654789
Rh 5.820083719980371 10.150870575055896 5.842657816254453
Rh 2.8394951311071543 5.461222454329208 7.945212226882841
Rh 5.292117644850573 3.5196771115507683 6.764162111749158
Rh 5.183671656758858 4.793415375151231 8.769947493755307
Rh 7.43644006220538 3.5551558979861624 8.056698612101961
Rh 7.345763843886152 6.100954113514948 8.277745714037888
Rh 6.808398807129632 8.636593333875846 7.603242611321513
Rh 3.5118341333016456 5.706987783856877 4.643798670014791
Rh 8.180138288137258 9.69425947525318 5.74628315680812
Rh 2.8885207174344356 7.345225161963157 6.291828759540796
Rh 8.180853393788965 4.779694904073618 6.087670656837053
Rh 5.036973311086326 6.855562533174789 7.417581563274863
Rh 7.57331861101995 7.278532803941267 5.591017338249386
Rh 9.622355986570978 6.65256802014342 7.1226531516306375
Rh 2.992206935978085 3.8964805689033866 6.165945984746745
Rh 5.791968299615248 5.476589579508998 5.491002352573774
