21
Energy = -114.95727758 eV
Rh 8.446462651698894 4.806954993838867 7.426977195354406
Rh 4.893331391934645 8.086848965326496 5.156955823893465
Rh 6.620392436613652 3.232041930415633 6.784661214461947
Rh 6.260132559081332 8.861934102311361 7.198153817929553
Rh 4.806453715415637 5.860735326865976 3.9776003173990353
Rh 5.284323078599733 6.527014770343248 7.177247325920584
Rh 8.281167125131718 6.1181852982044855 3.575639754532539
Rh 7.468410611630066 10.375251887717427 8.66913152738488
Rh 3.0386026529926684 6.376208004049406 5.901856363680596
Rh 6.127435419926087 4.756593265031901 8.724768588574202
Rh 6.829076050003295 5.385644313821969 5.4405810738571905
Rh 8.644819948703843 8.571655505212654 9.656658807868274
Rh 7.530419645253029 6.955551706644185 8.227658512372741
Rh 9.451634994225685 6.371689869330641 5.8504324631333855
Rh 6.262154602922972 7.569407997188114 2.9922550215971575
Rh 9.700789069869082 8.073196345714972 7.521981960698398
Rh 4.513237196577318 4.311215939251175 5.951467671430148
Rh 8.448607233640958 9.786205442526995 6.468820247247646
Rh 4.481028566897122 2.8289938105301697 8.052656105631378
Rh 7.4981310547755715 7.91861606408162 5.10750780884538
Rh 3.4528308750191896 5.127520404126565 8.121785472707185
