28
Energy = -159.58835241 eV
Rh 5.873101290767837 7.790818093180506 3.6473403734477463
Rh 6.705146026003858 5.62291246713992 2.425677325498541
Rh 3.391624826738312 7.92629349528344 4.13594015413931
Rh 8.533298834441956 4.401446763374684 3.8202705078484396
Rh 4.9783579726731215 9.969053037760435 4.565847552394897
Rh 8.396846495919227 7.031992929166746 3.962152021340199
Rh 7.6120291259862345 9.512885814020233 4.349464024409784
Rh 5.908484771101967 7.736035555504404 6.220050121115142
Rh 4.417031397020545 5.606851337601539 3.648951648538145
Rh 6.51825753198068 5.6635502564629885 5.035387383050685
Rh 3.7209906308318295 8.82174284940259 6.521703198861072
Rh 7.325897090415398 6.3182748814965075 7.977474929124915
Rh 6.554533243124301 10.203759195537492 6.533025712236998
Rh 6.602289167641219 8.62531435299799 8.564966653673128
Rh 8.832532190083533 5.549105499112169 6.0948701897502735
Rh 8.347601086593643 8.161508598704376 6.361789738604213
Rh 8.272764328953974 4.05661735446217 8.24495052351188
Rh 4.758876829618648 6.860079189371415 8.371380671527238
Rh 7.380360500075183 3.3690709006150072 5.937563893864094
Rh 3.555535721321738 6.2678077870403754 6.0743422862039935
Rh 5.386197823061946 4.6130045393221675 7.007372126505715
Rh 5.987638696817593 4.7340930856529395 9.421798311302197
Rh 5.932016473558552 3.478714218151987 3.761843565713495
Rh 6.325133951935385 2.4221777954399197 8.04110597676691
Rh 3.14209820795332 4.932521224143196 8.167512179837868
Rh 5.377123437653236 1.7493665560196945 5.710966742738514
Rh 3.864680991072062 3.7085904943504095 5.251200843390069
Rh 3.848101987727988 2.587282822123798 7.605066168062219
