22
Energy = -121.52216897 eV
Rh 9.79415707239053 7.634211003929004 6.534306685464544
Rh 6.384616828411251 7.105023878555353 3.141342786356449
Rh 8.319929403088926 6.86343136309674 4.626429078185943
Rh 9.538407578814843 5.126964127950832 5.882659958171239
Rh 8.176568927996215 9.284583061334269 5.330225718998409
Rh 9.365884669427114 2.9161498439704543 6.693331827236576
Rh 8.40520480079273 6.005416833464577 7.927291056831016
Rh 6.020829228466045 7.851670667473557 5.464347576221842
Rh 7.519335249236331 8.393131849577777 7.501878111151872
Rh 6.081282664051988 10.331615620386422 4.735874393601023
Rh 5.243847724570225 5.206292455268003 4.091820014779752
Rh 7.559201601453528 7.417675685543054 9.911512448613431
Rh 7.457909150752553 3.6325781917780207 7.80404443406195
Rh 6.90745490677641 5.148691794173836 5.92105439024896
Rh 5.566073333314087 8.597915254694474 9.044958944893644
Rh 5.053738337000744 9.698002559803827 6.811280637570998
Rh 3.806563321907334 6.815163537355475 5.514299684569401
Rh 6.339543824645592 5.3100134286394365 9.332601992382791
Rh 5.17127819081929 3.2351950773577673 8.318437810907442
Rh 3.345788333233345 8.175424889139533 7.585561015566903
Rh 4.486012259767069 4.5354958678138955 6.439886968165159
Rh 5.288694705348924 6.561799782942539 7.595573474244823
