26
Energy = -146.59822242 eV
Rh 8.100090236505068 4.126977553352417 9.867877031442994
Rh 8.388766466927631 6.513509490153205 9.43184068349534
Rh 6.3831160132358935 7.966413864031781 8.6819217423355
Rh 8.765154192062461 8.938747365100484 9.064995044706425
Rh 6.111038737404205 5.402660180359735 8.879586517703613
Rh 8.25022490054169 4.829933972070724 7.4158882610141585
Rh 6.55128347394496 2.9277349949671447 8.252784687842738
Rh 4.101811101238596 6.671051857987221 7.827821259416842
Rh 8.500417405933478 7.480820534221272 7.039570331493419
Rh 5.201202599334541 8.654162370206388 6.597544551848175
Rh 4.517452700410462 4.1500327565093835 7.340589744061028
Rh 7.398709925786677 9.771318492559397 7.076131167977927
Rh 6.505853083761646 3.624053004553526 5.851346978980468
Rh 2.5143264751221626 5.106776147788258 6.273893372827597
Rh 8.538476230704712 5.966282331930491 5.064281013747063
Rh 6.177322905764518 6.214932504414898 6.276810597697557
Rh 3.675773439148354 7.133824517775537 5.303935078755883
Rh 8.890296135831159 3.5364093067539013 5.283541135180713
Rh 6.975686511910923 4.497248488401393 3.529151813223813
Rh 4.900601985848041 9.063087264182508 4.117109467945233
Rh 4.530394150742821 4.6629746320565975 4.66137105257867
Rh 7.261116565900183 8.286749602698292 4.908099285939201
Rh 2.367803994593969 5.361615935043758 3.714395311613689
Rh 7.95384074009143 6.897745456638632 2.8449164781357226
Rh 5.623157335495783 6.653065634237536 3.5795657613883196
Rh 3.4196494004238938 7.374104714125544 2.7756853348600585
