28
Energy = -157.73815869 eV
Rh 3.7137724084419297 7.658435661560101 9.37693755056724
Rh 6.294605609004759 5.472916296765293 2.151571344990099
Rh 3.8440583556815504 9.632746410771857 5.0647668583033925
Rh 4.457299034971921 4.600772018087914 0.9343473651488688
Rh 4.168536432357191 7.305563564178288 4.6181181874015085
Rh 9.931452198241974 3.9134190292986197 7.542656958799291
Rh 9.711475277209846 6.091169603511024 6.369841192078352
Rh 5.564078407436008 5.845675595960772 9.32976448395713
Rh 9.917739712275317 6.112627750800893 8.885698769969233
Rh 7.258348685297979 6.483314268081473 6.865010227131734
Rh 7.798180590702887 6.972985886519065 9.98891209600995
Rh 8.534621517480614 8.159155556923116 5.2506928005284825
Rh 6.241872864344799 8.419729676050997 8.55358021873223
Rh 8.19571386128278 4.987736847905645 3.506556241770106
Rh 5.613927565794902 4.461307418517387 7.088128834974289
Rh 4.617268698248264 6.917479796835109 7.0472779398504946
Rh 3.5963214342291607 5.025268549279814 5.570763600136076
Rh 6.110309786260261 8.755444902601955 5.99197015621867
Rh 5.83313031277539 4.406305489449673 4.516161897498067
Rh 3.39511965501902 5.114223914134778 8.25118938540721
Rh 7.951262714285468 4.203681162944467 5.993629579222941
Rh 5.6339525106288475 7.830973150481921 10.959470358969543
Rh 4.09303075292706 9.310862056775138 7.469964947480549
Rh 7.787559318844599 4.74777952431219 8.637506190637982
Rh 6.559830897697624 6.75183365223701 4.354499166778849
Rh 8.724571503957305 8.170841565340078 7.919664963690976
Rh 3.8660989947382944 5.394412085792415 3.1003484304389097
Rh 9.893252400374775 6.560730065393023 3.968361753817456
