29
Energy = -166.30946734 eV
Rh 9.324399837440483 6.53059075189522 8.65411933625182
Rh 8.380402053801378 8.605704505610618 7.373224318244795
Rh 9.166163534552467 6.5255975666716335 5.741124835947314
Rh 9.19843047636516 8.468143922320907 4.165029784289801
Rh 8.862859733802587 4.487482682489598 7.300760753880105
Rh 7.136732165479613 7.611152604533113 9.433355394262431
Rh 7.225216369218842 4.99617352733553 9.244687409490911
Rh 5.7035193827570385 8.536677026711805 7.473579715681055
Rh 7.946154408797837 6.42119898018514 3.448802927448019
Rh 7.03738462155777 6.379384607554292 7.103142868388974
Rh 7.466592647750971 4.457025475621911 5.268197148002966
Rh 6.072348785245808 8.404194765243249 3.036581704004262
Rh 7.041708492028824 8.308688054125353 5.312733409888386
Rh 6.624850401891864 3.194874031918998 7.4428709002162075
Rh 5.631554868808227 6.256993506760146 4.46177518589607
Rh 4.951702552160986 6.3722589548251545 8.672956077740189
Rh 5.242206143073595 3.0761737669562828 4.844841164150344
Rh 4.097210887866307 2.5261968787599356 7.148727497097973
Rh 6.561268621744939 4.288041331399951 2.979936235526599
Rh 5.07739979723904 4.917349677557443 6.516660272431794
Rh 4.844939835076867 3.906996512358117 9.174151163248052
Rh 4.49250395847299 8.426667372618276 5.206266545657146
Rh 3.2372514969016635 7.653410409752931 7.364779962198303
Rh 5.627364708624744 6.2101262558147585 1.6966590870322071
Rh 2.783765377424586 3.722743243755176 5.304474805334681
Rh 3.712002108730212 7.315375225623988 2.9889145848291565
Rh 2.8780356531295372 4.994137247470134 7.684740380791426
Rh 4.013587484843929 4.7172285777895455 3.21643309654004
Rh 3.163521348567066 6.212330805347835 5.312509834595301
