28
Energy = -157.99524817 eV
Rh 5.946903172592407 8.923031387879726 10.633492903943567
Rh 5.004456654859759 5.19666052312678 8.778599236862524
Rh 9.818048792047902 8.94799268657235 5.722854354879305
Rh 10.085180843862727 9.411832084195755 10.087579873027329
Rh 10.827634991797845 7.150729628503053 8.822179806765108
Rh 8.596206470098473 7.379721183259786 10.243391674882236
Rh 8.8668896283168 10.86834166614905 7.2442763759006645
Rh 5.632174103746125 8.557402979351412 6.208608955474077
Rh 6.191286974578461 7.620435048658729 8.4135718989016
Rh 5.951138371086071 5.940594188528575 6.508493736226265
Rh 10.033886436454807 4.915633404068914 8.186918322248024
Rh 7.660045226203999 5.455985535179588 8.529318268120571
Rh 7.819147208195625 7.367182526316164 5.409277758534444
Rh 10.3204877897573 11.736549179770781 8.996354712742818
Rh 12.522456762215665 8.78582623815718 9.687893954557063
Rh 10.210947015481691 6.454589728437252 6.202956455025247
Rh 7.492809527400305 9.942323207710212 5.241033461742591
Rh 3.837131664914219 7.121754136813974 7.342515976881929
Rh 7.75774853870187 9.606931036279033 9.062446395123157
Rh 4.012646805301924 7.28424215435678 10.006470187513491
Rh 8.65721091327985 7.726041918952267 7.670560449252971
Rh 6.334289373931755 6.339137752130342 10.62833016057065
Rh 8.211398821998792 4.904759898535242 6.095947984846226
Rh 4.473693814579643 9.458691129762869 8.511169252042727
Rh 11.845515814362539 10.933035606102866 10.908963989631644
Rh 12.747227159338166 11.153601595603538 8.598568583444964
Rh 6.245060529859853 10.755902507474218 7.3346526306653885
Rh 11.069839016290748 9.524856982572846 7.732482026805694
