28
Energy = -160.34824509 eV
Rh 5.745803768177796 5.733545873284926 2.1365957648810276
Rh 7.7814815332782805 5.721905132090923 3.552053996460807
Rh 6.56366958164069 8.047584436087993 3.293238711147857
Rh 8.706370658049266 7.822960810460904 4.805010925713891
Rh 10.001275614981774 5.540625594044625 4.786527189561279
Rh 5.904617852033576 3.9311980855972735 4.128270126421342
Rh 3.8028769199031274 7.376490699331602 2.6746895014276197
Rh 8.337064805572629 3.5956463934796443 5.003674929676124
Rh 3.612004812678381 4.908788592016865 3.3788974971861676
Rh 10.04697105509986 6.194766516210564 7.247849288741379
Rh 5.3419375302702585 6.345223658789318 4.672245213457768
Rh 4.434205292404932 8.832084128727633 4.608803787504113
Rh 6.448045202870685 8.309448021774216 6.024164277624575
Rh 7.703391528296643 5.876249504952709 6.141967059853755
Rh 8.47769725613498 8.228046459827068 7.482067380206373
Rh 8.844621675454086 3.9606765884907262 7.495004670861077
Rh 2.891128659997326 6.805457786340311 5.137177756254476
Rh 3.988395194599471 8.253286117573404 7.041415627554335
Rh 7.859133369992285 6.10006650127398 8.722275374917047
Rh 6.329527249254681 3.7166555169266813 6.697448751655367
Rh 5.381399337206054 6.081629809725615 7.21605937399817
Rh 6.080236148305401 8.120044118830327 8.595720922350464
Rh 3.9431479487294934 4.443972558607139 5.847586655025927
Rh 6.896304295478042 3.7898966660925795 9.193812730805021
Rh 2.8538290638005286 6.03045757723049 7.6066927767485355
Rh 5.515280325712703 5.871869534935827 9.778858500204194
Rh 3.694260895437541 7.5423255439086745 9.488224376667587
Rh 4.4003629220704985 4.014209883136231 8.368617755947943
