28
Energy = -157.39932831 eV
Rh 5.602462976401187 8.565183738912435 9.613388461234534
Rh 7.216739329349546 7.189990468250875 6.11094046834979
Rh 6.8884865097418135 5.1719399795989 4.786231554440289
Rh 8.410883196204352 4.833743783615241 7.0436031060399396
Rh 5.500085042974424 6.5884359082539286 3.155520371105939
Rh 11.62186480048469 9.8066235630335 12.939868650380575
Rh 8.049654604043676 6.436079390629994 2.8861630939239005
Rh 4.43603696307598 5.78871362666039 5.421647859065429
Rh 9.611656587883308 9.60565962209053 6.736388961296904
Rh 8.99806968226832 8.015253064132962 4.58486981756952
Rh 9.490161337164798 5.463926316053602 4.842540402712906
Rh 9.132000675741997 6.72566238097663 11.059902934340366
Rh 5.889495710406025 4.8963671875915304 7.2922727646990255
Rh 5.07499587201401 5.842413078755641 9.536135044958604
Rh 6.633218972823526 6.772154525310101 11.213942410740575
Rh 10.170953646891922 8.817119108969923 11.601101147847888
Rh 7.862243049216396 9.03436960934373 10.792023224387025
Rh 9.627424165481624 7.1182900204411546 6.901327057766569
Rh 5.239815296120929 9.779277953869581 7.242949226450074
Rh 5.075230583248963 7.3052227510805325 7.4425055384326715
Rh 5.203344700584355 8.215093770162587 5.033700250478686
Rh 7.372405115853185 4.702635057335443 9.468352309568186
Rh 7.556231231787124 7.075124834191904 8.732661372654976
Rh 9.796032001954634 8.461154339428505 9.119724151883712
Rh 7.289451712639332 9.66463245409213 5.763746815012964
Rh 7.570666701260769 9.595037404729805 8.295933504833354
Rh 6.9407502096794484 8.756121439134823 3.2721775018073616
Rh 9.810721739168688 5.644695140531784 8.958568798162878
