21
Energy = -114.95693814 eV
Rh 9.629212291073546 5.149957805175175 5.260742176570762
Rh 7.729247824520631 7.842439583106349 6.916758428462623
Rh 8.501600938071503 7.157434455852841 4.568531382074276
Rh 8.056437674347322 5.236785509367477 7.197827792524676
Rh 7.748844905718078 6.710492516842787 9.334061678458767
Rh 8.603579042526379 4.464200563226978 9.502310312975004
Rh 6.789606334820899 8.98891650170358 8.984369301152231
Rh 6.493732083818692 8.778686015859057 4.9181592564228165
Rh 7.556832404889196 3.8955091965227555 5.118484492498262
Rh 6.347169044232772 7.083211922139718 3.1028782038658336
Rh 6.396751871097217 6.051570942470801 5.386239289944605
Rh 6.198916511358347 4.6570065851557825 8.811111298937938
Rh 5.469164200479841 7.045241654194742 8.063935668214544
Rh 5.3477161929897 3.064183073404091 5.415429187911407
Rh 5.240574274179639 9.33513428615375 7.0133945108241145
Rh 4.1841570640103045 7.316736237556337 5.853143812083749
Rh 5.1255905420599674 2.6925111182249952 7.849409003230685
Rh 4.597327930290439 4.964513488476701 6.871956927574093
Rh 3.9819348101325764 7.388871675218489 3.2929377740137955
Rh 4.297837019181005 5.143861597367824 4.341561836794549
Rh 4.171236619227964 9.549427679376178 4.629019996925887
