27
Energy = -153.8694003 eV
Rh 8.184389499343935 8.250922230042711 8.014341370366646
Rh 8.070966945905068 10.183580051782299 6.084416357023002
Rh 7.099736547603508 6.14104190212802 8.942723335813302
Rh 5.54399015481452 7.978088153336469 7.893534315191153
Rh 9.692583265772038 8.090252866089777 5.904807108749396
Rh 4.696586589914662 6.451474121759261 9.78969634767072
Rh 8.717117313452032 5.948490243716494 6.900066006180895
Rh 5.267946298031331 4.188886232267603 8.744936105274927
Rh 7.630085400266511 3.7941256490934414 7.825851414401846
Rh 7.110493194007886 7.743121693207482 5.7838011663397415
Rh 8.315863578463777 8.993561023814733 3.843108198175584
Rh 5.61854494013423 9.83746071450833 6.000150999686326
Rh 6.015389085774123 5.586761993694097 6.707694775978155
Rh 2.906843795506127 4.6184131728097375 9.424633725747919
Rh 5.84839091089538 8.620332640158772 3.6598072441700356
Rh 4.4944760969615265 7.441220865812528 5.5670105683233
Rh 3.6091381297676137 6.1246316739474365 7.522025233849481
Rh 8.71252487993489 6.377701898844484 4.236561094748622
Rh 7.797903446640634 4.158154864940843 5.270845680931038
Rh 5.654583031377946 3.0307516725339516 6.390736974423375
Rh 3.9512120769659664 6.866042487059804 3.2013158723140482
Rh 3.260261948248227 3.588464500982367 7.1490206356373
Rh 6.158331447235918 6.03799117254475 4.0106505029532284
Rh 3.908820427762441 4.989279208298487 5.046890920787538
Rh 7.776346835230978 4.536562184553589 2.7921556048619594
Rh 5.69649925936196 3.521644736679669 3.8404352194929747
Rh 3.6996487491353203 2.451175466172056 4.957507763929239
