28
Energy = -160.3370872 eV
Rh 3.622262415605875 7.647248851299348 9.522771798042537
Rh 5.531937369748393 5.912239378096415 9.703360981777676
Rh 7.418649679588923 4.232006174985612 9.948697344656162
Rh 5.862777459039156 4.051256076771688 7.913775038882467
Rh 3.995169627204244 5.889925961957172 7.673423769027417
Rh 2.145721215775246 7.66210872650731 7.371350316003081
Rh 4.444962933474922 4.1600978894942475 5.7771883971817575
Rh 2.615316679244527 5.966103219007072 5.505006287176657
Rh 3.02620702276236 4.274335978194468 3.636290619500045
Rh 3.8318812289644777 9.604858539782862 7.793678815296239
Rh 8.440797840499094 3.7981236850633864 7.662269232386501
Rh 5.751237124756052 7.9368256395719845 8.12389283741192
Rh 7.677210399887286 6.1795128074880035 8.296396240449141
Rh 7.001643481674938 3.703690181970346 5.5639997177719716
Rh 9.54717345535575 3.3417204375778278 5.368559106472708
Rh 5.94671875121938 9.757218096576446 6.310615982142735
Rh 4.217778128723099 7.944938197245616 5.858216058098026
Rh 4.668173949387384 6.227162765033896 3.9529408411290343
Rh 5.539130537061158 3.8436058698539104 3.455122673632867
Rh 6.162034468909807 6.156569414219475 6.154863683465533
Rh 8.804214660685176 5.718471314500669 5.983891925465231
Rh 8.054213414763117 3.3742585705540304 3.2305906784484857
Rh 7.225633901108156 5.761521780130494 3.7498802163542395
Rh 7.883749913348119 8.081888318060122 6.619380386407531
Rh 8.040370564253328 9.968982352137758 4.882548216746801
Rh 9.762071562337198 5.303794497617154 3.642294263109931
Rh 6.311844931716533 8.17305351242789 4.277354790175854
Rh 8.86100033375559 7.642944532202386 4.272046141525965
