22
Energy = -120.79087805 eV
Rh 8.925408182419883 7.523302698155254 6.765626919700509
Rh 5.537681127554704 5.954500011809957 8.379466015303521
Rh 5.008786126807714 4.674412549593407 6.226964900807955
Rh 3.6687629747539927 6.59408280850477 6.8568394169785485
Rh 6.303521904576816 3.9662915583395755 9.506612639724617
Rh 7.287907932040941 10.44401235244669 6.75376348399349
Rh 5.362831785273764 9.995194932807687 9.07034654573127
Rh 9.499469423896484 9.784330787061958 5.964834770360986
Rh 5.092355981657213 8.306865346613918 6.048634720853291
Rh 7.424103581578906 11.193805575214386 9.113773574838945
Rh 8.035377984986876 4.1682645099940725 5.398480812377304
Rh 4.846055035368663 10.581548588499023 6.787425894940755
Rh 10.51000502846891 7.010307358387812 8.578030253106522
Rh 7.935877744346338 4.733670717468041 7.814382876100403
Rh 10.042703192370286 5.28652879901251 6.700221786993687
Rh 8.809337825043045 9.242950604062122 8.62994393068243
Rh 8.94466786220448 6.344235158171247 4.504932675567427
Rh 8.162397199589746 6.687770296468154 9.229263098401779
Rh 7.443315895606682 8.57607614790548 4.969036969938738
Rh 6.334947808152216 2.9482663555670525 7.236862219779662
Rh 6.560538983793909 8.202067922577193 8.033030477948481
Rh 6.780607267147843 6.317444197695588 5.921859949782215
