26
Energy = -146.2787293 eV
Rh 6.383725088260147 11.413319108247567 9.55979993963035
Rh 9.13574915107166 5.189499774499037 5.363644811227557
Rh 7.853943417279925 9.932441043914116 4.899629402223258
Rh 10.2843432138676 8.928712448371813 5.356161863703186
Rh 5.089170583199177 6.387724192461702 7.663993713866687
Rh 6.329699442362498 5.636346746392845 5.336093659366279
Rh 6.118629006879913 8.325744844982035 6.157625617485898
Rh 7.683346093865137 6.422179846691562 7.173942646043586
Rh 7.695074334467712 3.246417059293397 5.7722387460486235
Rh 4.959920494351166 6.832565071656364 10.205269579170384
Rh 6.636669696074962 8.133539956602013 8.790923594410192
Rh 8.864488117039034 4.376673603801225 7.8395054588426545
Rh 8.849533939970405 11.721369077352998 8.800657053241602
Rh 8.218454967067261 7.422563684680175 4.820195973116967
Rh 8.44972577716851 8.882821428670201 7.1735375043779595
Rh 4.966567154461952 9.797264209302659 8.211235547571256
Rh 6.278710210289426 4.162772922321805 7.546383591390861
Rh 10.335280982153416 9.64063164593577 8.489148596551534
Rh 8.187585270886593 9.617685621513722 10.043569137477167
Rh 7.0311457791656 10.870072695655782 7.160411438030749
Rh 9.119514701087905 7.233041996862408 9.205846046590224
Rh 7.358338025032421 7.40811822300114 11.175873414458778
Rh 10.221721306667531 6.951022186112204 6.898192169075717
Rh 7.099374456206593 5.520841813803017 9.521820806417495
Rh 5.640840147106927 9.32310908784385 10.774738467948092
Rh 9.57418375398593 11.134763328152253 6.461341572317532
