28
Energy = -159.18010638 eV
Rh 7.416207695481376 5.571932291550011 3.52932885094722
Rh 8.925732361386052 4.498815975036784 5.398923492125592
Rh 6.938246762231185 3.2184305109569586 4.405223292011408
Rh 4.925297526684454 6.992290334057767 2.9248596256694244
Rh 5.0170089102118345 4.50156828296549 3.48680741389015
Rh 6.8716081449457835 8.269406527604572 3.8919631422517718
Rh 8.657484747091969 7.129613057345384 5.277357046842533
Rh 7.280490441402347 3.173209724041629 6.946079884562899
Rh 10.415889814497746 6.0783187713451445 6.837168719484439
Rh 9.523225786620827 3.9503261686636706 7.972673397319989
Rh 6.129732236932181 6.345629920827456 5.4629915850783
Rh 7.692084483114918 5.648161864652639 7.273627658192902
Rh 2.754027225773933 5.378149420940007 2.7321624680082217
Rh 6.661364969337251 8.584066725347727 6.492802979372682
Rh 4.513707472021293 8.60499857057454 5.000901124218195
Rh 3.7023812812788788 6.122491910574156 5.050384877056391
Rh 7.317935890765499 4.135119801620923 9.383556379363661
Rh 9.079671371149075 6.045983012750014 9.422106050916863
Rh 5.080633057771121 3.963846221169215 6.052838288232661
Rh 8.877352288221026 7.939485078595889 7.714529180114149
Rh 5.2973040397916575 5.14000444127696 8.330973234618254
Rh 4.55941388210146 7.3377690783439515 7.320829567395379
Rh 2.390208835214491 7.79593165187376 3.621096531110283
Rh 2.8178824084767955 3.7295083513131013 4.745792057750391
Rh 6.643342197063094 7.356791463342257 8.798058153345726
Rh 1.1987719925184495 5.799700965050191 4.911082441496643
Rh 2.2803098391750063 7.8235930497677115 6.1929511412818785
Rh 3.0157909671226606 5.09576237824919 7.183061535593654
