26
Energy = -146.51013813 eV
Rh 8.269181864319656 2.9942133301319607 8.171211488728659
Rh 9.089531448077986 5.078756789686851 9.196266964323234
Rh 7.766453541283438 7.0936617975774805 9.891268926736377
Rh 6.91601320927598 4.507245032472887 6.682765200900623
Rh 9.123519344900044 3.7426523890843613 5.926412140732533
Rh 6.54415355293418 4.943664851326821 9.108637519326784
Rh 4.515268425332367 4.677398590369327 7.374369063857047
Rh 9.115131253031501 6.028539708833487 7.0067347318075734
Rh 4.636277490799996 6.634025197399677 8.891407220903774
Rh 6.747085514428096 7.028291250384781 7.496965920287698
Rh 10.318425292796638 5.616136986765391 4.7599134634386315
Rh 7.77701480782006 5.457157551250592 4.385338715292853
Rh 5.447033960855302 6.1344995085693235 5.439354578352459
Rh 7.1306892776144615 9.288836586717236 8.803945747790474
Rh 9.000053008083702 7.695525310391095 5.111576885490865
Rh 5.557821908755088 8.252135622916803 10.419341410505039
Rh 9.15897764913212 8.412935478412416 7.6572340281342965
Rh 3.239560711572319 4.754650406649651 5.221651236163802
Rh 4.8676846364907815 8.913354136779619 7.680995192112577
Rh 3.385265706928952 6.936311638627069 6.713907807806747
Rh 5.574577209610454 5.896307978110732 2.972404244501865
Rh 7.095605946725564 9.084029639303738 6.193502749532945
Rh 3.3195871673532578 6.847345270935657 3.9871096901239245
Rh 6.807753427000588 7.883632998465172 3.978046440603947
Rh 4.690420871591729 8.670647866622124 5.193631059997257
Rh 4.771861191231709 8.292992500161057 2.6009559904935995
