20
Energy = -110.03959865 eV
Rh 7.3010266689307715 5.52711096137631 3.1907630862277583
Rh 8.671913162300342 7.051236163643294 4.569863883631327
Rh 6.130735813346114 6.653687982249033 5.1857071626609255
Rh 6.8931634751757285 4.1166298748474475 5.153680728915823
Rh 8.4016598524767 5.623803413480376 6.556501026845759
Rh 4.779629150264252 5.058091324496527 3.8435784898861605
Rh 8.48449138125798 3.1693229573034025 6.871742087908426
Rh 4.123507997844272 7.648642686228778 4.1179892736485675
Rh 7.047861089137504 8.925113799310806 5.070114454113138
Rh 3.0272083473019173 5.851373821560047 5.604555689973042
Rh 4.764794178265922 9.844070161623726 5.146730208088157
Rh 4.185239982250356 5.559181790804477 7.901198750577783
Rh 6.427646523826157 6.902735348491012 7.66582929420457
Rh 8.486789769993992 8.189783298330058 7.00446674134483
Rh 6.434884718875562 4.378436163478007 7.756623627192626
Rh 4.420012868244631 3.8483704626172908 6.033902971976199
Rh 6.172113476038729 2.083158630756234 6.623371774970806
Rh 6.156486872452151 9.398868956207187 7.3730163929109125
Rh 4.272909638052054 7.8065320333972545 6.643491182462444
Rh 4.481411377252068 2.9631205635772595 8.358199345799475
