29
Energy = -163.44812969 eV
Rh 7.716398383508399 6.14735276119875 5.309422225365462
Rh 5.149490657119318 2.424199744692908 5.730528042105827
Rh 7.091755863544786 9.208614622007508 9.381782962657235
Rh 7.294823860545814 1.7509064932016207 4.56866962139317
Rh 7.396105202332537 6.4411532432036775 7.880784804757499
Rh 7.049601470491216 8.33429439117062 2.9190088276272506
Rh 6.691621996565072 6.945593356772543 10.226486307160698
Rh 4.239300266872804 4.516105822717844 4.367264038715499
Rh 3.5539483867658697 8.37359569770759 6.655105729787948
Rh 5.806645352161281 6.362671630155065 3.590330134581465
Rh 6.536882405857338 4.191453168386636 6.893141442502385
Rh 6.081140306015115 8.628778904906284 7.206677467229997
Rh 2.677489799442272 6.006143279234189 5.556697459264204
Rh 10.216756067113323 8.351524243346617 5.607522588133717
Rh 8.800884835729569 4.35206029088912 8.136871858910306
Rh 2.9104283689052237 6.353805422480587 8.10496459817008
Rh 5.184058671535405 6.333230572353976 6.148590576672749
Rh 5.220272685195963 5.477616548393865 8.750396449871806
Rh 9.700353228018225 6.2090596218599305 6.677269407261589
Rh 6.799000227458192 4.121359167092541 4.119932649105452
Rh 4.656413505190273 7.9406723973959465 9.09458788027839
Rh 8.763660764796946 8.53179180816326 7.648641108913467
Rh 9.317896922839765 9.201851857608661 3.4613752675648968
Rh 5.245039092005425 8.52841678603114 4.782809004413093
Rh 7.743288200731946 8.578149072049927 5.300406440083888
Rh 8.635738761237757 3.5611157366526127 5.760665196001464
Rh 1.2180138658607647 7.602355953886485 6.744184240420052
Rh 5.122673510387568 2.4145214670073436 3.226504635567469
Rh 3.9045294092697493 4.203057451549074 6.984500644851616
