29
Energy = -165.88156937 eV
Rh 6.000945367809758 4.34965847374334 3.996437446615967
Rh 7.0479168564030745 4.263710449955355 6.332103591311661
Rh 3.856854169887796 3.5070753383691406 5.043297531749662
Rh 4.9175952601364585 5.81149004798033 5.802651992240142
Rh 10.082455983919596 7.6516240544163265 7.987744827689363
Rh 7.441311270111766 7.549468513955484 3.8737216136533497
Rh 3.601645398427903 4.08674426543592 7.537885131630955
Rh 7.821511600038327 4.166771333037884 8.763341169766594
Rh 5.741475778359784 2.840823635501876 7.939954713635351
Rh 2.1974330743098194 5.232583238708823 5.735615045261003
Rh 9.230449672233105 5.4967692328105295 7.017851074037426
Rh 10.03869489390261 9.805780596205212 6.652305343931293
Rh 5.55625521068978 8.059296471353127 8.086709842375237
Rh 3.6173023763197976 9.169468000550832 6.869647866119509
Rh 7.771586021758084 6.737436969164082 8.90286192716108
Rh 7.884619199897848 9.510410502530966 5.3847505165780225
Rh 5.643837154665677 5.459749170718843 8.34783966757054
Rh 7.974173296022458 9.076631904359205 7.941876269508054
Rh 3.799635782897319 1.6288570508340035 6.740548062735035
Rh 5.985885705537973 10.31837257475271 6.952465615887168
Rh 3.396849166454566 6.6930010830277595 7.61951493234983
Rh 3.086577971512532 7.451477026689231 5.029696410103835
Rh 5.491312819055428 8.462268911496585 5.314139106540425
Rh 7.243395694364869 6.921576858245741 6.40762530302513
Rh 9.59274280511933 7.550433449599374 5.442181046074981
Rh 5.081161116911929 6.67852812809226 3.4121959000065436
Rh 5.9509686203002925 2.141212714801083 5.4847085479307625
Rh 8.459450258318704 5.358418713011883 4.501484265866521
Rh 7.16343082033382 5.686616500246127 2.2515837547675295
