28
Energy = -159.48172566 eV
Rh 3.0308733784272763 7.129767936050916 8.20904414002896
Rh 6.868851791942036 7.94336653238015 5.305393687284454
Rh 10.882145795300511 7.752660501114951 8.591222895009956
Rh 8.158335672101689 8.295376203517211 12.1403521114168
Rh 4.18184841854949 8.973512618445104 9.215826542327198
Rh 8.86866037311244 8.113770741723277 7.128086689246265
Rh 9.06909762157669 6.444094135619247 5.364387437163748
Rh 11.12828116057594 8.995298024717515 6.384580377854361
Rh 6.020998689081478 8.98061731040472 10.87515276024773
Rh 6.025180697444492 10.847005697583032 9.106290438996803
Rh 6.613718282126211 6.447600310300842 11.392420061389744
Rh 7.876076368108431 10.701997023640159 10.936340747505115
Rh 9.752442862002761 11.114717855395574 6.352651682331581
Rh 7.631790515123007 7.829485247746104 9.3848890264767
Rh 9.50530157437259 6.519047715082471 10.4522815101971
Rh 8.435061058981912 10.301399285771904 8.425836430746143
Rh 5.9713084634757285 8.796389084558468 7.559579356204142
Rh 5.337639365083205 6.602492523566929 9.130854065712512
Rh 7.081598906370511 6.169226294088105 7.130791535610267
Rh 9.503307315025616 5.727353492823081 7.886792461604277
Rh 11.460631672081336 6.417184987703273 6.378794294305935
Rh 7.552924867657501 5.140793632735248 9.429807284764623
Rh 7.273378222146829 10.423699687649059 6.121919663475578
Rh 11.000987545978347 10.350666020950667 8.515768521382967
Rh 9.754985549058585 9.078096399227737 10.377078375357433
Rh 4.77104351359675 6.87363360964243 6.535326944396456
Rh 11.012846793298984 7.690481805281597 4.262456795334279
Rh 9.055582127931821 9.182952179962497 4.760184470574026
