20
Energy = -110.32339845 eV
Rh 4.0676894328160325 8.352860172805745 7.880697996501107
Rh 6.4195782391176115 6.5500546576791105 3.990830837309233
Rh 9.054357775296893 6.41219911327669 9.79380419345759
Rh 7.803054498470493 8.391407354210289 5.3446969235821244
Rh 6.709440413626493 6.514030265599686 6.61142145699064
Rh 6.559112784082771 8.902380728818068 7.654809460764418
Rh 8.852380340779362 7.672075373610073 7.658205967795563
Rh 4.002939273904676 6.1915629781435015 4.298607472833531
Rh 8.442448877494725 5.017244762283962 7.853755365373882
Rh 5.104086345317685 8.244318401391443 5.44460623234248
Rh 5.8308910139519705 4.564129471421476 8.02952733876598
Rh 5.645312971007096 4.4680983043047355 5.3492520648467385
Rh 7.350806033370478 3.128548899587007 6.637149702451257
Rh 8.774440347581388 6.82301645885438 3.4086823947415468
Rh 8.274550892174998 5.0306772922830385 5.242724230564076
Rh 4.119946276188164 6.077049409368016 6.758648811353837
Rh 6.720009131943402 6.822760874584442 9.210084664428976
Rh 9.910970495373057 6.953153281133544 5.579768963432298
Rh 4.7229896823169435 10.357041386110165 6.705131664316493
Rh 4.332709077203408 6.299658311764242 9.254673292547409
