28
Energy = -158.58919288 eV
Rh 3.661881875481859 7.327992009655949 11.576773700063999
Rh 6.441553193500362 7.26041456164765 10.052499881149993
Rh 8.258413328165956 8.845058994707841 11.017537115314362
Rh 7.729104081509392 7.509331693275496 7.674029980482409
Rh 8.446638278273852 8.934757086385028 3.8880498899540807
Rh 5.7757975580970555 9.799568268588981 10.171932848601335
Rh 10.121024055967466 10.500551202817851 5.164667450266532
Rh 5.233609033854813 6.690495717103943 7.5229515102028985
Rh 9.937415955263784 8.424259368389205 6.7577640680727455
Rh 7.913847525580075 9.82014799336976 6.206798719737814
Rh 8.854734092602294 6.664592154960787 9.721439741917766
Rh 11.216354219344378 6.470760966548592 8.702224545260965
Rh 9.570311745610972 10.998632139653141 10.226020790012633
Rh 6.463587112898362 7.804834566734577 5.471209817123418
Rh 6.944461499625203 5.3443220915966565 6.147513077171715
Rh 8.857102687121095 6.775313601289067 5.166270249452633
Rh 7.827833108667335 9.982936490137488 8.790534080002772
Rh 10.838350360583517 8.130095363593826 4.364217383420549
Rh 4.526286913229119 5.726390471186511 9.84793783019552
Rh 11.319719076851035 6.395414913435395 6.176111199995092
Rh 9.228184556198286 5.4480858145583495 7.451476712188746
Rh 10.304856604947986 8.765105116137406 9.389753705823347
Rh 5.756719637381101 8.31210563394237 12.167263991377466
Rh 5.75631589011804 9.222561319974414 7.58517601797616
Rh 6.960659730576883 5.12723231181131 8.702054287140996
Rh 12.18628237489501 8.587332187696422 7.708178661990524
Rh 4.030015530735698 8.13730853627532 9.252374868104413
Rh 10.02397979945872 10.750735462418062 7.712362189392072
