26
Energy = -147.8153619 eV
Rh 8.860658372926315 5.263691163558186 5.919931324024659
Rh 8.980365833383306 5.913126606546143 8.313730103177328
Rh 9.51687923964814 7.816911866453353 6.387976788206853
Rh 6.49100090977827 5.812914985741449 9.153249392573832
Rh 7.5637121774183305 7.950948645247585 8.213798277221542
Rh 9.238280396219382 9.465816192586615 4.297768183853043
Rh 6.787100583915168 4.029884972965223 5.020670405935072
Rh 7.387873150670537 3.9563030657031613 7.569714889059429
Rh 5.433582858586229 3.4864683495857647 9.147698035680921
Rh 8.941703491945226 7.0430685122088565 3.962344798134568
Rh 7.677812293078736 9.659934230584042 6.193839503296089
Rh 7.0847278401256 7.120145490956822 5.829650847395234
Rh 6.040944812814076 10.021915904288294 7.997364544192159
Rh 5.5620041280309565 5.526684933464492 6.828762269808028
Rh 8.631670248208165 4.659950388043674 3.4239054244248006
Rh 4.9307032695226685 3.125446806897493 6.588335327691758
Rh 4.99969555869802 7.7343693377125415 8.181789256342068
Rh 6.828107111844844 8.69066877498084 3.841045719948391
Rh 3.7981908960437876 5.475464639859518 8.592796959035311
Rh 5.139314069623616 8.830712516452907 5.890000167086352
Rh 3.1254336861598264 3.013916181548984 8.39839462636356
Rh 4.401092834328549 5.015664001471061 4.659611081154323
Rh 6.471461737182548 6.0744203189250285 3.53911710408432
Rh 2.653753638360144 4.446178669924362 6.451726568013915
Rh 3.5138901580070496 6.85493713387986 6.228696084841252
Rh 4.443083657350474 7.513499264282727 3.8711252723235816
