20
Energy = -108.90394279 eV
Rh 3.0247746235844253 6.891391863309115 4.911596421760004
Rh 8.035667300791172 4.526347801035903 5.865537145716259
Rh 7.545297560844402 8.971162316855745 5.475310189584323
Rh 5.189313063702517 5.833515059572387 5.498310994005423
Rh 6.3088482903736445 8.759795840447406 3.3804444483628577
Rh 5.852935738228631 3.6920826719405793 6.452750773111963
Rh 7.632180386352376 5.583373136586853 9.266809925475908
Rh 3.780767681815168 6.701959903178423 9.491260160126402
Rh 10.439908031988034 7.451398211439669 8.58625596882602
Rh 5.4296772176476376 5.307887201079433 8.269068340297768
Rh 5.124770726350723 7.8196555000940995 7.665970861753755
Rh 4.8887585232707425 8.371081950535842 5.332282554251958
Rh 3.198587371510511 6.1874767171605205 7.200642306652719
Rh 7.212361983862288 6.691009761204497 4.320442846103205
Rh 7.344590819555728 8.930562543822099 7.948858199480054
Rh 9.51118331431179 5.36022906885351 7.732909163719004
Rh 9.550807650767679 6.030068923628264 4.59284086146699
Rh 8.370027423475477 7.788627146854748 9.827192895069814
Rh 9.475153439493091 7.6864863974115405 6.36239098604976
Rh 7.289925222135878 6.611136778451981 6.969462406596967
