27
Energy = -152.62124042 eV
Rh 6.625161802568559 10.338532557471435 6.447028410001644
Rh 6.625161802568559 2.9117910476656794 6.447028410001644
Rh 2.589009895137115 7.982762333935973 7.483979291688507
Rh 10.66131371 5.267561271201147 7.483979291688507
Rh 10.66131371 7.982762333935973 7.483979291688507
Rh 2.589009895137115 5.267561271201147 7.483979291688507
Rh 10.548712029175494 6.625161802568559 5.233492166781072
Rh 2.7016115759617745 6.625161802568559 5.233492166781072
Rh 6.625161802568559 8.909544550222824 4.043662076546332
Rh 6.625161802568559 4.340779054914295 4.043662076546332
Rh 4.07073481813059 6.625161802568559 9.310690792748002
Rh 9.179588787006518 6.625161802568559 9.310690792748002
Rh 8.934183157088489 4.422497378033391 5.578058025319175
Rh 8.934183157088489 8.827826227103724 5.578058025319175
Rh 4.316140448048633 8.827826227103724 5.578058025319175
Rh 4.316140448048633 4.422497378033391 5.578058025319175
Rh 5.206082442945841 8.804646276555406 8.200694034134303
Rh 8.044241162191273 8.804646276555406 8.200694034134303
Rh 8.044241162191273 4.445677328581707 8.200694034134303
Rh 5.206082442945841 4.445677328581707 8.200694034134303
Rh 7.961996016984706 6.625161802568559 4.37160796818597
Rh 5.288327588152408 6.625161802568559 4.37160796818597
Rh 6.625161802568559 6.625161802568559 8.689331817000483
Rh 4.588827587573927 6.625161802568559 6.90669626174369
Rh 8.66149601756319 6.625161802568559 6.90669626174369
Rh 6.625161802568559 5.320297130166369 6.256378048030059
Rh 6.625161802568559 7.930026474970742 6.256378048030059
