26
Energy = -146.78488579 eV
Rh 6.8300023906389296 3.840996798136179 7.9381448922454485
Rh 6.493821532489724 2.2478177157358257 5.926018208953234
Rh 8.069805122794945 4.296196997449146 5.698153745405238
Rh 8.212732303030451 5.368339681317558 3.39620999407298
Rh 4.777089661503864 4.03262236738464 6.245572900614365
Rh 6.304094328327053 5.91276330893816 6.417919408848858
Rh 8.718714727519458 5.6070127476663965 7.8201630350543665
Rh 6.435663987315595 5.88367719740463 9.168693432267814
Rh 6.237005669488185 3.790422007961385 4.032246789712548
Rh 5.658930378906721 5.124089407866794 2.0685080854602638
Rh 9.631315708764852 6.238292444058556 5.420686647401763
Rh 2.7750890771477383 5.433556832663037 6.26382981568864
Rh 4.028829276806012 5.224723823917761 4.009728457464719
Rh 2.303416366336803 7.804164780373105 7.050076255403058
Rh 6.982369263240322 7.309646717036767 11.063507074175936
Rh 8.307750917554829 7.906597491067672 3.9281528539705044
Rh 6.13338107922124 6.678001634083497 3.953490556030277
Rh 10.23263979771283 7.574609776203117 7.570184039362225
Rh 4.351716644617784 6.660214461988855 7.991610768460468
Rh 4.242029323066345 7.298000943036622 5.457264125763121
Rh 8.23850281502866 7.892299077220025 8.99833564405331
Rh 7.973372093739098 7.850335782860321 6.44379390133393
Rh 6.160962934087325 8.941673804901532 5.1668799572516955
Rh 5.6855710446829395 8.38264526265256 9.313716218843826
Rh 6.879499621792488 9.77348225601458 7.598308789023486
Rh 4.491470081408766 9.083592829283619 7.214580550359903
