22
Energy = -121.49691646 eV
Rh 9.793857505580219 8.581462998444538 5.117597629437983
Rh 7.490583688683259 9.368698801900095 5.733941170496776
Rh 3.7969018601038296 5.606394434219162 7.9094750538327
Rh 9.28382275088457 6.1905653433786085 5.615388534682583
Rh 7.078534434997074 7.2963196654272915 8.92532733990171
Rh 7.731521975718583 5.223713582253618 10.160014172084411
Rh 9.122215189532746 3.697198176405523 5.987913117011231
Rh 5.5112653608341216 8.250953658395714 4.475854635978306
Rh 6.026976566662993 4.70798894548379 7.253025445899353
Rh 3.6552166066223486 6.788200703427227 5.691237890569473
Rh 4.89334467064449 7.857043666710495 7.558078111715546
Rh 3.235728117128696 9.055748177447548 4.842585099972908
Rh 5.681558106443869 5.608374287323622 4.765419273865645
Rh 5.480068991475326 4.549494780811009 9.643238577217568
Rh 4.753520388639957 6.916856743597504 9.908585174197107
Rh 7.802524134071024 7.429282141154103 3.9439487419954373
Rh 8.99543019677954 7.942942589436069 7.490068359586844
Rh 6.749585546734706 3.29716757527259 5.471135104301051
Rh 8.378451262044614 5.160797969586199 7.843978964557311
Rh 6.9285769040229335 7.008070208457784 6.368158860207279
Rh 8.006682998706609 4.8597289514756925 3.9241416733993755
Rh 5.089702230898031 9.911235499279796 6.361729413630723
