28
Energy = -158.65255912 eV
Rh 8.2565352422228 4.004785287546377 3.199304544449864
Rh 6.542710472154766 3.6443916084979597 4.911319975023616
Rh 4.652556284959994 3.3096483118553865 6.549150179957026
Rh 8.433691999318771 7.925717218836134 8.98311543519394
Rh 10.22510282608926 7.110751771603709 6.2687012374273925
Rh 5.375650923996764 9.157675373680975 6.584741331852092
Rh 9.720030503137108 9.218575999179636 7.391749749718303
Rh 9.06065075075293 5.894027021532801 7.980150168826356
Rh 3.7680925635147027 6.318921331401464 2.7799539478847044
Rh 3.095682151761736 4.835126911215132 8.04725054197635
Rh 7.0526767268410415 7.011037350938983 4.224417263040382
Rh 4.213495571319584 6.550751092426423 9.559830298648265
Rh 5.737655546699996 7.802196778573842 2.270048302468008
Rh 7.142623090184 3.144702636097437 7.401443480638247
Rh 7.380800563726861 5.4699113733708575 6.274739043168248
Rh 4.059894451861325 6.847135260456925 6.9402803159154685
Rh 6.5977766356173 9.441413459853988 4.359120529595209
Rh 7.7248911333403125 8.148938041820134 6.365927778029227
Rh 5.638678038979874 4.95135500833073 8.179248024054662
Rh 6.131385164332298 5.21783339774061 2.890824304936769
Rh 2.3072424627669847 4.26255240532972 5.825295052956003
Rh 2.381005456422909 6.621657092934144 4.975727369948765
Rh 7.690750771087725 4.598835136296981 9.495618424686873
Rh 6.092213510765069 7.512903928888554 8.272005982717522
Rh 6.850194948544009 6.659271969750871 10.467822055722781
Rh 4.492087148437794 5.203212600137419 4.916414852832117
Rh 9.110043647969375 5.8138399667654 4.541291025699377
Rh 4.559002898288611 7.9138028247844225 4.5997400250977325
