20
Energy = -110.11331929 eV
Rh 4.8682139888741975 7.349216959118375 10.12717494297762
Rh 8.239531896602848 9.110299071376001 4.7114935607879405
Rh 4.588366609503047 5.573124320824972 5.971647326194286
Rh 7.643119545677317 3.9091868551466438 8.406652326606675
Rh 8.03246723948457 5.844388105993171 5.530888130643421
Rh 8.109870331104364 7.258570458296913 9.28993977284328
Rh 7.653391663534449 7.086743978370895 3.450889393550517
Rh 6.097743875844025 9.244157547740203 7.461609170352237
Rh 6.506460647679891 5.565933017731873 10.004356976770255
Rh 9.22272744159826 5.641405662648245 7.713235565161519
Rh 6.541944884213801 9.029513315355384 9.795883848006618
Rh 6.1130957684346265 10.121053996689515 5.2597967163875055
Rh 7.216208289978254 4.369692131534268 3.6894239543574883
Rh 8.218799023645875 8.062134230152484 6.866279626324489
Rh 6.000122733731532 7.582325268145854 5.332101912502299
Rh 4.819311489418788 3.6680638055378254 4.287722016629674
Rh 6.53776656097726 3.9052935663242674 6.152139056782142
Rh 4.481737833616697 7.42342466658545 7.74116116890941
Rh 5.343334754107543 5.987818717537962 3.5137652088728575
Rh 6.536849078591636 6.084874994523604 7.6162429790149675
