22
Energy = -122.51587904 eV
Rh 7.86782225314976 10.33696810059856 8.139757559594603
Rh 9.270710454102415 8.229681141709595 4.708925182018954
Rh 10.078181113831846 9.392635963385363 6.99176043627492
Rh 7.973972324262092 10.426505446550202 5.4754787910765605
Rh 6.6089260615092815 8.307499831273283 4.59161290225595
Rh 5.747182212294928 9.61450529507388 6.700423687310221
Rh 4.169721172694874 8.290892795618912 5.232245835484229
Rh 5.526025189576207 6.016956466865064 4.347872499335988
Rh 4.01745705367643 8.27242175642067 7.985643751454249
Rh 5.176956611246289 6.567987436931608 6.689718059019332
Rh 6.365801994803886 8.26772810905291 8.904496052700738
Rh 7.8480638515889956 6.070778873998491 5.333448558052885
Rh 7.87035278758625 8.246335843651117 6.775809431759155
Rh 9.032163756289222 8.046630055024847 9.053796696671224
Rh 9.934455555901303 6.7207802620161115 6.882539787618628
Rh 7.4499296642249195 6.108023125202896 7.913422802887493
Rh 8.892014891943859 4.2623435948593045 7.009381043553894
Rh 9.592786965197867 5.440135138599055 9.209505874959254
Rh 7.478236162107548 6.344091725921532 10.41543568373165
Rh 6.312230290171986 4.309369229567229 6.521633246469165
Rh 5.226525192025055 5.91698766571225 9.140495280918369
Rh 7.360057689483773 3.9970455742349214 9.172788277916238
