26
Energy = -147.1400893 eV
Rh 9.713765360326265 9.093797797020084 7.805662699918963
Rh 6.288930289285986 4.567995822909565 4.738826655745284
Rh 4.056085654164401 3.396526207447962 5.236660030969824
Rh 6.671389747862408 5.914635574302906 8.876078623911006
Rh 4.544766981377084 4.671460669363614 2.967285239614575
Rh 5.300349244561075 8.175881522405442 8.291339926048881
Rh 7.440895221491443 8.128071248538742 4.475251922226106
Rh 2.891018698171435 5.499461356685824 4.683661696738798
Rh 5.186421540761507 8.821333922520093 5.7826174929658745
Rh 8.40387709224801 3.2587823838407557 4.864258402779862
Rh 5.609553625098836 7.371827003084403 10.651419225367725
Rh 6.286685136533703 2.441262007834573 6.134343073990499
Rh 7.360891998161716 9.063806073997101 7.030239022137483
Rh 8.80917774172514 10.154422269971029 5.352074095089493
Rh 2.640805380544822 4.682527043350999 7.142753861464158
Rh 6.499212024533393 6.667101170759984 6.3651870024947135
Rh 4.0757828481036125 6.0169297696195665 9.052307484505937
Rh 8.75647253357176 5.723028175657238 5.090570757023588
Rh 7.248465378002506 6.0778169248408345 2.9980821326887352
Rh 9.753537125278687 7.889050383315402 5.558585365593069
Rh 7.687775042667424 4.417229575180455 7.047062898704144
Rh 7.700530670410812 8.225869892294758 9.378066451492337
Rh 3.8961546932779294 6.759579495377041 6.61562571683715
Rh 5.093642604157632 6.8356537286747825 4.198509696864489
Rh 5.137732453499044 4.5217397109445905 7.303902536360958
Rh 8.79794764705455 6.718200091206819 7.617697883066102
