26
Energy = -146.42026843 eV
Rh 8.29282922377931 10.014778480011929 5.234190782028919
Rh 5.370133935833593 3.4706813774555467 4.864312249761467
Rh 6.123092893295223 6.353464560076093 11.068946528781302
Rh 8.695005841549932 8.544958346100008 3.329742239557706
Rh 5.4322301699877436 5.7578968579354335 3.699714237984664
Rh 7.613507130445387 4.715896952958318 4.951313267812759
Rh 5.864349010932795 8.388434986450667 7.165835371839107
Rh 8.231093671756717 5.762437666821917 7.216069451792206
Rh 5.889571974229293 9.792408772906732 4.978048584214
Rh 4.409505440821939 7.724010876760563 4.94339562644756
Rh 3.3420948700550013 6.792624027770995 7.089605236045569
Rh 9.40233526409146 6.644676345012425 4.963464698290488
Rh 6.063445786316366 8.26530508376583 2.878087669226826
Rh 4.062869693914811 4.269774358290211 7.528516489202848
Rh 5.741057230253477 5.868803907199833 6.681017412160452
Rh 7.8165947359600025 6.219514301570106 2.807786254252395
Rh 6.755968607346123 3.8695526939331946 2.7203792864607745
Rh 8.479229430171136 8.273968002557636 6.967474016347472
Rh 7.021973490378717 7.379071076306636 5.055771106663367
Rh 6.765518433392254 4.82431604981126 9.154976446612544
Rh 4.427921635842074 4.572089411622952 10.153399009075542
Rh 7.345275515485908 7.402219818540769 9.04362728716322
Rh 4.880136182547778 6.748389777034281 8.965798822066384
Rh 3.4504622836552277 5.201229946625136 5.159702467272821
Rh 6.7633753188580075 3.512673685997563 6.986625376986494
Rh 5.415687092758524 2.6396266316981847 8.90582335123268
