27
Energy = -153.25130687 eV
Rh 10.328495347539066 3.699740990552775 6.306328299630733
Rh 9.614551870289572 6.013482344469541 5.576257056945292
Rh 7.778929506459909 8.045092521306719 2.667683713882507
Rh 8.364930273424548 3.9234267875577307 4.902566040922534
Rh 5.913911497356143 4.157239166398498 4.685983032752351
Rh 7.29100250369394 6.218562652957375 4.331741766934065
Rh 8.690747177121802 8.328749584228438 5.0109871399988934
Rh 9.177469743579861 5.058716875987161 7.930905308034536
Rh 5.467617983283241 7.057020113843717 2.7805577668723664
Rh 4.094053757502289 5.172277248812554 3.3861550280954287
Rh 7.029405378080259 4.348838829911234 7.021710593106444
Rh 8.979410135598252 7.571381275026569 7.466420163247002
Rh 8.406625522780244 4.684387025082538 10.163819160450506
Rh 6.6330702579308625 6.765825432741046 6.742128163253507
Rh 6.163488167704691 8.58168144339928 4.703131505624407
Rh 6.128401606810657 4.530292455029146 9.344558599673311
Rh 7.266879051938391 6.754921457304986 9.277981121864366
Rh 3.743367497500655 7.7961166836342795 4.548544460623715
Rh 7.184534275581329 9.327008474689979 6.947744178638114
Rh 4.538126824572647 4.018071331661973 7.46070048653586
Rh 4.428836558827092 5.828742291405197 5.80116689472897
Rh 4.654392690736137 8.732613372506599 6.782538671578573
Rh 8.258984468302687 9.074301976895086 9.331334493091063
Rh 2.6445142813945934 7.230319399302728 6.918378306066977
Rh 5.806980284883061 8.796930533431714 9.053348478758565
Rh 3.3565066049343892 8.459077608263316 9.023797793024974
Rh 4.625089680238285 6.395505071664411 8.403854723728939
