26
Energy = -147.28440213 eV
Rh 10.557879497105269 9.592914766440764 6.865119053291676
Rh 6.23970211611494 8.10089577769002 5.33388174055978
Rh 8.688287007108917 5.6218489955379205 6.350124537767451
Rh 6.611701405048504 6.026024355475786 7.973813567722141
Rh 9.889733092811928 9.444790583966375 9.386638408803535
Rh 7.468386179376252 8.661585142609502 9.598014058657668
Rh 4.511839666508456 7.023203320269583 6.968963220426181
Rh 9.490819687955373 7.180951565752786 10.454819428682164
Rh 7.917771939008679 6.6860877158475365 4.021354790706405
Rh 9.12929257347557 11.202059909841775 5.507935521651036
Rh 7.0391436503251406 6.113005530962225 10.478334570330832
Rh 10.094426553467828 7.32452458665445 7.984596049350154
Rh 8.577635035620327 9.219635972711796 11.776998984080539
Rh 9.81252132210319 7.689905639985004 5.384778276179878
Rh 8.150400138921789 6.856291809273921 12.661988972015674
Rh 8.885046491816817 5.212141511581312 8.87295418770437
Rh 6.564283216764348 10.647387041464235 5.680001517492204
Rh 6.185199213378922 5.5803956643325945 5.530953516160229
Rh 10.758000105883596 9.718713926455306 4.2660576761054285
Rh 7.901751007133561 7.921443465156756 7.096985769017737
Rh 6.204431049937741 8.240410110803907 11.75133370416093
Rh 9.036017363888545 4.848719429049539 11.339503666717563
Rh 5.767856609333338 9.177610882596184 7.65840520613446
Rh 8.15354275167134 10.316820352766866 7.6622338896967195
Rh 5.151920643282568 7.507557649032363 9.452059266422424
Rh 8.21353912784205 9.315903666146633 4.1768693232330945
