21
Energy = -114.71086211 eV
Rh 8.140969695658143 5.929699849141829 2.788061791995582
Rh 6.05680715706052 7.175915161961103 2.67604927212036
Rh 6.164677843955972 4.967587395583986 3.993919460521436
Rh 4.14316488863441 7.9928114864700825 4.0732455741549005
Rh 4.6479917044448875 3.3066109285792837 4.935179525980509
Rh 8.24334681845922 5.9761729112141335 5.218556303436539
Rh 6.696403379928526 3.983777765738117 6.30160390622702
Rh 10.494639848457377 6.216741895987957 6.125130736830596
Rh 6.300380333522649 7.47166203391277 5.143532384259808
Rh 9.248145401951339 4.090816052644617 6.620565769798216
Rh 4.087695907955075 5.856642230024018 5.256181477438997
Rh 7.920540601266863 5.691990042112386 7.902287405735807
Rh 4.105810896579963 4.131446286488951 7.19500460719567
Rh 4.435766344763616 8.374916583513453 6.6984580284149855
Rh 7.349353859285476 8.14446929340286 7.2565734910911495
Rh 5.527487414242814 6.119599849839882 7.447098282519055
Rh 9.702704661183391 7.479537071639648 7.974327784253489
Rh 2.974607062345646 6.3281001601066205 7.522433388811448
Rh 7.864748707338837 7.473256803749049 9.687139020074248
Rh 3.1843888363459354 8.244642820787703 8.940252366942115
Rh 5.546125077270901 7.908641299214057 9.090603063763188
