26
Energy = -146.29879559 eV
Rh 4.0477387672515 5.3972703657813215 4.6975205232065615
Rh 5.889341363378437 6.828293129533219 3.1563873372200106
Rh 3.70399910889036 6.770564029452386 7.051747913949187
Rh 4.019727393710295 8.192507207056023 4.7220299156952175
Rh 5.2877875744996405 4.565147864891557 6.90600702864385
Rh 6.677102833153656 4.6024926658768255 4.5675462090699686
Rh 7.511600052883129 3.1080626324399074 6.714487807477844
Rh 9.35068631822719 4.534245289068775 5.174963051667624
Rh 9.576734457178182 4.51945805857164 7.968998011635941
Rh 7.034175110926402 4.571054484745225 8.993242842874464
Rh 7.74177472216851 5.5475222188726665 6.721320385716393
Rh 8.223129383657628 6.838799109078331 4.457859319436769
Rh 6.0335250375627005 6.788306963759078 8.13178781420104
Rh 4.430227863066083 5.35544920494264 9.30223813223295
Rh 5.8394332378820675 6.80271733061279 5.601552076386668
Rh 5.2388003085241275 9.011469484255697 6.93960293033805
Rh 6.627874928779285 9.040451688807916 4.601397816802342
Rh 4.398926850014932 8.163603895319692 9.325776311670332
Rh 7.712788991488579 8.087917729998628 6.740048992258917
Rh 9.29854694460882 9.154531592185291 5.203908026327002
Rh 6.985642404369065 9.014598541635348 9.026490227502434
Rh 7.429785478090602 10.521118229302965 6.767189138460338
Rh 9.527857909351908 9.139884430295803 7.99809789066529
Rh 6.49143912871389 6.773705436073577 10.545230415455256
Rh 8.576667947760452 6.811596627850186 8.889740299863382
Rh 9.959555317992427 6.842932635115927 6.546857845144104
