29
Energy = -165.00814016 eV
Rh 6.728383660722106 4.966642959258252 4.488292879454768
Rh 6.729416172660758 6.227975655743712 6.690542576547742
Rh 7.719583519190192 9.115805107110697 8.737901206260137
Rh 7.667728285361265 3.2655132039663237 6.133761624303093
Rh 7.155424576846595 2.065356457004204 8.175633045858286
Rh 5.537089747479016 5.307162211950378 9.87025181869855
Rh 9.717785635985848 7.545180476883572 8.261587650983518
Rh 8.1117189318717 6.884109159716229 3.4498515088670936
Rh 8.280169289274124 9.284639555806958 4.266977810917238
Rh 4.761368960913461 7.502115817536563 10.506575899780888
Rh 7.773410896242868 4.0176689754676005 9.420726175177355
Rh 5.593371662605666 7.164082394337376 3.4505316003246076
Rh 8.823028619621068 5.063073989961572 7.392273939245233
Rh 4.716674762482595 7.491508842498422 5.794093633951335
Rh 9.159290094338886 4.964828519064093 4.823251970335479
Rh 5.745940029233188 4.103827519382512 7.644796555481654
Rh 5.746008739169987 9.496774220012606 4.253678400878577
Rh 7.07716560820237 8.128731343706843 10.90364276022592
Rh 3.9567491294206025 5.99411622867619 7.939623090036909
Rh 8.967650130102967 7.251060603279131 5.881111780419062
Rh 4.530634815027684 4.993020729123447 3.1753301311679394
Rh 7.554444384954874 6.542853287170998 9.09696006413779
Rh 9.326293978293775 9.584236940762981 6.718619374698161
Rh 6.910216380503066 8.853471670674661 6.374403464389937
Rh 2.9445774119343 6.602748159511036 4.302565822634135
Rh 2.1328000905777817 5.653032217006423 6.401613938458364
Rh 6.992389519408874 8.76633343712703 2.15050028561034
Rh 5.406267431004149 8.002208441776833 8.195803001704196
Rh 4.433830183640229 4.87040763514703 5.6747475556127815
