22
Energy = -122.27555674 eV
Rh 7.316796926271815 9.098752615254375 8.135923616633594
Rh 8.306215337805336 7.165947210990125 5.309300064231756
Rh 7.460254199759463 4.262055708443857 6.020015836073279
Rh 9.471942818726705 5.894957312666202 7.039660292113801
Rh 3.631971284535628 5.52506377188658 5.838111054192905
Rh 5.546369176524028 4.780827551026098 4.251655921407122
Rh 9.101003355998257 9.239669884753742 6.420363608518038
Rh 6.1242778991795 7.303909712569847 3.793832258571418
Rh 3.7403391126487917 6.623605623167859 3.6191463929022363
Rh 4.177579836709281 8.03410339379218 5.662287787813714
Rh 4.944287167649785 9.410454464239555 7.634652512629289
Rh 3.444869302514008 4.640680505795021 8.120223628354376
Rh 8.301906766025999 4.155049427691179 8.427114664373102
Rh 4.9483819638451685 3.3909487651235573 6.337711281162939
Rh 10.490518141466247 7.916857342923577 7.866900802346597
Rh 7.930438513385007 5.315317119989929 3.724888045992476
Rh 7.489605552467969 6.594518879149402 8.32976838282444
Rh 6.051081601308174 6.342578912005539 6.20635296163252
Rh 8.897023653846237 8.098436994681915 9.63649861688121
Rh 5.888461612414822 4.652854968063153 8.296996752486226
Rh 4.595356772844715 6.962249076682925 8.109612040392113
Rh 6.6029654598166445 9.00140368076821 5.702538816849315
