27
Energy = -153.93886958 eV
Rh 10.66677149238601 7.793846964602079 11.353006737010512
Rh 11.299523190498299 7.772570385263298 8.903863170441923
Rh 10.03688769137501 9.246923917750289 7.188294156874386
Rh 9.541768333452252 9.35353248749482 9.725630233390282
Rh 11.275470769062414 7.176827453978584 6.362765108533962
Rh 9.674640043228647 6.146913139929715 8.040093359343325
Rh 8.449993174335379 10.998325702599969 8.10607624607335
Rh 8.000121466938278 7.819733694134742 6.7095882320392395
Rh 9.225484441706573 5.939867710556971 10.677401957014679
Rh 7.0084543628857165 9.851988717683442 10.032242379646322
Rh 8.050114031059074 8.076069813224825 11.648256050227067
Rh 7.851151080424645 7.592622666135784 9.17627973849887
Rh 9.14956746176996 6.610158681352735 4.977805282672887
Rh 6.4920058401961755 9.59897656657662 7.502097757584875
Rh 8.511146724185382 4.664586467561664 6.424215108726025
Rh 5.496017706904632 8.218750165116546 11.334691183515114
Rh 10.335331277111111 8.878454828436565 4.653636763728003
Rh 4.635323047987106 9.217015960661673 9.170234107665367
Rh 6.712712197259532 5.900237219987561 11.31931048996776
Rh 7.5301830312264935 5.052268043123148 8.996683434435967
Rh 8.187670967216954 10.00960784495049 5.536221432327112
Rh 4.755964341204014 7.843728182423886 6.78922167017682
Rh 6.374495542644652 5.872539142364476 6.89349650691001
Rh 5.549028388510371 6.863672806095785 9.125473270173352
Rh 6.406851174609186 7.228336751607613 4.818032606833186
Rh 5.729803371245007 9.59017726238936 5.068251756788453
Rh 8.080534502635409 8.513853966770732 3.510585197018737
