26
Energy = -147.24506442 eV
Rh 5.194331852206071 3.262235746354885 3.674728328323553
Rh 3.275317486830449 4.643568693542929 4.71208759501017
Rh 6.938999874914983 2.8292958417008034 5.53806379336737
Rh 4.626938766928547 3.33131814351979 6.512374027579396
Rh 4.297878600062459 5.279867185681671 2.443973599891433
Rh 7.614505524734565 4.395672760537345 3.599018780867928
Rh 4.482147961483048 4.553498775451325 8.810532332798706
Rh 3.819806769722472 6.003175622139234 6.80484757126427
Rh 5.733973374984667 5.250203436099536 5.216114543748031
Rh 6.768706385744776 3.707850114484838 7.947962150519187
Rh 8.2059489410183 5.016036758559739 5.968910937334162
Rh 4.050432789823149 7.062266375532099 4.416338723542782
Rh 6.323820611019599 6.553044721876571 3.129321685999156
Rh 6.580636804855057 5.671689502898912 9.93218842502155
Rh 8.699121795186755 5.421654656304159 8.449837282853684
Rh 6.363404887217931 6.1383882136299075 7.490791733736603
Rh 8.581107120758945 6.87026501111511 4.273036088808495
Rh 4.504035814872791 7.151194532452474 8.963016238841595
Rh 4.23305816240686 8.543836525110333 6.510214695323255
Rh 6.419083127604461 7.850534278887679 5.363314048148332
Rh 8.094245162439192 7.7200191266130656 9.414948792996102
Rh 8.610056166301549 7.474799153649576 6.861627964876412
Rh 6.260108530248231 8.64072528961283 8.031035371122577
Rh 8.498804349810579 9.308629466732345 5.083405725279106
Rh 6.304487835977752 10.279427589917928 6.103820536347345
Rh 8.354118712457037 9.92222658994459 7.595208140070126
