29
Energy = -164.37601502 eV
Rh 9.95520157538716 4.161429582768955 5.0245482059367275
Rh 3.439488042983165 7.532453228762058 7.1526427167839035
Rh 5.228302982637419 2.949704091788436 4.967270276703406
Rh 7.745650827614782 6.710802308149657 9.5832711602926
Rh 10.40128960133824 8.72910604410657 6.691098961696197
Rh 6.341601587822085 7.915476738404949 4.5979677193090955
Rh 9.57855976513578 8.411853722242888 9.03585981957975
Rh 5.247147392222712 2.9060616663656402 7.369435935500154
Rh 9.854962209448662 4.128821836347709 7.431819532727861
Rh 7.938687896276517 8.235524522441763 6.445498016299708
Rh 7.0880161521723215 10.341021614893931 5.36966746716027
Rh 7.5944392912542344 3.6375662435840703 4.9612749668090785
Rh 6.286342267045105 11.19538444550055 7.718694559350969
Rh 4.527568986961693 9.646839025918384 4.6089523189679475
Rh 7.534772501847378 3.61822932150878 7.339487111363971
Rh 5.456282538816137 9.005988826459776 6.824258194463983
Rh 3.2939822661843077 5.99898810656856 9.130290386024367
Rh 4.409666952482321 5.19174805525551 7.049410044152459
Rh 10.82216373016375 10.483781317128152 8.49745699166976
Rh 3.3751333529114347 4.783816072451487 4.838721436213179
Rh 5.814384019387277 5.446029919429414 4.9082849933013755
Rh 6.933720840997637 5.950451141516045 7.253943356807116
Rh 3.9286525885921764 7.207782103107927 4.78146659801499
Rh 5.384386808536227 7.3388923602761755 8.779415821651101
Rh 8.379989916874566 6.097790365372113 5.137840875848717
Rh 5.766086245692264 4.833069319361943 9.239017447454291
Rh 9.504392137016284 6.462462470416173 7.520884691158176
Rh 7.1171178378516435 9.089602893758014 8.882020954093004
Rh 8.65848855799774 10.543565019596823 7.393890313787296
