28
Energy = -158.80760952 eV
Rh 6.11886462136306 10.174451597340346 5.960834796915591
Rh 8.116085689069141 8.702245180522448 5.5343522195234
Rh 7.034944239697486 9.835991909580713 3.5888123701298116
Rh 6.757169241685384 8.237411666733545 7.6621720330807515
Rh 4.744884555151051 9.405652032543333 2.613836220620001
Rh 4.263654034051833 9.15832918350054 7.440321868809272
Rh 3.98508719548246 9.279231725705479 4.942590720569866
Rh 5.694117160133565 7.416652605613053 5.451913591198466
Rh 8.62556086346412 7.062626571876485 3.7282616780154747
Rh 8.019282787369518 6.292877569959591 6.103725647502478
Rh 6.303735522675665 7.47142326852892 3.006626210689991
Rh 4.7238830300518 6.749647874172409 8.015554475470216
Rh 3.770166556157063 7.1708784609494955 3.4506235702225787
Rh 3.178145631194203 7.041638215878502 6.012412343545587
Rh 6.827623766270247 5.221624911926675 4.0839016098472385
Rh 4.330296034066281 5.105435053267737 4.598422035971627
Rh 7.078027831508424 5.8837779848302185 8.638771322593163
Rh 3.4076147285272564 4.743978905063472 7.112713111879108
Rh 8.42491169077493 4.131567839461405 7.2628641077471645
Rh 5.463284470584305 3.087645120487917 3.575331090201543
Rh 5.97320803755421 4.624346103889663 6.653132992383481
Rh 4.930544616970069 4.525743082501755 9.179530307725372
Rh 7.326504534617786 2.9893408508546564 5.2059106121375684
Rh 7.233109990753386 3.3348854899105698 9.315452261696501
Rh 4.018081184312679 2.8175122004583084 5.63089600901526
Rh 7.821202140651186 1.6663977448665332 7.309808659838424
Rh 5.798457717001138 1.0940958007343682 5.5961370810597435
Rh 5.4848837333782035 2.42987894165762 7.737701927680896
