28
Energy = -159.00072586 eV
Rh 11.861644658357896 11.251357988942004 6.315366790413944
Rh 8.558919819268018 7.81332809815556 4.963172674190849
Rh 8.094619795598597 5.874270938986968 8.598408436804887
Rh 6.6025594618093715 6.0802320624575374 5.541637181824695
Rh 10.519708608202974 5.146186441207563 8.189645667757969
Rh 6.06939316449438 6.1355328647317595 10.258949511739713
Rh 5.580185684237631 10.312548166425554 7.588852032362482
Rh 7.405301596870002 3.95638514425167 6.991051960960034
Rh 10.287482978685919 9.494103622603026 5.566702100000101
Rh 8.985321834816354 5.66567609983905 6.236849830906668
Rh 11.903456768431285 9.209770058646757 7.6235672946243405
Rh 9.094926865539724 8.181801101245366 7.5086825449031265
Rh 7.761514952760421 10.027909074810784 8.823164891365089
Rh 4.232616407029497 7.2674913346084535 6.6153768586094825
Rh 4.064243657710868 9.653480803572462 5.705561041707808
Rh 6.494481306131445 7.876756117634762 7.475576768373462
Rh 5.447831032329003 8.511888836498622 9.630410268857814
Rh 5.633121932148088 5.423624819615483 7.87245052862413
Rh 7.9099621602643335 7.872187921593999 10.130242878533283
Rh 6.088097956969897 8.505257919762137 4.976938773968248
Rh 9.950873443356782 6.391175574062343 10.360474806142115
Rh 9.840366388767196 10.80029668898621 7.705745674428989
Rh 3.42628980683085 9.089891808727957 8.158546110005092
Rh 11.975042996695686 7.0856513180019105 8.938693556163908
Rh 10.218686938047282 8.823773898292869 9.585383543814487
Rh 11.055564927100233 7.043951420823738 6.532142033190481
Rh 3.7921215242319684 6.641256133436296 9.086856665575207
Rh 7.752888744784411 10.040607032240336 6.182417187859244
