21
Energy = -115.05841814 eV
Rh 7.422878597231837 6.004171573108166 9.101304457781001
Rh 7.097657155465255 9.381202333939848 9.23109489426516
Rh 7.30148018917088 4.084294671631712 6.158760731551813
Rh 3.8403901805192087 4.489044044737726 6.551238609366073
Rh 7.326701525604107 6.14498370796605 3.188617758584077
Rh 4.206276805939498 7.548508790693438 9.320219990314362
Rh 5.808259195147331 4.541991934866515 7.982094874498495
Rh 3.58292799183918 9.128792559231814 6.064258244022636
Rh 7.204517784325631 3.686216513528867 3.675243342805196
Rh 5.794620979439124 6.974098152531695 7.425997872108234
Rh 5.088725975510182 9.27313465593413 7.919841333049293
Rh 5.415001605868453 5.064530452795906 4.776396663851657
Rh 9.56654350299011 7.106549402177194 3.1513142702884265
Rh 7.387921655692374 6.6238963031630425 5.584839153818967
Rh 5.010071507310408 7.462785600461182 5.054543424294112
Rh 3.3344887083726267 6.79781846926639 6.989331208928724
Rh 9.219829475010735 5.050848316104515 4.637067086996138
Rh 6.25538082305779 7.553562121729149 10.578643574190338
Rh 8.195652405666968 7.984422930920641 7.636231489255036
Rh 9.080388273132966 5.561006376699884 7.24503007631429
Rh 9.740178744109862 7.4330222379187 5.570653478924934
