28
Energy = -159.20295341 eV
Rh 5.168076690277098 9.985240913389735 8.769115364426195
Rh 7.139876478999775 8.47760444708394 9.41095387084072
Rh 9.08225488343856 6.951070414512519 10.01196286310701
Rh 4.988969538542247 7.439163875006491 8.443769111791937
Rh 6.9325796091489575 5.930524247246767 9.07742988224883
Rh 9.689725877716231 3.2477350779944243 6.857119450443075
Rh 4.072811623369191 9.130204833183454 6.686188779069619
Rh 4.807553422260152 4.903446978119711 8.028768593700443
Rh 7.197147886742355 3.88196676568463 7.421196704218526
Rh 6.634120519566698 8.941604065438911 6.920404064875276
Rh 3.732680136657574 6.605989931713713 6.379276461397996
Rh 8.584006463646169 7.454279655155872 7.5483435507921985
Rh 4.9941364702629985 2.512401920345974 7.389779610007317
Rh 9.26083393483545 5.110921842624246 8.341636039923287
Rh 5.46189596104099 8.090993051920723 4.775815386188917
Rh 3.3428538106668437 4.143779731529735 5.94108823007455
Rh 6.369956481501896 6.136708836516069 6.2896115756825655
Rh 2.8996555571100675 8.334909595858104 4.598458606047437
Rh 8.036308492360527 7.829829143091463 5.0568708547249495
Rh 2.102965473594098 5.937985339882849 4.498729373880909
Rh 5.6847808584483195 3.613867550699248 5.283237508248071
Rh 8.93563023936824 5.490587270437127 5.778831614905577
Rh 8.093268283360679 3.13619967900741 4.954451816560336
Rh 4.289690242311679 7.435503473620463 2.615238610458355
Rh 4.5758975569790685 5.535927225281091 4.122926109527424
Rh 9.19529381465627 6.388137256012108 3.358004965177668
Rh 7.087839109088339 5.185230908700637 3.8669395689965986
Rh 6.843029544684061 7.423716889007251 2.7778612338529105
