27
Energy = -152.9297958 eV
Rh 8.007308992632286 2.3123362170610653 5.304025301435595
Rh 8.917745621381425 4.138326702731171 6.702132022218322
Rh 9.791714114191379 5.932538679839481 5.023711562475763
Rh 7.505019670747298 4.919919099028739 4.8374876192581056
Rh 7.403235772772739 5.378484932370327 8.258896327402613
Rh 5.730598809469416 3.2875108584463275 5.352176199563146
Rh 6.838342672394731 2.9782161332995245 7.5580942113337795
Rh 6.778038000081098 6.990293741418899 3.6337513852722667
Rh 9.568824428658068 6.442127006831712 7.522891144150427
Rh 8.523616971516459 7.914227807854643 5.765620555472913
Rh 5.51730809036854 4.780854389449342 3.257269992434278
Rh 9.58975037585874 7.630016731371616 9.586249744648422
Rh 6.368942535163465 6.7562898604630135 6.229881798107693
Rh 7.742291364304734 9.298763532471398 3.845010817784412
Rh 7.477379919209463 6.718435794607759 10.314599291296565
Rh 4.941569681936765 4.773969488666583 7.235006500095336
Rh 5.36109740667352 6.783692284497118 8.828053626585003
Rh 3.4996305510417507 4.248870036023733 4.944095321505603
Rh 7.575216920258273 8.21533957590956 8.20097012063811
Rh 4.344296050951096 6.565862439024833 4.582653321757243
Rh 7.2563260428586185 10.006273669093702 6.357165115980494
Rh 2.438395063292093 4.673341617400083 7.2038969890791575
Rh 5.522530190796836 8.9407866443634 4.8367127257266604
Rh 5.2225053932202625 8.904519829418449 7.40554538572595
Rh 3.5475724013567924 6.970519561408506 7.11527285020977
Rh 1.927245683936702 6.306093734038412 5.301714988420966
Rh 3.158096422998636 8.686988780981363 5.351714229492324
