21
Energy = -113.60959978 eV
Rh 6.77509249282252 9.318473047670928 5.107380313533098
Rh 9.857304732479896 5.19513346678963 7.921683077760882
Rh 7.199689872316542 3.4589182038669652 8.537928944593274
Rh 7.812624034639485 9.840727197842355 7.377656851923242
Rh 8.977825317179326 3.18051327138452 6.903394094594179
Rh 5.9662414202653204 8.16805897521448 7.243516238269482
Rh 3.7332836723039122 8.857412271391803 6.643583181683704
Rh 4.166134583302982 7.220610414734548 2.3781984821680973
Rh 2.8267112866313053 6.660883722007606 6.7297798279851
Rh 10.4384228869144 7.441849937732463 7.473589712110575
Rh 5.117561287223672 5.81087572232044 6.9277722832468625
Rh 8.346988585657918 7.618285981171762 6.2463716412977845
Rh 5.7724420261642475 5.542229763165806 2.9470755044119397
Rh 8.562395985766438 4.8680819890942395 9.905408936756507
Rh 4.573479267274194 8.428206867760615 4.381083157133254
Rh 3.8605794551645136 6.022835725698521 4.6243072334971895
Rh 7.420132678121029 6.719914122183282 8.713713177065594
Rh 6.405882486715287 6.735470769088738 4.879010567175169
Rh 8.907158452370295 8.522624570034894 9.085589414780182
Rh 5.565567359624791 5.10748565295361 9.170653547429735
Rh 7.603712259761972 5.218797271349306 6.61936941744976
