26
Energy = -147.35561283 eV
Rh 7.805496356442922 6.920233709796044 2.6593454819841424
Rh 10.66404934916439 5.709455939986233 6.873693663847979
Rh 9.392344283956932 6.269268542539763 4.723642608629517
Rh 8.866886333142627 7.459723229158225 6.996540054751447
Rh 7.494238157311319 7.976600950477871 4.880749710481632
Rh 6.896635973828865 9.180187191262585 7.011644584549389
Rh 6.027184379659644 8.979811938121445 3.135471198095075
Rh 9.025097088600607 5.7054431344177425 8.859113191223658
Rh 4.9595102310548835 8.374582119206249 5.425496596103445
Rh 7.163556464959637 7.470613758498536 8.932460550119503
Rh 7.094581014448263 5.295023654992954 4.388832202946987
Rh 8.34471405576586 4.790169126959993 6.609149624527811
Rh 4.763045888380684 8.29681453768049 8.100936122241777
Rh 6.260882500888042 6.514897752762018 6.744424720110929
Rh 5.268314002247894 6.660856821875471 3.283539239380879
Rh 7.343824425970859 2.882997746334216 5.205602742961519
Rh 2.7092138735190243 7.313637405556997 9.15399201395309
Rh 5.036765638918307 6.626182637078509 10.052597532563057
Rh 7.46721983121194 2.7911384820885 7.80589527811246
Rh 3.0108120857651346 7.5963741656467505 4.066592212637084
Rh 5.1652796516104384 3.7784253724081633 4.071881491350573
Rh 4.114599503430675 5.624366005919231 7.935032847167421
Rh 2.8232310243826615 7.4577643448415625 6.606408855268065
Rh 4.125880073916023 5.69305606583611 5.338735297936414
Rh 6.542604185876846 4.944914114770879 8.785581396475685
Rh 5.4715006294133275 3.878417102272374 6.621815017571476
