26
Energy = -146.98523666 eV
Rh 8.02794875835724 7.120965260938731 5.669308416291938
Rh 9.206147385419387 4.867933149942468 5.618321906429146
Rh 7.8216703612389535 5.370086114082349 7.687962829466941
Rh 5.459665565352318 7.104252914111808 6.3888567220914085
Rh 8.780301711601359 5.533574305655074 3.297624986906207
Rh 7.2760407378414484 7.867559271440631 8.083326709223124
Rh 6.509898934979447 6.567105591574846 3.5371500531058384
Rh 6.326096545671967 8.864314438575544 4.697033777058359
Rh 6.587217342202625 4.848015691468201 5.511534771538633
Rh 5.524967142618624 9.468967165583269 7.116362261746302
Rh 7.718425848108005 2.9372867245449688 6.544402950431028
Rh 8.907899501891976 2.835524442509212 4.209011563530966
Rh 4.869759785541395 8.391979338707184 9.296777607341097
Rh 6.552351476037548 1.7570056842294666 4.559754013300446
Rh 4.142575155786363 10.07570147639752 5.1181165152842585
Rh 3.068529557139328 9.325582094289961 7.502184236606532
Rh 5.6767549478094 6.033445816141868 8.893305411908269
Rh 6.82775286887603 3.955326899049319 3.277007421067656
Rh 4.427342658672741 8.059571129983468 3.287502186468236
Rh 5.25479910036095 2.182926223527246 6.770470601855237
Rh 3.446909883057409 6.840071522922699 7.931332760807741
Rh 6.278087696493979 3.588484260208108 8.61652787202264
Rh 4.485696214290834 4.654805421764293 6.993018300106089
Rh 3.1638168221901224 7.818033241841414 5.481174786603946
Rh 4.256922634201028 5.791806005307173 4.472555890406807
Rh 4.608216574694932 3.376158633485045 4.668091016641059
