22
Energy = -122.3784578 eV
Rh 8.905266694050662 6.667932423028219 6.665680826342352
Rh 6.714369307674296 4.192384740453305 5.549488184701263
Rh 9.205855195256134 4.595154475691474 5.221199073043531
Rh 5.999164670928454 3.3035161218112146 7.856528060870042
Rh 4.812132150725682 8.411015423067935 6.783497427821161
Rh 7.178808860708498 4.180862502696865 9.895663325816864
Rh 4.3892984777872375 4.761971897230792 6.501561902299055
Rh 3.4294400421812457 6.654934788285943 8.029551430664416
Rh 7.6563374037466785 6.525286820991964 8.88148427893326
Rh 1.9933775053824587 5.046852133505596 6.6175288091448365
Rh 5.184405663595807 6.017686462895876 4.400880704329025
Rh 9.537927848616052 6.97594458574411 4.235047645384195
Rh 6.369556852564755 6.516280669475963 6.595692876887787
Rh 7.510006759835608 5.4879727021829074 3.493789007213777
Rh 5.377812523912861 5.565363475475246 8.845809730585477
Rh 6.4506977619328945 9.946709543347994 5.583815389569621
Rh 8.32229649674595 4.3640783351493235 7.6463129225829
Rh 7.297780036869035 8.701280015435783 7.693579630185453
Rh 7.141853323434886 7.795749008487087 4.456926351173488
Rh 3.1201857350317797 6.970718760252149 5.513522167226899
Rh 8.899109219771447 9.044592686833251 5.7924396975780335
Rh 4.705063069149862 8.490918319368678 4.255522752785997
