20
Energy = -109.52262262 eV
Rh 10.381587323066952 6.94914157102842 7.395571054236923
Rh 9.130385995747236 5.485392547258769 8.790161331090724
Rh 7.771808231408207 4.845223663188911 6.626640635057468
Rh 9.065696252030257 6.38185353964606 5.351775160225181
Rh 7.752870200491555 3.4106538761919736 8.670275373727337
Rh 7.651924321763445 5.765184378396626 3.3645754046280865
Rh 5.88214425330729 5.123914216963402 5.038866808297864
Rh 8.3922640401046 8.313156021470027 6.831787721345176
Rh 5.50531686727218 3.7835896744657913 7.195966488760533
Rh 7.1127031561387515 6.635737704526793 8.090548327889879
Rh 3.5332610969615788 4.844402423902124 5.640401376297564
Rh 5.257950599630282 6.531225315166735 3.059153515789133
Rh 6.815042703981003 7.527175340338443 4.9220282873291294
Rh 5.925986038267724 4.91050529212378 9.426593531570866
Rh 5.673494209739099 8.434898261574595 7.113083428661222
Rh 4.590206715471915 6.136542131647377 7.6170921401265606
Rh 5.332953251511678 9.476175732171438 4.888435604906773
Rh 2.9662817828485526 5.916014467411876 3.5150583905471633
Rh 4.13192752024743 7.3181604752819895 5.224436637552499
Rh 3.1986493484358762 8.169647625776394 7.309189917763789
