29
Energy = -165.66182288 eV
Rh 4.232205854155616 8.715929065818614 8.379002095068449
Rh 2.701772644187786 6.421663836505359 8.353660698092623
Rh 2.5530119531583053 8.203742870299548 6.448897082525528
Rh 5.197441014793746 6.408306115642467 9.43246615447421
Rh 6.737297821028139 7.981959865656929 7.8360821484026575
Rh 5.044991192337702 9.019573381146627 5.893724396828819
Rh 4.346387050991317 4.400508885985514 7.808021854885489
Rh 2.757543127987746 5.604568929566872 5.851809000833652
Rh 4.677221446262488 6.7766005316711615 6.8671576521498725
Rh 7.356163309072872 7.740780279915647 5.300516276380511
Rh 7.900134903106312 6.251961504048844 9.492981649221672
Rh 3.1882853995986493 7.8021912633785195 4.0498873221627445
Rh 6.684956748773185 5.429699650733701 7.470610816183622
Rh 6.381297502120821 3.962900516061241 9.470302556990301
Rh 8.724575073056752 4.07083199088615 8.323567477382673
Rh 3.3965869802317754 5.15187351626196 3.41746702852625
Rh 5.226109377909444 6.481105462987174 4.482593342632506
Rh 5.742194468454344 8.688366079764297 3.44979544427118
Rh 7.219986817323168 5.141606802554877 5.079255555915266
Rh 6.644709191663835 3.002145160930147 7.031223268268994
Rh 4.865810342712708 4.010304019278237 5.270042096709549
Rh 4.793503711457167 6.775039678542468 1.9648230429436313
Rh 8.914196759873967 6.426277726848292 7.066115351335063
Rh 9.145746104876714 3.815876430830023 5.859272103931912
Rh 9.386443871501173 6.243498403278675 4.550617476859985
Rh 5.895042208250974 4.470748983715623 2.8845453877101686
Rh 7.345068827777228 6.643929191928971 2.902052611400667
Rh 7.021134887867925 2.717102982708449 4.516390724683028
Rh 8.586881366935703 4.230661986024333 3.110125536896464
