27
Energy = -153.56196855 eV
Rh 3.8573658409115943 2.80021901134589 6.96805366543984
Rh 2.4251995712681693 3.9330923937581166 5.153928874596707
Rh 2.3184269506932957 4.866388932465177 7.5338504014353225
Rh 4.825816282877511 4.9939755764972675 7.745259083211986
Rh 3.484312267693632 7.1673340338818115 8.103724379639006
Rh 3.6418412588685065 5.331516663261698 3.289868251627332
Rh 6.496290121136817 3.1878952253378987 7.015777139987296
Rh 4.976535136325591 4.027226560464711 5.067687931506969
Rh 5.073305111363735 9.128735993431206 8.73039744005675
Rh 3.5760922698438615 6.192535537359967 5.683003620096177
Rh 5.616656688147187 6.656962803166235 9.42611047017621
Rh 7.466718251582955 5.271312126548553 8.290446346874434
Rh 6.499332560971674 6.108108297603538 6.100908892760875
Rh 8.9600737423795 3.751469321338702 6.94231280093359
Rh 7.573438480906442 4.206328926448978 4.8545052280329966
Rh 6.110770261856571 4.812547150019508 2.9094905521872927
Rh 5.4130234906456005 7.071943337373859 4.009105661083507
Rh 4.963170345825514 8.26037693422902 6.327777120201665
Rh 6.637477203502679 10.156228076240016 6.890553352856233
Rh 9.851559935093576 5.961563273892211 8.213835964190254
Rh 7.1321588633014885 7.920644824658625 7.944138940499048
Rh 9.153998972747795 5.993287495081229 5.789552683367358
Rh 7.927364048552549 6.502447511607067 3.565218049060049
Rh 7.258464318738112 8.413825258850522 5.120627768932669
Rh 8.870361546934891 10.25296091951103 5.878529901035653
Rh 9.729654712175275 8.121882479015682 4.553774619622243
Rh 9.37815299478899 8.126752565744717 7.10912208972145
