26
Energy = -123.93022264 eV
Rh 8.958140585372366 8.14593973236011 5.195037971571783
Rh 6.787363450235124 7.746000548944246 3.7750948565534395
Rh 6.439207415909447 8.617963353313348 6.204011152068262
Rh 4.288924982936379 7.808228046246517 4.8763148155330525
Rh 8.349478021628991 5.59631526542096 4.56112993793754
Rh 9.516299383026828 6.326816239233245 7.114367240852357
Rh 4.634265995789467 7.172613301269947 2.326965804260651
Rh 8.671846497538409 8.862809035097595 7.643618706534931
Rh 4.184179489539672 7.750210808536189 7.480248987060178
Rh 7.00233987026218 6.157998981659353 6.666201185353049
Rh 2.347075293723962 6.453450745516658 3.648787993096606
Rh 6.2120326885341175 8.80398185338617 8.838247146086855
Rh 2.2174071870650156 6.571024000780559 6.2074931915178535
Rh 8.181962074066178 7.060970106200112 9.446018153164635
Rh 6.223506374699953 5.255226723059411 3.058111663319132
Rh 3.8002903415108773 4.612156911399797 2.534516934561535
Rh 8.676916466019453 3.811268146196039 6.487017033102183
Rh 5.007232539678245 5.38730225756467 5.3115501249416255
Rh 5.806344118235044 6.241185466172991 8.938623622122584
Rh 8.711310214097589 4.588063567337941 8.976060606995173
Rh 6.698935539881362 3.389544696612345 4.85821128236107
Rh 3.9121542602664428 5.004261598595514 7.599220522026166
Rh 6.413623424072588 3.8846899305459526 7.94103223188107
Rh 2.7626365826218926 4.177273513139382 5.090160101116029
Rh 4.44714305332658 2.506372298623287 3.864052207129514
Rh 4.6293309779638125 2.733093738252095 6.450598929512268
