26
Energy = -146.22641319 eV
Rh 7.4533993747347935 8.392199204806586 4.030214589711199
Rh 6.294934834796714 4.168365476925585 3.076235062230474
Rh 7.971956579955584 5.895399985091508 3.674709396823284
Rh 9.792732815673245 7.484794124406315 4.6195911998637955
Rh 8.346426118388164 8.288140922312394 6.4644793927725726
Rh 6.459626646767146 6.626724311174672 5.517699764315324
Rh 8.60893196123318 3.372258244629121 4.140708551615564
Rh 5.884478054341368 9.232868096058018 5.720452324941423
Rh 4.569097807485876 5.214775955719005 4.511094308672021
Rh 4.844982811415008 10.934829869026338 7.153672184474117
Rh 6.89086000172316 9.928201928963878 8.023250597589957
Rh 9.595685861089056 5.219359654718253 5.436107932806344
Rh 4.063956877049124 7.474939424347462 5.309995208350735
Rh 8.962187155416267 8.935998315645774 8.778308397703384
Rh 3.6396017123226043 8.859632449142094 7.38604393542835
Rh 6.61774114412038 4.034459004327463 5.536154045837014
Rh 8.68635658163445 3.3732946634603826 6.916945680728636
Rh 2.3348434740038173 6.698461294127958 6.92806951144377
Rh 8.203614737644772 5.89549048931205 7.329422737087344
Rh 4.641008794822252 5.544646222652849 7.1184376926641395
Rh 5.806050487352775 7.72413868181723 8.02960727935339
Rh 7.797383884286233 6.980694198260398 9.481959493724109
Rh 3.572164245251277 6.970675466755384 9.103230923272582
Rh 6.470085597127232 4.051415155733413 7.987053578283909
Rh 5.68357867879214 5.645214556642116 9.662103498265441
Rh 8.307423021567821 4.552131562938194 9.563561971035725
