26
Energy = -124.67016494 eV
Rh 9.888235207518303 5.1593579178883 6.288352141950865
Rh 7.249777315594981 2.789913198076486 9.046539499608464
Rh 8.034211099186123 5.290192691046659 8.109805203756384
Rh 8.313014741350951 3.1474444493191065 6.7344905100368635
Rh 8.317698539648383 4.396633571146411 4.364153279404569
Rh 8.482524248577194 7.453827337406372 6.748005817405215
Rh 9.23666752006385 6.865579320395638 4.365452859149494
Rh 5.0827762635118425 3.6997925429021916 8.061136001931043
Rh 6.207467045228365 5.133102104107576 9.84691446638785
Rh 9.222770771112542 9.3009323613716 5.080662778973366
Rh 6.85191846855033 4.890499247421888 2.346983868372235
Rh 7.489829489232469 7.6191352390726435 9.136819951827233
Rh 6.07382895772049 3.703842304505828 5.628650970337778
Rh 6.779327902322951 6.973898862634089 3.80304152821295
Rh 6.0523542492218425 6.173525528734654 6.340406951140682
Rh 6.737746978729103 9.357485774837755 4.705769597716519
Rh 4.706556292229767 4.564934997916886 3.642992155012119
Rh 4.967390415257211 7.121724521932336 8.899159583384117
Rh 3.5045557076496983 3.69391564356935 5.86302283821998
Rh 6.0334266686007565 8.622870706848962 7.076881413852914
Rh 4.372734640781182 7.112243553412304 3.167863833208767
Rh 3.6175705807877 6.312810082926575 5.4411253237698345
Rh 4.361931043770422 9.528787438525356 3.9595666530402536
Rh 3.2268156260575505 5.465005832036964 7.782804715182565
Rh 2.640049991560055 7.917812952817143 8.384279655367367
Rh 3.5892755099218765 8.745187093332436 6.215573676937103
