23
Energy = -127.93375911 eV
Rh 7.977062178462887 9.360440627481923 7.151033764383347
Rh 7.814109935166975 9.140593484205683 4.548761522975137
Rh 5.8360684220995065 8.519155460796341 6.193062627769945
Rh 5.940407861327895 8.021452444812136 8.717531816923428
Rh 8.09577286311982 7.056387168724738 8.117113195026889
Rh 9.202719897303838 7.531026490805946 5.9625759894404275
Rh 3.577890615072195 8.059341609386722 5.072306085271807
Rh 5.636216211707006 8.416519312517625 3.6127547599280256
Rh 4.135436579932652 7.023850427672044 7.344495970822293
Rh 7.389766256388747 5.855381535501275 10.204971921553629
Rh 7.006849558487286 6.655311956595175 5.09911464164473
Rh 9.034189282637326 4.804034571402607 8.738157810225207
Rh 2.1571041563329136 6.151434604338598 6.126177596430276
Rh 9.788069579631943 5.198855435366071 6.2806175145900545
Rh 5.625808436434611 5.41099737734669 8.652234808076189
Rh 4.3227794544923075 6.654168733013418 2.648963739449767
Rh 6.1490796290400835 5.067231590867696 3.3527967128744147
Rh 4.349737648252543 5.725002395272872 4.94590848312187
Rh 8.13507436488691 4.24506722703304 4.649897279371352
Rh 7.3136114794427245 4.860106122655918 6.976340053298526
Rh 3.8234024060244836 4.466565395558483 7.113481340368339
Rh 5.693085993377973 3.679306876538298 5.470323631861687
Rh 5.782489349931841 3.002035753239438 7.867897977013897
