23
Energy = -127.73159671 eV
Rh 9.612063543080428 8.482512518118524 8.535017428127544
Rh 10.424801793415284 7.380551215132149 5.1632419721537195
Rh 8.889142350855133 9.037402171284915 6.2767519485861785
Rh 5.010748240786771 8.981554391372358 8.907305077155831
Rh 6.629960729403958 8.79112278851686 6.878999881765448
Rh 8.960831024445671 6.507173256527164 7.11303277751899
Rh 7.363641685644179 8.51417096358237 9.291647696757929
Rh 8.159700424777776 8.090415296843284 4.033215465466201
Rh 8.757995299601046 4.455073985314029 8.60697746418634
Rh 5.819352691923454 8.814721480445291 4.506415366268772
Rh 4.1815691975909495 7.920822035717504 6.325494745216604
Rh 8.736236936532869 5.633715692699719 4.657468253489568
Rh 3.9517141149347643 5.998814005619361 5.020920979652962
Rh 4.30821770704045 10.23074145049697 6.777771199002276
Rh 6.937927503840854 6.175893631319063 9.080971750905656
Rh 7.620149921779481 4.269876136297846 6.458107024151376
Rh 6.227056618208718 6.269343807056252 6.704309746786694
Rh 4.589805900651334 6.601041846179712 8.574443203691525
Rh 6.312562478294774 6.315053160981925 4.275131579656843
Rh 6.764764152687246 3.865139544248111 4.222145545329496
Rh 4.958451111225846 4.1238885390657165 6.155981491373543
Rh 6.300034661999181 3.688603759705028 8.52685497023788
Rh 3.9372745776439033 4.334807781215848 8.437590554592333
