29
Energy = -165.65436129 eV
Rh 7.08047073056189 7.565848744489879 3.493210449849977
Rh 7.40123768129069 5.168601218673668 4.209817440406647
Rh 5.046848385595453 6.0688368176216265 3.63126525641544
Rh 5.025732534956575 8.322337119955362 4.921905802445537
Rh 9.140825363939271 6.959855263053617 5.072144844324306
Rh 7.373447650933933 8.9232977406018 5.569877400635224
Rh 3.0305785632466176 4.566489075858928 3.682281961942988
Rh 7.729179015562065 2.674523139266085 4.246954589181049
Rh 5.340284273062269 3.5259481589269055 3.983455560703286
Rh 2.969405597889361 6.811634014157234 4.99295976668697
Rh 9.709748684583888 4.345614838075479 4.797783030641972
Rh 3.1143999913270335 9.074714670084447 6.351312224056375
Rh 6.301374914031514 6.451585295893818 6.2086852856931225
Rh 9.811524826257951 9.29902154198975 5.862338568908489
Rh 4.168418394851696 4.799039855676852 5.908665956519203
Rh 5.416763509709707 10.139136381001883 6.72984328712717
Rh 6.484072494624574 3.655708488615335 6.259151573131827
Rh 3.990474537392605 6.907480911298302 7.389005377302696
Rh 8.851333607309515 2.729453588857397 6.623836428525251
Rh 7.882398220946126 10.23630744550677 7.638627692571094
Rh 8.54376955345385 5.2588758464111525 6.917428769810204
Rh 8.690013197627083 7.767913986584603 7.487213633581234
Rh 6.283186741198621 8.30590991711952 8.152547285288495
Rh 5.2085989096964695 4.791447801938534 8.228421669709036
Rh 3.9866014690286993 9.078412477748365 8.751074860484625
Rh 7.426231008714365 6.179549262490903 9.048961513034273
Rh 7.477705873809941 3.638388445508275 8.629988884986128
Rh 5.031915706532561 6.816170516046218 9.762888878870982
Rh 6.123732146008713 4.623162828231135 10.586168010828196
