27
Energy = -153.451704 eV
Rh 9.542102130396337 9.279539827308602 7.626450041432219
Rh 9.259198373561173 4.468966182627691 9.324915458700339
Rh 9.84401105031151 6.931382974118998 8.662057559470096
Rh 7.704024153651985 6.414933463567632 10.0626318880411
Rh 7.33836053152047 8.668960236059174 8.635165166432474
Rh 9.303588485662901 7.372995055519425 5.9337482705539815
Rh 9.729440418758998 4.987154268699982 6.926303456213262
Rh 8.323305034443894 9.625172885644837 5.510986713444886
Rh 4.651815298985098 8.921236335645183 8.223863095694725
Rh 7.68362557757484 6.48264981816184 7.49371489988317
Rh 5.42614976227186 6.673430630830377 8.800611654796981
Rh 6.799558176572051 4.415363938286687 8.709389373843567
Rh 6.284213387997694 8.765958645258321 6.346749250708166
Rh 5.854972206410414 2.5357765210838146 7.355869613235162
Rh 7.333721580015462 4.255131728539316 6.194590764578662
Rh 5.620065312213679 6.197959756999603 6.139049947134766
Rh 7.41875596114354 9.68471862009953 3.271549798468795
Rh 8.7073046581809 5.359442089742882 4.4782508916999095
Rh 5.2706519559560165 8.856890447179866 3.92545168255825
Rh 3.0168685051854545 6.820219884324072 8.06078583713309
Rh 3.8779115375626687 7.997022446642772 5.938911897923422
Rh 4.313031671595039 4.555051848644927 7.810544491387922
Rh 7.273886416870314 7.378257564152629 4.304264659433701
Rh 4.868096072564372 3.807181749107318 5.415076744057495
Rh 5.879148989355927 5.3848375363387575 3.7385419339854327
Rh 3.0483992234835333 5.587476804020945 5.7481120183534
Rh 3.887232055742199 6.831727269383771 3.6218514188241837
