20
Energy = -111.11965826 eV
Rh 6.690388292248137 7.818646826187936 4.23335840764395
Rh 5.454888345723184 5.387976192206003 4.65855660866763
Rh 8.038411104048432 5.707553119775885 4.7842360245179085
Rh 8.024992862493349 10.03121102810504 4.717855674612425
Rh 9.154631244330847 7.940857456013256 5.483679651692001
Rh 6.953483445278251 7.322549753975802 6.707075467568732
Rh 9.190916963095907 5.913158350233715 7.108539463446683
Rh 4.641901657450308 7.438702783467521 5.8742273452403255
Rh 5.889707011525795 9.647441676064114 5.918314986526987
Rh 6.780061420470962 4.771619259421358 6.752138507210278
Rh 4.278219275849588 5.16947355312086 7.070483003749858
Rh 5.862915859963642 8.897399503882392 8.456805820436633
Rh 8.11508541484013 9.599098597984906 7.266460077028573
Rh 10.169894301920808 8.147191700765053 7.800639299180908
Rh 7.854730443001606 4.944665970561943 9.101568637399861
Rh 3.68171578679147 7.554446790206286 8.110186178790647
Rh 5.625918904542687 3.8256561280838954 8.821256917531743
Rh 8.035488571821963 7.591851168737618 9.0509062713478
Rh 5.730046451205024 6.354913041535324 8.86588231160523
Rh 10.049968172081506 6.158952628354324 9.44119487448575
