29
Energy = -166.46432224 eV
Rh 6.322876605972194 1.9079095270837962 5.420190332525651
Rh 5.261214254040265 2.569967286844029 7.88129009376402
Rh 7.65583445107496 2.959450494797788 7.352649547140956
Rh 4.3104543376879745 3.4485367207440567 5.769320979638252
Rh 9.440745865966973 3.5856804731605725 5.684324254934469
Rh 5.473330961678141 3.4656877493383416 3.4185541009155007
Rh 6.459695148929036 4.6681420847823825 8.868424971588311
Rh 4.073376316934461 4.883960404091758 7.8870554689359125
Rh 6.761442962132826 4.402573782244449 5.447712001547832
Rh 8.084896854823096 3.5137133221232166 3.4931018031610903
Rh 2.983348552817172 4.178806952764811 3.6746735269988715
Rh 8.483875732259188 5.364485102296284 7.269954752993739
Rh 2.412303160951009 5.205928452822371 6.001785424645911
Rh 8.738453120697537 5.843699461368695 4.734237697370029
Rh 6.019080224286337 6.252231677027421 6.942198743668274
Rh 6.694495551952012 5.711225119265263 3.181185122599806
Rh 4.430078789968195 5.379600226286729 1.9206311541450771
Rh 4.5990804119633895 5.884067058136983 4.788813413740881
Rh 7.67330214788494 7.979940841150894 3.7616946922177115
Rh 1.4717848700546463 7.3914285610844335 5.476875109017355
Rh 3.7238764364831196 7.473839136082144 6.858384363671127
Rh 5.726691233878004 8.26569529563474 5.318285312041945
Rh 7.962734061416293 7.76598555007783 6.342626148848165
Rh 4.893628619691497 6.8478806339414975 9.214973409144473
Rh 7.516912610960084 7.099158515659072 8.847396117588621
Rh 2.7042870274532675 6.749970220934389 3.3276934738718356
Rh 5.11653573569288 7.698015818681546 2.9327246011505608
Rh 5.863685607985465 8.848287972883261 7.801802920619689
Rh 3.373253754383757 8.806439509500079 4.625704086469681
