21
Energy = -115.73873269 eV
Rh 7.044506928033414 3.036983580062984 5.499446046751587
Rh 3.395906322277289 4.794819755662934 8.037185153641577
Rh 3.0561246478971777 7.545575484938376 7.989270010018936
Rh 8.042734622018981 7.592197506619017 8.188283569171737
Rh 7.128827559975976 6.725390625371632 2.873376933867522
Rh 9.431208083668867 8.596943596212695 6.378906336580087
Rh 6.753988480583556 5.567562525446826 9.007292690206619
Rh 5.572287847621184 7.49353634764789 7.670328423251882
Rh 6.963309450749241 9.466201628793458 6.873182610757468
Rh 5.6031126118555665 4.550986555057779 6.916694879013418
Rh 9.360257899828406 5.626911387676938 8.86687838943868
Rh 8.036830611567163 4.070022099959444 7.483021924466071
Rh 4.524019514402744 6.267639925968871 9.64390447237481
Rh 4.330739781132811 9.655332552224863 7.302262209609906
Rh 3.9256566262603396 6.270723884446131 6.046683270687918
Rh 7.64016381525338 8.39744930349668 4.671921595736464
Rh 6.330579274398733 6.322326333921805 5.271930235046813
Rh 8.767828393250408 6.10749266244773 6.267491649139506
Rh 5.137144645587622 8.548815990148618 5.26828999784529
Rh 7.961950149739457 4.817337198583206 4.226174257746521
Rh 9.50070598012826 6.875593874205369 4.034147785105817
