27
Energy = -152.55057613 eV
Rh 4.94500874956097 2.0424733917754705 4.487967180853194
Rh 5.2950028132225695 4.3997043791135 3.6941805956733242
Rh 3.8479069842283633 6.146817310934603 4.769314324021132
Rh 4.008567784786413 3.8165540640784084 5.941660453300688
Rh 4.376785564168252 8.639550659086044 4.546648117870966
Rh 5.982368737361442 6.890426575456244 3.531186172182363
Rh 8.285415732831678 7.910687066817868 3.3378074089787253
Rh 6.507047714139515 3.490061625582833 5.7695368638993125
Rh 6.184629592720399 9.286185382826579 2.874438090932686
Rh 7.691035824041997 5.107265541220724 4.18983672523469
Rh 2.5629822231627 7.895012810705375 6.164766074008828
Rh 3.7978531874801256 5.991757867859763 7.2460634575101555
Rh 9.870476799527962 5.909339351684959 3.617387452413304
Rh 6.1847757090514515 6.217302077676683 6.097562571543075
Rh 10.651528292402796 5.413132165586592 5.912462699647256
Rh 3.1217492515535943 7.7751183157332155 8.862280431950584
Rh 8.37946958563637 4.816049936519002 6.759212258585005
Rh 5.6908310708232435 4.371062631363335 8.01144170660314
Rh 3.6351271140859307 5.27099877394546 9.639853078634262
Rh 8.788299334812127 7.174110068863227 5.674303488202455
Rh 7.416106494818671 7.970063358900055 7.710406149530877
Rh 6.856939854299595 8.801645489966988 5.341364371548461
Rh 4.9356648020907254 8.448263146056677 7.040683888993934
Rh 9.741287869366104 6.655003224523827 7.98322631531421
Rh 5.525805378108914 6.89753289246662 9.041445286554778
Rh 7.750535535584002 5.714286202684613 9.078109201638812
Rh 5.961004399509015 4.865436334315501 10.531703089402475
