28
Energy = -159.74917552 eV
Rh 7.59339065546124 4.508364502850855 6.414935581236159
Rh 9.365611720452103 8.720128439765992 4.953504098511536
Rh 7.81360109210469 10.904538648565785 8.538414807990128
Rh 10.055992568064012 4.920726709180426 7.332610972917433
Rh 6.6807406655009105 8.18347463623135 11.774580685586471
Rh 5.864258058635957 6.464109640149499 6.267158353913047
Rh 9.626881498233683 9.203924852770498 7.570964643674293
Rh 9.607101115856624 5.579434898244223 4.848909309856964
Rh 6.388479975798539 10.408467177024246 10.524201326813087
Rh 5.440798253346621 9.816066376574566 8.242176548453697
Rh 5.494486766188986 4.785064216974812 8.103068377966908
Rh 7.293625937664981 9.43058950059909 6.519362019174298
Rh 5.939232715683446 6.293091482269204 10.197933959518197
Rh 10.98955709721528 7.199948263138661 6.4081020713534365
Rh 4.589663973156947 8.489758611263884 10.271638783026676
Rh 8.796425795658392 7.170938123715206 3.022774578222889
Rh 9.956623839455238 6.982089353520833 8.892967764064839
Rh 8.449736745113158 6.987894282952614 6.634238444031182
Rh 8.374896282524595 8.80394940917 9.839140598876966
Rh 6.791070784295474 7.755313276932285 8.397784363027316
Rh 8.397167999110309 6.5452868942965345 11.027651860840823
Rh 11.248817120848349 7.35300737728755 3.884564437374294
Rh 6.863371982438759 8.055219059936615 4.449764826535543
Rh 7.873088709793364 5.4546502537066575 8.76861484256142
Rh 4.299911743976728 7.1794715552138575 8.193718373791011
Rh 4.793937409900176 9.751093693621728 12.306957827569741
Rh 4.879175411989051 8.763422987660286 5.95094626322204
Rh 7.155512289856573 5.551846171123155 4.1122574087340995
