22
Energy = -122.72062657 eV
Rh 4.5660867292745895 5.8115525731317135 8.718394348622212
Rh 8.38924630406806 7.528440597604279 6.950739122975786
Rh 4.787919367884837 5.556999386601907 4.561180613723443
Rh 6.383038284641646 3.7942272666629724 5.385534507957964
Rh 5.539414135322226 7.5498815914073 10.302899546430892
Rh 6.276868214337465 3.9568379363560724 8.003164846080683
Rh 6.12945546612038 8.29561067761533 7.9259951543116935
Rh 8.528879820413382 4.93627512422233 6.4130496853832595
Rh 8.541765887200533 4.248097769343738 4.076925226769038
Rh 8.652732115851501 4.3037804164184035 8.711138296388157
Rh 3.666805218116769 6.80327730741462 6.501843497157926
Rh 6.367691911867491 4.443333033943417 2.837576655617342
Rh 4.327498947966479 9.251042115467898 6.419187932689321
Rh 6.187049802497854 6.086906442019664 6.61910717954282
Rh 4.122347982269451 4.240984236837534 6.692546624395954
Rh 3.6939349134010007 8.23706996002958 8.6607745710123
Rh 8.35043945734063 6.673256103435809 4.524720789589011
Rh 8.3415571533175 5.8796447327961125 2.1049520540476907
Rh 4.211924120810452 7.989479537828651 4.206027564564183
Rh 7.220074268693811 6.233121768631423 9.063794288468701
Rh 6.303489865576688 6.9812912688432895 3.0544671758738327
Rh 6.447680475865276 8.203502338693905 5.334308531232291
