29
Energy = -163.70206625 eV
Rh 8.534740879285971 6.878011328473018 3.7772918219920855
Rh 5.268941368524487 8.629890557096385 10.310611726653873
Rh 8.903491188112477 3.6018302136373777 7.539734577256732
Rh 7.694164193454278 9.114310682242682 6.383350914086857
Rh 7.6751187933757965 5.196544139399105 8.761731464667973
Rh 4.454993888885812 3.2749267070009234 6.802125248867723
Rh 3.9301950968372847 6.632629057693576 7.036863819170433
Rh 10.365113849235154 5.183367375917693 4.008234352101681
Rh 3.9567398952423525 7.573317709131173 4.673301030662625
Rh 6.063942166990595 4.041150838114623 5.181156610802687
Rh 6.067183936001392 6.294017272387312 10.336587525573897
Rh 11.696327724783954 6.854933919898005 5.157520545014575
Rh 5.253796749970879 9.56194277218505 5.485750706925648
Rh 3.6413921013047776 4.9770742534615495 5.258217609389901
Rh 3.230530577271082 7.7337579061025234 9.126620045900035
Rh 9.772510338215136 8.305951946924534 5.241227075621251
Rh 7.597499439660516 4.589192395378085 3.1833979852517538
Rh 8.387059404609115 4.882105370852438 5.525952552629948
Rh 7.015875221451432 7.763285551731596 8.570449945574227
Rh 2.8223941829331984 8.898263158415432 6.557063649217021
Rh 3.6603366324275743 5.708550521124608 10.324923604397805
Rh 4.97474737247091 8.926473957427572 7.791571375752957
Rh 4.962832483218707 4.873547984261639 8.464993652806772
Rh 3.006306001201169 5.791988752299607 3.0726927488467806
Rh 6.401137645843078 6.045769253165154 6.7435226193520315
Rh 5.4237796820576465 5.760799390077329 3.336169627953752
Rh 10.590557516204436 5.257650268169295 6.702297862836723
Rh 8.835339062514311 6.89739221250835 7.0862858539580404
Rh 6.488099804427935 7.546479856063967 4.817418312979479
