22
Energy = -122.00247778 eV
Rh 7.975490417357029 4.370336364358579 7.889058364224073
Rh 9.354117852283245 5.020412462222714 5.727619818705621
Rh 6.9780196500654625 3.335479459214562 5.499089118082646
Rh 5.412521920312214 4.083178721102846 7.484827961941208
Rh 8.801033656015418 6.789661831166547 7.509525757939394
Rh 7.760433070371428 5.059316905490915 3.710956487107596
Rh 6.315294105403056 6.294980688920316 8.495343372030595
Rh 6.871474572701473 5.764214633578262 6.069281269212718
Rh 4.481429698234364 2.8165067588620607 5.39212642218743
Rh 8.385175641396016 7.3692736939049714 4.890042071755945
Rh 5.368324088658019 4.3701448085513315 3.3973464738247983
Rh 2.7493478837213847 4.162422011136018 6.7984428115040645
Rh 2.6550415044404496 4.147093826294362 4.1480908242550285
Rh 4.466515732215734 5.420443324157733 5.4265825950947635
Rh 7.328538388346183 8.557596322277899 8.639628032276365
Rh 8.530497960945553 9.176203970129679 6.6143381592667225
Rh 4.065926619095315 6.66961647033883 7.5052472966900075
Rh 6.161903472904946 8.194289602320364 6.403158979524133
Rh 6.00961720889019 6.938096611776775 3.914960424082999
Rh 3.5559709077532053 6.450361329460411 3.180384430369975
Rh 2.0549550329407937 6.308652645777095 5.464754952322791
Rh 4.025235469669017 7.956159257904739 5.204181824562358
