21
Energy = -115.86095195 eV
Rh 7.229732345295932 5.278908159292695 9.545840506406394
Rh 8.131364555919767 6.493811528181176 7.535859178198913
Rh 7.57078213410466 3.926375478093105 7.347447495325927
Rh 9.851945724154724 7.401495580096422 5.958267050858499
Rh 7.740419480035023 3.244355092578111 4.885131433090907
Rh 8.083952576279593 8.988371033878744 7.058373973712847
Rh 7.806165406391219 7.948237087167967 4.688664694845451
Rh 3.353189076910121 3.5721337224472287 4.5635776772590395
Rh 6.571171574387469 6.680630648100618 2.9671836530886084
Rh 5.927226189130676 7.893231465579251 6.37319365793563
Rh 6.277993804731502 7.656174730091864 8.912845219670249
Rh 5.602642543030821 5.520982063791365 7.703203029502825
Rh 6.97590582495344 5.655036370895275 5.230569893100098
Rh 3.896886313378669 7.389503216332764 7.832570876259055
Rh 3.551816195649824 8.618693827868382 5.577699247497173
Rh 4.652756631123579 6.71572694233248 4.551200646816523
Rh 5.415688411374312 3.608511117624099 5.976741502964306
Rh 9.321891208497334 4.995616281337096 5.747935986237657
Rh 1.8037025376482947 7.171732892882833 6.485633489474594
Rh 3.4837916026158893 5.411995650795206 6.186313226895202
Rh 5.383072343442752 4.426617849960174 3.5502478724966626
