21
Energy = -114.45353027 eV
Rh 9.347221385099393 5.4318080416998065 8.728765351182322
Rh 4.245069539137768 7.663338871119705 3.5186940934466473
Rh 4.873149357912722 7.693652298539431 6.062875675170904
Rh 9.042448545673324 9.927318716716385 7.165982234088624
Rh 9.801379281631146 7.233914765843142 10.155227721727098
Rh 8.158261985420358 8.7163842182189 9.054325273574527
Rh 6.8608771668475725 3.8629648602982543 7.4187428921468195
Rh 6.0955764067013645 5.37576716195005 5.529887047566951
Rh 6.755160370656033 7.5725139831635095 4.275041323326
Rh 6.706268540739639 9.640281714505198 6.5850839314643945
Rh 2.923471692248509 6.172429728571506 6.666574715104127
Rh 5.3322042085111265 9.666662940016117 4.592825057285316
Rh 3.8118676117775228 5.466040855877614 4.542490406046399
Rh 8.576709792499114 7.936873326452954 5.81305686471789
Rh 6.992119985373106 7.259261226383662 7.622030823039685
Rh 8.492925780495735 5.550438595972595 6.372668075908494
Rh 9.269190545712082 3.3921100555490638 7.467917338961654
Rh 5.01207992586482 5.700768503211255 7.769583357082538
Rh 7.527770723433919 7.235111187952507 10.957861674585446
Rh 7.02360903910993 5.536687587798907 9.352862457685733
Rh 5.826803423502849 5.637456624078572 3.0073908617577434
