23
Energy = -128.28250313 eV
Rh 6.376516820583177 9.930927229974543 5.2444307519919
Rh 7.49991975561366 8.233531874879525 3.5264782769196468
Rh 7.759720320813899 10.022386299582617 7.598774713409899
Rh 9.050046690905969 9.856819133086978 5.228406747536793
Rh 5.486615295062842 8.597541768087186 7.377841636138279
Rh 5.308590986808869 7.450160462824788 4.939266062120415
Rh 3.864285073654526 6.483560024577524 7.037839097008729
Rh 4.980454841811485 4.789845994515357 5.2904929120453055
Rh 5.000694934875887 4.315666183330708 8.12177250684452
Rh 5.3396281287881635 6.719311270744101 9.313415641879756
Rh 6.2822183760878145 6.124272229517964 6.960135140238126
Rh 7.415138967633027 5.754378441294068 4.641764958371451
Rh 7.651420788251219 7.5600921851301335 8.449397535925012
Rh 6.408387473564621 9.166705151612284 9.81889546937171
Rh 7.634243451101263 7.969365382644497 5.9988125319795
Rh 9.863234779410146 8.325241912083582 7.300939457811557
Rh 9.647943958864325 7.287176650348383 4.78267583848546
Rh 9.083737045769336 9.10262060039758 9.76727551136492
Rh 8.899150856021025 5.8491175599383105 6.894200871452318
Rh 9.6797394927093 6.523748556893168 9.35052286751604
Rh 7.549464939508594 7.003438663548971 10.875094126165612
Rh 7.446742309506281 5.023749587770898 9.014003328241502
Rh 7.130882866164895 3.8603880819675553 6.575856614456412
