29
Energy = -166.93053598 eV
Rh 6.757949236080409 2.6518110028384414 4.361508898855962
Rh 9.05190265759029 3.839670102263729 4.625286336533503
Rh 9.966217253771314 4.668922044526099 6.798271744397792
Rh 7.202051155495617 4.764202933013252 3.035614024692236
Rh 7.541282382363201 3.3433528659877223 6.69953421966025
Rh 4.7514854831683415 4.032543441761768 3.2617194337877344
Rh 9.571215851355808 5.666697136397121 2.941147878411733
Rh 5.1923712414862955 4.063951472140855 5.786987536430255
Rh 7.306266968527471 5.513941219145854 5.437938155120264
Rh 5.329965878553899 6.381877714643733 3.9388255827154315
Rh 9.492837138158404 6.705373425616151 5.237220866988821
Rh 7.689177060816227 7.303159114291018 3.4626776873603515
Rh 8.45791077621583 4.336755628818712 8.870818588805564
Rh 6.108116663623997 4.9697026691292745 8.082249909388644
Rh 8.375027667336845 6.528989496524127 7.530715929877562
Rh 3.6426066017859586 5.419325482576161 7.410770625441723
Rh 7.304543492095241 6.434826351895045 9.85986113281897
Rh 3.1589563084517422 5.321868425954683 4.847154707197484
Rh 7.453432855843224 8.367509066511868 5.838988310593846
Rh 5.68928358831717 8.867678624292514 4.032807200026569
Rh 5.460466551079152 6.95144334874678 6.564474158004398
Rh 3.5646366326441905 7.882790967101936 5.06559966778285
Rh 4.823080801604179 6.901585355097482 9.244800589038634
Rh 6.806580834343664 8.426291977372657 8.31901398664575
Rh 1.6562806234416148 6.704952025557086 6.275959498308726
Rh 5.248384845796131 9.526029277006982 6.530107707608434
Rh 6.19370930023717 8.44042017466001 10.803912323026148
Rh 3.2246916024350494 8.085017149923482 7.604566956151226
Rh 4.599214181703228 9.499299451401702 9.060555607198223
