26
Energy = -146.75317542 eV
Rh 8.795230503248135 6.527563326564984 6.531534243353511
Rh 10.673376832367053 6.976429374792195 8.173925493283656
Rh 9.366742587790458 6.254553650954276 4.117816634590543
Rh 10.740678854304678 7.923988941348798 5.698988239943109
Rh 6.779177576217252 5.021558046713111 7.326223528068191
Rh 10.914500773059691 5.270882011516355 6.199078632668477
Rh 8.096924407814218 6.99702238104702 9.045219442534028
Rh 8.122247440801875 8.491075706898453 4.907561225388318
Rh 9.037029498561362 8.997256575242035 7.4674050517111406
Rh 6.782213606210477 7.84929108250658 7.00268091038883
Rh 6.78170518114598 9.322042747721376 8.976475099694175
Rh 5.439687978974438 8.493041183301866 4.9065308727614925
Rh 6.78249103098086 10.239702301680213 6.430634119874163
Rh 4.523535288479702 8.992433648145267 7.465659604155887
Rh 6.779788308979601 6.153413423851982 4.801989379265762
Rh 5.46514649585018 6.98956605291659 9.045109311819312
Rh 8.472316046491898 4.22941211456906 5.5743756651880005
Rh 5.08439995137569 4.234863179735359 5.57358086723219
Rh 4.7670917314063015 6.525383965678911 6.530918787061846
Rh 4.195191557639923 6.251682749529527 4.120472424333871
Rh 6.777969258600683 4.910850907446696 9.763240661544009
Rh 9.189961687881924 4.733776285213764 8.277320411825212
Rh 2.8211197671675126 7.922041959445626 5.700258525329378
Rh 4.372046931677978 4.731258786323092 8.27672142432472
Rh 2.883874044191249 6.978546574465797 8.174452541257207
Rh 2.6431176992495677 5.269928291937986 6.19939201923092
