27
Energy = -154.02192955 eV
Rh 9.249080311877488 3.758615868388915 6.5662653145914085
Rh 7.285438836978556 3.9312471022512714 7.893742522735255
Rh 7.733587690262137 6.578163345479827 7.568163471314568
Rh 9.994404981389053 6.114229072398428 6.609441173708126
Rh 9.491013717556365 5.00708129169753 4.274826006844103
Rh 5.892337654878452 5.597834081267465 9.136158843607923
Rh 7.102164553769901 5.076173256535112 5.539826719233911
Rh 6.039079961036097 2.775117171072734 5.895231529916026
Rh 5.816672102337622 8.045817868504699 8.432020694470884
Rh 4.676401610794573 3.7117518105115295 7.751718054251826
Rh 8.407676558544077 7.23604195908845 5.03556937164446
Rh 3.5676439346906514 6.808710297396243 8.924260835760816
Rh 8.111742936146973 2.7717607646339983 4.530470757874112
Rh 6.2320913061834355 8.152909264571848 5.951423066404757
Rh 2.5868508761020106 5.005731078328108 7.343499644441679
Rh 4.9638755351037425 6.071645811001308 6.781061030556752
Rh 8.36681448486376 3.762815372088227 2.26480696955081
Rh 3.803787219348091 8.512459356110114 6.951439970557783
Rh 5.9786990746790805 3.874233118668018 3.4888839888102674
Rh 4.009852399087089 4.2545906125618425 5.215981057478801
Rh 6.614660469413822 8.281100675074185 3.477384911906855
Rh 1.5956257230441193 7.30979321381609 7.392016855751541
Rh 7.460575440383993 5.9382466298010765 2.953739955564361
Rh 4.21318623498352 8.60578154947831 4.415605316826066
Rh 5.178760380414003 6.274650874533814 4.13589933120752
Rh 1.9185150835944962 8.92718605389797 5.353070622518248
Rh 2.8411033085623547 6.572663597058617 5.285775058658962
