20
Energy = -109.64032394 eV
Rh 8.752720670036485 9.688809528319531 7.21039756806212
Rh 8.21379820824036 8.46400547826575 9.528364585890332
Rh 6.398031209316346 9.327839874469952 8.009380790641867
Rh 5.520999907355848 7.8926104005932505 9.856943520028164
Rh 8.61885586143184 8.088760564386405 5.2044085894966585
Rh 9.262902209056676 7.217826488775078 7.557905402838612
Rh 7.249817942404132 6.140383228550818 9.176953308632433
Rh 4.462324266289006 7.566169413879264 7.5285904369319425
Rh 6.865226828176558 7.154475621017768 6.924915716674214
Rh 6.493548533019436 9.324055052230674 5.446438659752305
Rh 4.786455650803588 5.56789072403772 8.969766456330854
Rh 6.452078744603341 3.7784872564931 8.453077566438049
Rh 8.0808322612462 4.88449583205251 6.957769520447794
Rh 5.169067686856673 7.235316343610256 4.955048902994287
Rh 7.291866880286493 5.891234569071738 4.664938763819586
Rh 5.39039674371919 5.069319867586184 6.486504246213079
Rh 9.7368571066701 5.857846414542748 5.379878129579599
Rh 4.11769796071768 5.881422951927831 3.3511707472067096
Rh 6.152764921038297 4.5674979356390475 3.0801474921869945
Rh 4.4529542128957615 3.86409296635953 4.718490824136607
