28
Energy = -160.06224619 eV
Rh 11.10834174394661 7.65910399047841 6.891402591243599
Rh 7.737606523783867 6.017892615954375 3.599804254231984
Rh 3.573883040961599 6.8423130529861025 6.321067744531399
Rh 5.624860096076167 6.797786619780135 10.230945736115991
Rh 10.00292697044799 5.7768019282141445 7.958035057328286
Rh 5.457899930199643 5.848457728750242 5.178272312820619
Rh 5.493922230149518 7.519861767499702 3.3698518933335717
Rh 3.2109608450160656 5.259323295976035 4.2457184329067506
Rh 8.04539095963516 6.188298201767495 9.429345658918162
Rh 7.960490984376608 3.9039677994722637 7.711128868864107
Rh 7.245850059898357 8.611829467500081 9.429972597599214
Rh 6.180844865386332 4.373974777113421 9.467360154151745
Rh 4.547988200314529 3.1133513067186867 4.705042942364499
Rh 6.636338741245837 6.11329051093877 7.4110210205961895
Rh 5.243771981333361 8.038279290343716 7.960392403048648
Rh 5.403810309758489 3.8882571785614726 6.924398153756556
Rh 8.632944992016608 5.55601155897459 5.929221692318569
Rh 8.67089373981699 7.96408486071931 7.477664739865573
Rh 7.1603956242224065 7.809152226973961 5.311008424407898
Rh 4.8915763639873955 8.902554022580208 5.55170937726268
Rh 3.084941161180827 7.858290519167657 3.9989703227255613
Rh 6.885448946627766 9.686309306367871 7.004505806502217
Rh 7.1113780166636875 3.8083362989027423 4.9623530451112
Rh 2.936711569411159 4.315288530688865 6.561869941297241
Rh 4.209278074982838 5.63635366345869 8.433296820004248
Rh 9.629575332982515 7.61817192891865 4.971242790420056
Rh 3.7752109561395213 6.249306649524985 2.0598645550372137
Rh 5.568878446917417 4.675471609146522 2.936653370715179
