20
Energy = -109.88080238 eV
Rh 5.534253120910366 9.089956742564357 9.526743605177684
Rh 7.480091922731333 9.27457004008706 7.880533052267914
Rh 9.726971336212841 9.38374005679665 6.992736844270601
Rh 5.043080876992023 9.412544966408504 7.0414547357242645
Rh 9.139897103945971 7.089022601009533 7.648132700283322
Rh 6.722537250041037 8.095260719540812 5.8316542676818495
Rh 8.877603390676613 8.853928120354373 4.804049966028767
Rh 6.898819986283641 8.875894304534 3.4057278364614496
Rh 4.8426840616576605 7.129973309532548 8.009109506487688
Rh 6.719206840911679 6.495465311706886 3.612884501787818
Rh 5.126628136368143 6.107808208103605 5.432400557102207
Rh 9.361142680948522 4.693494338630409 6.744040731760309
Rh 7.03342408201819 7.168681397544516 9.265158913895164
Rh 3.43429511436444 5.346954702549449 6.95498548820544
Rh 8.67482327739171 6.494039082146238 5.159211907533106
Rh 8.494203782319714 5.093573701499883 9.068638774324585
Rh 6.905263253584369 5.600755035085479 7.1028637665224394
Rh 7.23030536698038 4.381907946448304 4.952160191876901
Rh 5.156167320421635 4.637833197389695 8.486522603558711
Rh 6.4508615784015 5.055898911033133 10.447094646313548
