21
Energy = -115.15155491 eV
Rh 9.4153254338553 6.163648579000277 3.9055742760711625
Rh 7.303246198500318 5.7699344392531 2.531588263361775
Rh 7.503620637818888 4.972221070542466 4.980743513545061
Rh 7.898821556777547 8.140897171758283 3.5009920057689556
Rh 5.556895685665324 3.4939808693599366 5.698637751814035
Rh 7.678406631209562 3.8700336581870878 7.141339883918038
Rh 6.274531074649638 3.6267029396699964 3.205906973948889
Rh 5.8278099711092795 6.863284349104775 4.193177725773205
Rh 8.232561852922107 7.247270821838431 5.873662253037939
Rh 4.314135502987231 4.878833148442715 4.038520812652648
Rh 8.066763985411752 7.597717243670928 10.077495282665227
Rh 5.475623058538094 4.911284072959435 7.8868654191759155
Rh 3.384659399347985 4.630955500686935 6.482741837045386
Rh 6.5077229127256535 9.111758026729706 5.471588754186592
Rh 5.743876421885297 7.047030032461718 6.7202702300144725
Rh 3.607512891344773 6.917482277615679 5.523613264946288
Rh 7.373595685983168 8.579012140872177 7.9000394082798575
Rh 7.899287364527773 6.087498043718067 8.163522013309722
Rh 3.53731403180213 6.595972254776786 8.047876619012825
Rh 5.778629087788762 7.132302147153991 9.380218045303424
Rh 3.637931111210019 7.238475259828613 10.338083221606192
