22
Energy = -121.944594 eV
Rh 2.584069612781487 8.002744804615624 6.411807029958983
Rh 4.115870180527574 8.669008848403164 8.518968710701541
Rh 4.780795913059734 9.389918349964422 6.015886579300339
Rh 3.0317663257484893 6.230456736106233 8.33196063467254
Rh 3.2806989349451774 5.354912890673682 5.753106438760629
Rh 4.129407660614299 7.5031291633904775 4.39174781464235
Rh 4.905328790156722 6.970514508895668 6.748855224313559
Rh 6.8159474994616716 8.256102339453268 7.7273538533929385
Rh 4.991184670877801 4.559827904793479 7.714649221097928
Rh 6.662314056223089 7.92912108761403 5.069377265826427
Rh 5.456961499534207 6.602994663205942 9.217276088487546
Rh 5.301910377485615 5.434825732851686 3.7063363993504583
Rh 7.550804935777329 5.57038305596794 8.14483814150984
Rh 6.656036982136376 5.447483776405133 5.8494108483474765
Rh 4.9136288784748645 3.490898027421955 5.372956079493616
Rh 8.639162320876327 7.06767085480422 6.372648998253994
Rh 7.748111414558298 6.125554857185339 3.6472669028281146
Rh 7.0325315578817476 3.193050660564997 6.906818106125323
Rh 7.239601953450704 3.531257315891794 4.281700772405555
Rh 9.078195704026587 4.524818288341703 6.099784320684659
Rh 10.18483955492727 6.303166392500121 4.658749716379989
Rh 9.470744118478423 4.25498760254365 3.518681587893888
