29
Energy = -166.81470854 eV
Rh 6.719620933770311 2.4670742194461903 5.91769040135545
Rh 8.227106120854595 3.8070612548239775 4.128494320816326
Rh 6.292728692765325 3.4552491211671437 8.240016740594404
Rh 7.87340297718089 4.713569953440473 6.5399705190258794
Rh 9.247464372228206 6.073762018106251 4.7421597387421075
Rh 7.133341745683998 4.928788893814495 2.0654747274348626
Rh 7.319065009950901 5.738444046509464 8.893996888016657
Rh 8.846570482961216 7.091902269820755 7.087678317438747
Rh 4.156542498208736 2.284199400731568 5.592625029646714
Rh 5.63239478376539 3.549931835590124 3.778849193243792
Rh 4.771371587848217 5.783397060047884 2.682206833737032
Rh 5.23348143023925 4.612506785558826 6.192839378852099
Rh 6.686312258480156 5.902245370548432 4.471465853806493
Rh 3.726881782059361 3.1869214120628846 7.854619688259366
Rh 8.155358174444325 7.110766121176548 2.61500499296664
Rh 6.2818997693058725 6.9430075649079 6.866262456935505
Rh 2.859019329946867 5.409615036692492 6.808475648409396
Rh 8.283975725191969 8.033066216128335 9.376118188191265
Rh 5.81853317431419 8.032886778782546 3.3072108059878333
Rh 4.234626920625493 6.785620752310767 5.018050250924179
Rh 3.2561002724361567 4.440283202326089 4.475549215082506
Rh 7.814552791494633 8.25943709503001 5.005989465553776
Rh 4.736138274554947 5.533453282099279 8.645528439312256
Rh 5.415133417793244 9.04273886760029 5.650421211996148
Rh 5.7477553425222006 7.7972135994553815 9.298042242172215
Rh 3.888125981791967 7.690044405685341 7.456510921641596
Rh 7.413211417391668 9.272145013951663 7.328803277413031
Rh 5.036531842539998 9.879951534962652 8.01354485592776
Rh 6.868291922305484 10.086095531041723 9.724393020839218
