27
Energy = -153.21863608 eV
Rh 8.66142620646679 5.4576709987577114 6.199588673192242
Rh 7.372623076629152 4.968632312334934 10.028144695401618
Rh 6.850852791699566 3.1992237019862 8.329353997373117
Rh 7.973714041005773 7.002018360379874 4.197313945109086
Rh 8.312972504846593 2.902882006165697 6.163672695077499
Rh 4.8769622271251984 4.360526533765015 9.462831248508175
Rh 7.2599555600942764 7.608236839190808 6.577448477538607
Rh 5.981423445053214 6.520758289637931 8.554333601217989
Rh 4.400480272193846 3.0735600287040623 7.328247521031831
Rh 4.072204836498607 4.36431704595715 5.117756229500719
Rh 3.798137552861259 5.621454287673497 7.407446986269127
Rh 6.236560929199055 4.958430292034342 6.680966548224254
Rh 9.143520675521213 4.16146285558909 8.30803468644703
Rh 6.200802692563517 8.945332483879664 4.781257866873682
Rh 5.953718960480754 2.679968267154941 5.305111979451386
Rh 2.971466910902115 6.770531998739022 5.202861951792669
Rh 7.303850185392723 4.514395473602494 4.200880171648699
Rh 3.5854295292908223 9.164642302961619 4.67071836074437
Rh 5.485705433286858 6.49633190065227 4.729228263543634
Rh 8.5634907490594 6.670165450430862 8.482255121634296
Rh 4.6700989026150515 7.919572225166008 6.703240072639696
Rh 5.1603125702955355 3.7975877371992333 2.893013231701869
Rh 3.098173497205518 5.286115180452866 3.094680119857029
Rh 6.341701033290547 5.994614396009582 2.4273330016660264
Rh 2.3616416936717304 7.6361368880612375 2.867084164661631
Rh 4.816510864828149 8.067331132517488 2.784653875402959
Rh 4.206368741913421 6.253238233868356 1.1701214174491488
