26
Energy = -145.15094807 eV
Rh 5.070680646041359 5.2988723581825345 10.174496708013926
Rh 8.240455118430997 8.712179052640076 6.940620431070738
Rh 6.262268728778743 7.287153408312099 10.685764054364702
Rh 9.329280070798 10.851773437132508 4.088305093745095
Rh 7.445132855924415 9.201441360278759 4.570972377373806
Rh 9.599993993688255 6.624524863322973 6.486041656043981
Rh 5.345821302569927 5.870962878536672 7.856285949248067
Rh 7.494963500428409 5.1407970034543835 6.534545639199047
Rh 7.686513478566701 6.751050043714213 8.601779717063032
Rh 10.188954849615065 7.011684043788102 9.00090448636274
Rh 9.46540183086923 4.631840887486214 8.154849346154496
Rh 7.052168231810039 4.261520849105714 9.005389208834297
Rh 6.321360306456486 7.365201909239093 6.043397005977241
Rh 8.751949865038677 5.454982306830479 10.528737512634784
Rh 8.157794987156873 6.653717679366912 4.40550837047349
Rh 5.544969808906498 9.824603459216945 6.198193735165165
Rh 7.0728245029327 9.760830883278114 10.271240170178839
Rh 7.362543105354107 11.584154775313547 5.50983350496099
Rh 9.97339217704195 8.599847438117349 4.886310118429111
Rh 10.96454600684235 8.712747881326061 7.267494809710337
Rh 3.5701013435306614 4.165524324581214 11.366792219699139
Rh 7.148613670012309 10.807282686473503 7.905611126769427
Rh 8.691994160403928 7.948384082881479 10.848830617461863
Rh 5.85905539361812 8.50126076677182 8.41575614827922
Rh 9.490526324166918 10.860735167998268 6.700549141649158
Rh 9.30629693801133 9.616482879856918 9.017080288758248
