27
Energy = -154.18216529 eV
Rh 9.019971865414929 9.182665617401447 4.160888636812124
Rh 9.800039754548438 6.771870770741246 4.358779329831321
Rh 7.617519958131009 7.1975128051555455 3.054255886803549
Rh 6.543329183108658 9.307667339832776 3.9755993245957386
Rh 7.3390312304013285 10.12198967596599 6.203211639773536
Rh 8.801559216498596 7.941079868025734 6.391916854317342
Rh 7.852292613354159 5.095257746271886 4.60152069804747
Rh 6.675845646780919 7.076626820205691 5.53754208339151
Rh 5.016657339816627 7.260330899031589 3.7748903146592565
Rh 9.523241796911199 5.378322694182912 6.498752654826775
Rh 4.922631852594479 8.980390411069719 5.874639753645365
Rh 6.015056802315598 5.092997663294078 2.8607752953498555
Rh 6.599830732850544 8.36496767143378 7.847501488723236
Rh 7.529283983517994 6.02204105009842 7.873145692977853
Rh 7.623099501204988 3.7260798374745074 6.851254264756751
Rh 6.031086300036916 3.263455351554569 4.778136503557602
Rh 2.997376204372658 7.248530161992454 5.377337086143722
Rh 4.021712784665595 5.078069612776402 4.498845074172862
Rh 5.795096079338774 6.666611526129079 9.561034199280808
Rh 5.387195055081686 5.116919189876376 6.504840239542597
Rh 4.297943768612439 7.098247725643101 7.542454646770584
Rh 5.786678374177839 2.024615627276813 7.158917307899162
Rh 5.740279102698516 4.136168161206027 8.717465965469293
Rh 3.818835496892504 2.9771308212530494 5.950601086025207
Rh 2.752969520263581 5.082638326020472 6.896067261646489
Rh 3.5855472566980695 5.368350807150109 9.306885157829974
Rh 3.4751951549555407 2.988768394180456 8.41204812839392
