22
Energy = -121.43560252 eV
Rh 3.3527543929812333 8.735026702837576 7.533114107000886
Rh 4.151405985609823 7.732171561721735 9.61671025889896
Rh 4.85699829738095 4.9864797384147455 5.9343050491542515
Rh 5.286310912412815 7.4898211561503985 6.771249200090485
Rh 4.291150115496042 5.616717239582552 8.445779483044161
Rh 2.813433584023961 6.392304744490692 6.572460385363549
Rh 8.55268181099437 5.960404695324819 2.844264144792869
Rh 8.810689982252041 7.077804195275695 9.000026894916138
Rh 7.758844658430058 6.889163127137804 6.722625344722107
Rh 5.421328645338104 3.4256711182479234 7.994735455570824
Rh 10.902787126425624 6.8887326491136 7.717996319246815
Rh 2.3626060565652662 8.510120174597082 5.325626294988845
Rh 6.6822462991653415 5.688758501271858 4.362814951734883
Rh 6.854689402521609 5.43301202835312 8.679691220500224
Rh 9.850408883649974 7.461215997789139 5.623010359384555
Rh 9.192853648704151 5.224774566401749 5.099842840910564
Rh 6.476213016688663 7.950046682551279 8.938187878936372
Rh 8.783115676240389 8.22304047152573 3.6075891117305083
Rh 9.268253639291178 4.961551740510831 7.6521420809628955
Rh 7.197303298930393 4.154118563215094 6.403060693550543
Rh 4.283016023702213 7.166439146011012 4.522645035640212
Rh 6.653360723883443 8.075429340486915 4.705276822174367
