23
Energy = -126.50855211 eV
Rh 11.07519706789788 5.095040001162118 5.198828754002417
Rh 4.7168335838155935 7.274256117714973 5.655641886566065
Rh 2.8673685734496304 7.957833637767721 8.764720969783175
Rh 8.279397058774348 3.9264718986514073 8.427447075805167
Rh 7.040463309109966 10.167953933231741 6.607491083919842
Rh 6.633159409072824 4.5003634019896435 6.610847007910542
Rh 6.540178464354486 3.263209356931891 9.903115780315332
Rh 4.248793599119553 4.791359123503353 5.915486351749158
Rh 8.767257231423665 8.656319249969018 7.501255137326482
Rh 7.157864343916672 7.904744546974199 5.412162450938778
Rh 9.386940110730759 8.856509486788502 5.0380998585203285
Rh 9.135937472022013 3.9940959503563693 6.126580224834128
Rh 4.199175162523474 6.211088641295994 7.945081525553547
Rh 5.002964393193877 11.406682584706276 6.839860809632007
Rh 6.460661702242591 5.753192949848776 8.856657097246636
Rh 3.9757010697019055 9.250092309118303 7.150435779348675
Rh 6.388300581127375 5.712620427757489 4.479226864832799
Rh 6.132820228624198 8.065551815706105 7.784640922062662
Rh 4.870425010515344 3.7924847976021643 8.247378449131022
Rh 5.2238041326798985 9.654395005142673 4.939506584456227
Rh 10.602600643297999 7.175429936466696 6.402257609256869
Rh 8.8674972075769 6.167262037699194 4.6883642587045165
Rh 8.528259810312145 6.165199967056645 7.30632395747709
