39
Energy = -229.2990975 eV
Rh 7.49063834578059 10.048315575694922 5.484662523770954
Rh 5.737273139330579 7.93734701914132 8.721646131820544
Rh 9.810491243256232 9.54271157969725 6.26206742938401
Rh 5.376807012686691 9.910141135811127 6.88025368656309
Rh 8.260619908849165 7.395009126002225 9.378648028609216
Rh 8.585150527109361 7.370841895770384 6.908607217988531
Rh 9.140997080799961 9.137316595766828 3.767765863633169
Rh 3.178345074667955 9.124097972819314 5.490609949396616
Rh 3.8471478073933145 6.492540667076694 9.763579932927506
Rh 5.2393684967791545 7.562784083868298 6.055363119741901
Rh 9.980047559607973 6.977556736235244 4.876897850508339
Rh 6.646699810412635 5.881450396659233 7.534962392412717
Rh 2.636490319081822 5.357803782137572 7.7802897989680435
Rh 8.51645495545288 4.819215200353549 9.118077332685981
Rh 3.3305014048885258 7.869863750145216 7.699413285574324
Rh 6.86817959148904 3.002558259185381 9.090793806041223
Rh 6.319764212205425 5.839202590007435 10.142120800232757
Rh 5.1651738398849485 10.24311705656597 4.341908098985089
Rh 4.815025727880482 4.3906981660034745 8.689409973585837
Rh 3.119762525521671 2.8200820428696716 7.437542319250471
Rh 7.640401719899511 9.493503644897618 7.949597683796514
Rh 10.561418549091199 6.313605899541348 9.240071898245478
Rh 5.581648886135153 2.6625270559678005 6.851985293135224
Rh 4.608751588961707 4.975028953018134 6.209453215094441
Rh 2.7775464471780404 6.635511240193209 5.483019293100315
Rh 7.822536382012998 3.8126708349586593 6.8217974724094494
Rh 7.26208885873548 6.2440409900021026 5.0114005401719695
Rh 2.1170697019844966 4.2299852721633435 5.511162793428444
Rh 10.078714581756662 9.035021343919144 8.861755621608689
Rh 6.717463847199497 8.337106258231621 3.839516824342155
Rh 4.301768645244492 7.579466541326335 3.6694116200898654
Rh 9.939425250985336 5.274639361145574 6.975493837866488
Rh 4.048968071296 2.582276415717686 4.856332944220927
Rh 6.090405487961348 5.909512141150088 2.8447891143011828
Rh 8.506759604118 6.768301024920865 2.828580018398554
Rh 6.288673730851293 3.8969336651124595 4.60339796967547
Rh 11.171856413576357 7.556629371960059 7.082042292731318
Rh 3.943908027360606 4.969831984579286 3.787703948192824
Rh 9.031144535698335 4.556243282508831 4.703356990236149
