38
Energy = -223.1251151 eV
Rh 10.912830764330229 5.399046717330043 4.392424009834483
Rh 6.242618458930552 2.4421569728448134 8.187145593038153
Rh 7.389928117723671 3.3921859779378347 6.119300171309581
Rh 11.375392358205731 7.93252291211783 4.331007720812564
Rh 8.674318785097727 3.2132574663576277 8.330378105162046
Rh 8.516914471037742 4.470532918100847 3.9886329054136276
Rh 9.775436012935067 4.327326879974363 6.3249952119312285
Rh 9.051659109957782 7.054750063394912 3.81481588939677
Rh 10.08400080487767 6.859280055668617 6.328100220429317
Rh 4.957144644674591 2.6749687936934237 5.913405694928087
Rh 6.152887080142277 3.6027730269238316 3.7451958772973724
Rh 3.9298837852926014 3.4968451755026337 8.18006738894029
Rh 7.12168715028212 4.5207002963181635 9.945553581341146
Rh 6.602656576781717 6.166987461237976 3.36673821898396
Rh 6.031968739841094 4.950593813059138 7.74865219731986
Rh 9.399218490089433 9.131902611980774 5.329320481064508
Rh 7.621480625220537 5.999376253108574 5.811705065973431
Rh 8.54945941911018 5.766344915072801 8.246568743401465
Rh 3.672665643414894 2.8356514767499887 3.737799811573144
Rh 5.066394488803566 5.220296233997238 5.3579599977949055
Rh 8.062351242327493 8.14105595537381 7.324156305176001
Rh 7.011973816413636 8.362013963179212 4.797964711848911
Rh 1.6890334786061711 4.3307628278237 3.5258728965941435
Rh 4.581514378548426 5.485215826459886 9.749519899449387
Rh 2.6972014484639617 3.855191628236601 5.882769369739072
Rh 4.07681348054362 5.237636356069643 2.993926230515553
Rh 5.561388751226408 7.404997617434504 6.7842827967582995
Rh 6.576834640900156 7.13354002273928 9.208283097309517
Rh 7.451814192467284 10.426755685942565 6.297547757064543
Rh 3.4346319760923167 5.852014771643548 7.336078197396252
Rh 4.617775268653674 7.593495188041494 4.287628532775712
Rh 6.068512724995684 9.508374267803825 8.288911446849703
Rh 4.08969720820098 7.8555875423422 8.856308328802942
Rh 2.5667221017141695 6.217615539269439 4.894759790703478
Rh 5.024805145000155 9.809116311481702 5.747217375810885
Rh 3.089885847380898 8.219318821558218 6.380830783151803
Rh 5.544696450664513 11.797811045787757 7.267828322417432
Rh 3.6524928289683016 10.17088459379421 7.9086375987838
