35
Energy = -204.2772675 eV
Rh 8.5779630448178 4.825813594110062 4.868914692996315
Rh 9.159124830430885 5.964173688732867 2.612022741578064
Rh 7.800070952994852 8.087803698656655 3.126733384813065
Rh 8.07396633366825 3.5870987290178697 2.6460474466813984
Rh 8.969957357841249 6.158138516623844 7.090805151439573
Rh 6.662916093571982 5.706670535228514 3.096286528508688
Rh 9.630154050866619 7.227036823870996 4.833712663444214
Rh 6.3678606674646065 10.129853686849652 3.754322386049502
Rh 8.206149265764912 9.35235674266859 5.416249952466137
Rh 7.406309253204163 2.520626038346686 4.846099989038596
Rh 5.580426604527499 3.33525223568358 3.196762358249417
Rh 5.233302496512058 7.8425485932395365 3.6861032365382336
Rh 6.003497226023788 4.601868228736707 5.438676082881153
Rh 7.118471889988697 7.013129315456698 5.386541303078648
Rh 7.891532982366835 3.7796494752600087 7.160793028909702
Rh 4.149459063485882 5.4832213682265465 3.714379564943185
Rh 3.800767006940079 3.2885795040964974 5.116700814721701
Rh 8.260989271770601 5.100417831803291 9.346225726352296
Rh 5.6840294643990275 2.4329723209674383 6.801599639938205
Rh 7.534898486907582 8.294695188014853 7.675985272622958
Rh 6.41227224020502 5.911048019715527 7.687447829103947
Rh 5.669366759032387 9.169549705462634 6.060077515731261
Rh 4.552255319949037 6.7683311698493895 6.034879292264808
Rh 2.725874253269467 7.597257433112387 4.359161174581796
Rh 6.068369345824418 3.6877913239712936 9.021717916784574
Rh 3.835497644544795 9.905296683658833 4.376919275643447
Rh 2.4159242978435245 5.3579361832218115 5.680331751655091
Rh 4.163250812673121 4.476270499375162 7.4289302246255735
Rh 8.553232513342401 6.326590799284032 11.467432696212885
Rh 6.855127885675982 7.199034336325059 9.916969179071863
Rh 6.438885664472956 4.981276936068036 11.172959226440101
Rh 5.015543343225617 8.063618067339304 8.335081552707578
Rh 3.154424481369543 8.861150210761474 6.58458912647376
Rh 4.630164949587048 5.823226662104949 9.605721331500249
Rh 2.8359987677849294 6.676273754845675 7.9631157380382325
