31
Energy = -177.94963763 eV
Rh 5.3060890818895095 9.422269776263036 6.377709352959615
Rh 6.750051312763975 8.523463584235625 2.445924738500158
Rh 6.388658239924961 8.059063154953002 9.140017571942613
Rh 9.938492225857889 6.347084167112756 5.789707883737727
Rh 6.779792798557084 5.919331696124765 2.784401108189807
Rh 4.80902537673047 9.495954039857489 3.949461818900985
Rh 5.621205103914142 6.63403427868341 7.26756822756165
Rh 8.581801026309275 7.481545950600136 3.9518486345630626
Rh 9.424650480065905 8.909564133726422 5.906864119922052
Rh 3.7880072244849337 7.536055832617708 5.3954389271701055
Rh 4.603536969176029 7.137774853785607 2.987325810237756
Rh 7.296425127893733 9.648228745403763 4.745030174785853
Rh 7.847177351967032 5.112944884845282 4.99904307515115
Rh 4.928841214235256 5.203856846149139 4.800697917906952
Rh 5.260960800547716 10.234160254370165 8.664442027183133
Rh 6.67215026829494 3.498838418377033 3.5108074615139655
Rh 6.356011133712418 7.358530743263395 5.00214039994965
Rh 7.537506903270231 9.710794965647905 7.434133692525967
Rh 7.736482865511714 2.6200528891052306 5.821922243796661
Rh 5.157864287928479 2.661265954210265 5.2911501029101755
Rh 3.740267609910608 8.160437162250643 8.049113997529286
Rh 8.790966242506084 4.734389925877126 7.358793055880414
Rh 4.532561440510641 6.109241248278597 9.492217635644929
Rh 6.2336806121672215 4.2396666880485325 7.008935409639969
Rh 8.095440624764025 7.239603658844567 7.296538644635708
Rh 7.1190962404103635 5.574928063718595 9.141025624065225
Rh 3.2957426803190497 5.715992666077105 7.0704125312879835
Rh 5.781922768849304 1.7503532523790288 7.636170533394845
Rh 5.257717009721839 3.7512784433183106 9.410077511976485
Rh 7.756269789897638 2.9673997461384123 8.764759540711237
Rh 3.8064176274482917 3.385007027121886 7.3808902593667485
