34
Energy = -195.17490673 eV
Rh 8.374633331719068 9.964928878566932 3.386757764749479
Rh 6.912770552498091 9.906724567518912 5.450638628879691
Rh 3.1730113977699657 6.5862352855884225 3.7258933709250437
Rh 6.18105313333851 7.052750317560379 6.744488764350973
Rh 9.412670124850594 9.1078491544384 5.512915118084766
Rh 10.370774260741237 8.5458089372788 7.7158100242245355
Rh 6.178524487198892 7.852755605375508 9.318779560137258
Rh 9.79711236199276 7.894247628219718 3.3148535361323375
Rh 4.011131870707859 3.3120729699479488 7.922858157594371
Rh 7.422583603561919 7.767998292261926 4.278479804417896
Rh 7.260568668149658 5.260618453375699 5.049118143795847
Rh 8.216177922996017 5.935765996013094 2.714900743367542
Rh 2.7778773192030077 4.200402389589473 3.664867733579974
Rh 10.742036558123347 5.816381848418877 2.429550480137875
Rh 3.797761226362991 7.780360920050923 8.044981161767952
Rh 4.9633091534669544 5.625183928885848 8.503386917270257
Rh 7.5719682404325415 5.600132812561787 8.609763994957639
Rh 5.467526046949367 9.532195747899479 7.431739784218308
Rh 6.175638287747688 3.5632845891548626 9.496312618062014
Rh 6.333017018138563 3.9524318490225663 6.966232448843768
Rh 7.892526337849718 9.004768788589464 7.704682015679375
Rh 5.634936951319476 6.3013433239018575 3.353435666523203
Rh 4.853143595560675 4.536087240839427 5.008331745889134
Rh 8.875045252579236 4.355815020234008 6.80324280170908
Rh 8.851415301287892 6.842612134028576 6.576814554996912
Rh 9.816603535116796 5.551393281495239 4.650755019488263
Rh 2.4675450446549543 5.3199975194341675 8.339130320025523
Rh 4.94652646228787 8.242408523160424 4.973688721934545
Rh 7.608745746010116 7.548723021677819 11.394111669130735
Rh 2.55064860007501 4.08489922753754 6.063757145693113
Rh 3.909934700340789 4.347177050105489 10.367208718957553
Rh 6.1592442112752686 5.743865094800688 10.83369109430822
Rh 8.958236923768384 7.4597270855225455 9.42809547740991
Rh 3.528314198648739 6.342532950881242 6.13651860643303
