38
Energy = -221.3123755 eV
Rh 10.260624997616588 6.200530945671202 3.77612657056461
Rh 6.985934736141843 11.854487465835565 6.187744330397127
Rh 6.060637110036293 10.651259907631276 4.156844594241847
Rh 8.426883744471388 7.201476022771779 5.063848930480067
Rh 6.419759672897919 8.205521497930977 3.9952939816791675
Rh 8.056386915252384 9.702460968632707 5.445786073651796
Rh 10.072514504468115 8.03012120501806 6.683555998280113
Rh 10.00135210865534 5.418722923431179 6.216922303683177
Rh 7.2336966810624475 5.92694098257479 3.2275523475589027
Rh 6.548740603869179 10.808615657399024 8.415208001380254
Rh 9.102979356036064 4.1043220291459415 4.256103757855673
Rh 10.001845926370683 4.608710625167779 8.53551781543264
Rh 5.137849054941167 10.060608358483295 6.436848300201008
Rh 4.009345371300374 8.952324996319026 4.304279715683037
Rh 6.377848958787935 7.909340926999108 6.5622159578696175
Rh 8.116872332689892 9.088326447424508 7.900879040395262
Rh 4.751191315430599 5.230308988553908 3.9594975551715907
Rh 7.645867078465611 5.614617609864748 6.968233396808734
Rh 8.913092615425857 6.882710893610986 8.63906777350708
Rh 7.675532919516343 1.9840172023062432 4.354866513245187
Rh 4.736063682714499 7.200728124256084 2.536947534024155
Rh 6.846706864717184 4.227831454842475 5.020761746940498
Rh 6.331515716931678 7.487775332517004 9.065224677190423
Rh 7.826440819309917 5.338281664179902 10.189647640505953
Rh 7.7855141023084995 3.5764704424600406 8.313263004930198
Rh 5.161766592416622 5.534497014151216 6.4398310283206115
Rh 2.8437110590197445 6.660002269678866 4.5503698623819036
Rh 6.629253312459535 2.2552764642787193 6.560790225308163
Rh 2.7939009365377876 3.9439843476002383 4.789547937231673
Rh 5.018177270845239 2.666172519445535 4.396154729139105
Rh 4.519167239067916 9.209428834441686 8.733155509427828
Rh 3.856949083369592 7.80760992909745 6.5784051379886055
Rh 5.691231442662507 5.035273573199951 8.901468800691346
Rh 4.231207454297189 3.2359128030093016 6.7501488533149026
Rh 2.729709468581947 5.455295811168117 6.8669655243521674
Rh 5.496800457702573 2.513589179982798 8.82096337864173
Rh 3.8287170466507208 6.745639705177778 8.930693552204879
Rh 3.371904866537404 4.168498295306805 8.966961318884362
