39
Energy = -227.54532055 eV
Rh 8.88225787781376 5.9563965104553604 3.601821604795889
Rh 7.2090749032635735 4.0199511926905735 3.5740105786407783
Rh 6.7837572543277025 6.178422285428217 2.156656950572498
Rh 10.235255974179076 8.281089557239598 4.0158537262723275
Rh 4.9446145780893636 4.375869285349674 2.4079607881030536
Rh 8.825259469683374 4.251584708306586 5.649549434142968
Rh 5.032077055717826 2.7888854562828738 4.3103519412930025
Rh 9.418919819427874 6.804941844347614 5.915509584660524
Rh 7.282831780857677 2.2185013010838994 5.40207614073852
Rh 9.2290162460359 5.350610539304151 7.989181081835346
Rh 7.964468278704772 8.283015568970448 3.0474572011174303
Rh 7.910686134325046 3.090889734617514 7.718495333639368
Rh 3.369962928303539 6.39271476468553 2.5248782493530224
Rh 6.888304251851018 5.804754255527664 5.297647365153689
Rh 4.300689632373194 5.164688932148491 4.775131043935725
Rh 4.8593025851215135 6.114570910395967 0.6436088070011977
Rh 5.465829553245115 7.397150397918196 3.8193350386959906
Rh 9.491011718627115 9.375388825875827 6.142045678202936
Rh 5.6912078303863405 3.7774021724722417 6.578106795893546
Rh 3.8975272657775064 5.140632730613709 10.829002885268679
Rh 7.3042452642116755 8.47398022225907 5.41895680327448
Rh 7.371671018853784 7.190467548844513 7.65516164013487
Rh 9.695351669025147 7.903243201914585 8.253067207810247
Rh 8.507341484265405 3.9042997597156575 10.011790344907967
Rh 1.8315572056281189 5.3232872362839085 4.273564062214316
Rh 8.757490603457263 10.215759944581782 8.415405296810045
Rh 6.5720089053065225 4.974801160149623 8.79536979582966
Rh 5.024748733577846 6.268753741292694 7.068691650315321
Rh 3.0135572091199365 7.509504044217913 4.744605244961873
Rh 8.329100439237878 6.471786471396255 10.09705309750937
Rh 4.089060353512361 4.3401568161569095 8.471934221086865
Rh 4.841552365024534 8.537740114096339 6.028059863000301
Rh 7.053857268404381 8.69562932222824 9.806889885808726
Rh 2.5567671999337334 5.5936985957707295 6.637284805670671
Rh 6.491063313217647 9.667757855651722 7.567185221486548
Rh 5.789021397860376 6.563305048813085 10.473086397003522
Rh 4.756049619970119 8.106205342352142 8.738690951893659
Rh 2.620731706593223 8.177270243234696 7.243726856916926
Rh 2.8152623981064044 6.417385650743479 9.00328971746575
