34
Energy = -197.11604945 eV
Rh 9.899268845573255 5.622604291586098 5.318003673620359
Rh 10.249892707319773 4.563163866156137 7.569068848985335
Rh 9.458690624130176 6.659104168673411 3.0452291648965817
Rh 8.55812574446011 7.870294774580247 5.117007058981105
Rh 8.953094807009174 6.8314930221221655 7.480616174781627
Rh 8.721163465979068 3.310809931855905 5.9579467095271275
Rh 8.239768001437335 4.436282734919665 3.5872800633210455
Rh 8.099036121814105 8.907500023647138 2.7376310157518815
Rh 9.45953517016354 5.8928264363901945 9.687836918282496
Rh 6.105225577014598 3.223234427232483 6.457316954317508
Rh 7.364973305571823 5.53642705573903 5.756659193724808
Rh 7.778569978808684 4.32731687355214 8.101703913595276
Rh 6.9140930280746264 6.638868229529038 3.383728846940197
Rh 7.409706846963454 8.927919785002079 7.167691043113345
Rh 6.99481683177177 9.936120378383142 4.823963580377647
Rh 6.482948518505022 6.67364071544698 8.029472715519322
Rh 7.115516570264071 5.557268158579339 10.229807942631322
Rh 5.832888138012957 7.715944744087012 5.594419775884191
Rh 5.61987355247198 8.835505963180037 2.927837552878181
Rh 5.281041131615423 4.446319712611831 8.734325340856243
Rh 4.806787873338889 6.692397414393348 9.925239246811037
Rh 4.783687875029443 5.413448633454662 6.250849617353529
Rh 5.726979511175261 4.273623005248387 4.092437112528813
Rh 4.18134955414419 2.4463699261134706 4.997702417300674
Rh 4.460605724212342 8.17588897052062 7.797453365171817
Rh 3.4772841146719893 3.433916739735021 7.246447306725956
Rh 3.1628119005621773 5.899272993010222 8.185699079923493
Rh 4.983602904169487 10.133708272707123 6.339071884545181
Rh 3.71585560427111 9.023539714571932 4.561683643747942
Rh 2.9225633184425317 7.105416176989245 5.943593169665461
Rh 4.373515143912297 6.655619723199672 3.740720045314043
Rh 1.5783751662399752 5.026553947425045 6.473971116810896
Rh 3.081618614343798 4.657813948771432 4.446397606747879
Rh 1.741178101425876 2.72273273070272 5.466265359504365
