33
Energy = -190.66505394 eV
Rh 2.2553341303961494 8.165379989647079 8.069714129641117
Rh 3.1647585651340457 5.772220252245707 7.8266774726564226
Rh 2.9773354297827157 4.631908687278985 5.474069993279761
Rh 2.559592305335636 7.124916493020716 5.691585166181502
Rh 3.790611314666791 7.1970642028681535 9.897930962388704
Rh 5.060482823491148 3.730185437485107 4.357455674292372
Rh 6.1434991766678015 4.855971870487657 2.2325010551224143
Rh 4.003116087972074 5.820431947454164 3.208688593911547
Rh 4.014887407751357 9.678454687797656 9.098590736114861
Rh 4.969148542982869 4.12655088652659 6.965663877833617
Rh 3.7731860224705964 9.422977582556536 6.442990802497785
Rh 5.457542121492882 5.511617283040726 9.150104388830407
Rh 5.010506942373856 7.604926685182551 7.640201704570613
Rh 4.087975475432934 8.33630459766908 4.085762840647724
Rh 4.994580661779461 6.292596285094835 5.462411220932607
Rh 7.016993019460865 2.525994303525105 3.4328056399875098
Rh 6.122626625813957 9.963095981793538 7.794970298581374
Rh 6.980599854410196 2.838472214725617 5.993878645747138
Rh 6.300863690892206 7.2425912343103604 3.371088334705353
Rh 6.151558169554102 8.669631550430928 5.533808847316821
Rh 7.389347658597278 4.90246595618829 4.445623162433208
Rh 6.395151066616196 7.901066439351283 9.781161349740033
Rh 6.957446073471288 3.6048807445484323 8.48116168169111
Rh 7.137546775134136 5.614743009960615 6.874132010973212
Rh 9.019985825399564 3.9905845967802756 2.5324589598034355
Rh 9.20980997118665 2.810285589002291 4.753675710319536
Rh 8.50568991498195 6.434053799577004 2.6593076517002125
Rh 8.213721529654007 7.281986482963193 5.139652608023044
Rh 7.729817955412523 8.125917265113504 7.52899105975266
Rh 9.07788205234072 3.961420757868161 7.094789557326179
Rh 8.013779188016507 6.044537611596792 9.223692365407066
Rh 9.860789296736073 5.270256205176594 4.757266915623105
Rh 9.606826150649152 6.420754977278778 7.090446404842393
