32
Energy = -185.2093452 eV
Rh 7.348788364535608 2.6814362781603327 4.788078855082913
Rh 4.90817200181768 2.776963532769265 5.379051215903676
Rh 9.140938585422104 3.276246512915149 6.6232803754248435
Rh 4.567920770450325 4.112728878298614 3.119936478391342
Rh 6.663278593935597 3.741447639662083 7.080818583344668
Rh 8.438585215396945 4.704357122482314 8.71586634203707
Rh 7.118098172288925 4.25287832730443 2.758696230260757
Rh 3.4161783240292256 4.844830157239343 5.260041228374235
Rh 4.190737633213754 4.191311057676451 7.59435482831116
Rh 6.009794768683963 5.47533998513587 8.980857075945174
Rh 8.669592329628696 4.930283284012531 4.757844888798892
Rh 1.8531409364141425 5.302554185135923 7.360426127037435
Rh 6.0187664639967355 5.170308015446848 4.9758000568300815
Rh 10.073592148151242 5.6085989261581926 6.80316319238212
Rh 3.129265113806145 6.370387899268181 3.2999675273906433
Rh 3.516530002716614 6.175729758869687 9.073718240033356
Rh 7.563774211048598 6.162823895739089 6.7723205995198645
Rh 10.847049935828224 7.966158072950891 7.0135009481444355
Rh 5.687748471278345 6.441698109758773 2.799038920165205
Rh 8.343655652198423 6.502975496927797 2.7863931198195786
Rh 4.88465564599655 6.627406436374662 6.869808282428626
Rh 2.5904377541768837 7.17932841205532 5.869738879293476
Rh 7.14092061551087 7.637185286404159 4.703963617508922
Rh 1.9357417605110252 7.919502707365438 8.128027562413896
Rh 9.686008294913627 7.330486880086121 4.848165651862431
Rh 9.11609784415401 7.1459615165232435 8.752408371339424
Rh 6.715464997410531 7.839111063291785 8.616436872249425
Rh 4.59376245921545 7.993644100780875 4.500045174274547
Rh 4.32150898257418 8.642567757450841 8.433102189192423
Rh 8.413138425036145 8.60032684315859 6.715472320316105
Rh 5.875424397871285 9.056762447620077 6.430749024991952
Rh 3.3548837341459756 9.515049420115684 6.266604965942468
