34
Energy = -198.03043632 eV
Rh 3.4796967123889915 2.1209895215132355 6.383730543890901
Rh 5.849713686909814 1.8559587094696937 5.4942855588424395
Rh 5.389291591307072 3.0872397806780048 7.883728825931147
Rh 4.780262809143048 3.2482052645903754 3.296162730231338
Rh 3.215049663315522 4.416721811592996 7.611892184401461
Rh 2.3613088451070614 3.9606019797603533 5.028942355722322
Rh 2.9738487171621775 6.295627917443804 5.908464702732876
Rh 4.969394986921762 5.189952244028317 9.626699131939427
Rh 4.835348277263137 4.207963633399804 5.531924897525389
Rh 7.586735101333592 3.3624029430174485 6.570154640594568
Rh 7.332551854760438 4.259288140607478 8.995665845071946
Rh 6.12834971191761 5.42122937381162 2.9494390339501497
Rh 3.3180194580294478 6.8354298667526265 8.410195401066957
Rh 5.65976842844962 5.810162036574566 7.36672029856829
Rh 7.324425195489488 3.3357298056572233 3.941884651807557
Rh 3.5900444860192593 5.61508384029342 3.4378030145333196
Rh 5.254874425412657 6.887630538427538 4.957987816567897
Rh 3.176989778963869 8.231904534984684 4.21802971415836
Rh 7.290411599359944 5.488422595658104 5.258911237947788
Rh 5.0345388130407045 7.730240304268684 2.511452006595239
Rh 7.551147174022288 6.79331392084081 9.191108633970046
Rh 5.429722049115073 8.145935855344153 8.823012049173041
Rh 8.77515785271256 5.566039072502762 7.321972468032036
Rh 9.571321868666278 4.321616627829873 5.214596126824963
Rh 4.189041854626079 8.4855714254635 6.597983370287075
Rh 8.743953666437354 5.511049582322766 3.0830799548052465
Rh 7.134482066943934 7.799945478843302 6.790429559707472
Rh 5.669449518569061 9.360140665902337 4.610902280895808
Rh 7.725419278981947 9.386053854937884 8.84817049207801
Rh 9.507516693582295 7.992779743718355 7.673361914139784
Rh 9.358388322173104 7.070980712543408 5.24111619750865
Rh 6.080736608439012 10.125122459187457 7.065891205199983
Rh 7.375953878482661 7.6275848214262565 3.6832786504253625
Rh 8.187990939642107 9.445901583557529 5.32609140120991
