38
Energy = -223.33235622 eV
Rh 4.873736938227255 2.4034260188769383 1.7441594239666438
Rh 6.76367852212543 3.8921173763638577 2.579777268073551
Rh 4.485418849356253 4.929081851101581 1.8607810577314827
Rh 6.405145401821845 6.480616643348348 2.698599277771582
Rh 8.656181244617333 5.422009021885526 3.4320775904663186
Rh 3.2465637032843233 3.2514006010810133 3.460218508282635
Rh 5.5215973329380885 2.2341585847608343 4.219900100399421
Rh 3.8535143212729253 6.946577457517714 3.3560313788045626
Rh 10.635626045550271 6.746007536157346 4.2081817067172045
Rh 8.370797222344288 8.036598131711713 3.818782274762435
Rh 7.513398297459932 3.670446797634309 5.068921995789942
Rh 5.164926177705676 4.781070180300935 4.374991149860725
Rh 2.6634426243576717 5.226915905428999 5.010168760468898
Rh 5.84592438169662 8.408849488333882 4.213007511312421
Rh 3.60735714023877 9.453175041506237 4.009087600540345
Rh 9.410472925583989 7.5773445331640925 6.222673896552029
Rh 9.580065827842407 5.01982133592965 5.8169141946378815
Rh 3.854633248376143 3.095660352409418 6.0350556502842325
Rh 6.166686307093644 2.152533241500113 6.71865943738688
Rh 4.650939779617315 6.750265944386533 5.823168713015939
Rh 8.320947299497274 3.301201202332406 7.487101956024608
Rh 7.252557161766921 6.364331254840587 5.408310438497582
Rh 4.6758564579193145 9.288647464366932 6.378047501065625
Rh 3.315335172054782 5.099863232361757 7.4561189332909255
Rh 7.328342094172226 9.115872835798815 6.117373101786678
Rh 5.924770251936476 4.74569347077646 7.016525642488265
Rh 2.4549522023775268 7.84883821496136 5.553721137195782
Rh 8.273921879793818 5.843580164571974 7.885406472061077
Rh 3.476614719691151 7.563316566556905 8.025756870153453
Rh 4.600036361913205 3.1560083288048393 8.605545570759054
Rh 8.346702549026272 8.398629377030137 8.421445686215845
Rh 6.076822006398315 7.398050910640036 7.764853936755299
Rh 6.883107466315958 4.2269315104335305 9.395667704397116
Rh 4.761503059235436 5.7137783288531665 9.421130309572604
Rh 7.092997405263072 6.720648764760276 10.029064379880367
Rh 6.248463185465832 9.930643838868694 8.344741953251052
Rh 5.012233992183418 8.290738789087012 9.97392253706461
Rh 7.274027449732375 9.21501831402868 10.581535912458016
