31
Energy = -177.24421755 eV
Rh 8.730940163783249 9.992344033202711 3.7500514990565765
Rh 6.7209077083510556 8.82800189934957 2.5267738638685935
Rh 6.326587143225859 10.689084027340218 4.289158239008165
Rh 10.050246276061568 8.450651675010514 5.539878030903754
Rh 8.245303655395071 7.52553362071055 4.033695936834258
Rh 7.700743366079135 9.33126730374891 6.009881445780544
Rh 5.621849942067706 8.264737598539424 4.73861861175581
Rh 6.193567922275519 6.2884593210111595 3.216581602967314
Rh 5.241665812155259 10.081140841091006 6.568294483176994
Rh 8.658182095917095 7.315018973407453 7.248694784981593
Rh 9.639544895196325 5.847552519926447 5.420262146930401
Rh 7.047604137447494 5.940972487839606 5.681726531860729
Rh 5.986785066426229 7.747813724409622 7.367311168720008
Rh 4.519038610968841 5.977123580096254 5.291529527331201
Rh 3.5052169400408997 8.203371045242857 6.1556679047538525
Rh 5.701440123255414 4.0083467097142425 4.190789556965719
Rh 2.147414560563911 5.969499221051087 6.116385929425263
Rh 8.456060958142816 4.625144392790887 7.472064948520837
Rh 4.06620304893045 9.003843910678723 8.571484624098213
Rh 3.254887361999155 3.914821260971246 4.654539373858905
Rh 3.6577515835010526 6.526023526045095 8.040417460753059
Rh 8.264871871446555 3.7158221183736786 4.98808759930764
Rh 7.780720619165683 6.644283229394605 9.312168854661842
Rh 3.8574013180358317 4.168246065625278 7.058734027190379
Rh 6.205651722235226 3.3607111228213653 6.536826798525469
Rh 5.326095549977921 7.160563423143448 9.851206331048335
Rh 8.86424281571415 4.49366174608243 9.971416947771646
Rh 5.84816905125455 5.245437052204647 8.22156067228736
Rh 7.05463117176656 3.0735265021965317 8.959638106412205
Rh 6.4281070564451035 4.9330228689352635 10.671834352488501
Rh 8.325659825566015 2.1014665724360397 6.972211012144888
