34
Energy = -195.6592633 eV
Rh 7.637141306139639 4.347912334291474 2.9625304131243144
Rh 6.809123480550401 6.462317213201306 10.13947899647768
Rh 6.903418836714711 8.178752790929668 5.223536545430905
Rh 8.18772895628687 6.985989873334359 3.330472735495678
Rh 3.3241297586592355 2.923812277468326 5.545171225505677
Rh 9.312382434340707 8.848785954205917 5.1478510604913605
Rh 5.190283405551708 2.87968409993634 7.301315756791995
Rh 9.056462681196995 6.43152787546478 5.624561226724636
Rh 9.846066134390696 4.709098894984075 7.28593657037033
Rh 5.500478155260311 8.292218392878818 11.29826374863437
Rh 6.573943696576675 5.597940888129579 4.987002628787908
Rh 5.532324241027526 9.53130013331895 6.8638898280429395
Rh 2.750938993959316 3.105386655639291 7.915105054369563
Rh 5.367715003535299 4.7827074552261095 8.918286037177344
Rh 4.40497681249545 5.131480994723696 6.361375204083682
Rh 4.589177724228345 7.225170666188408 4.463677656243235
Rh 6.12725704033103 8.516715895975429 2.8362582855196665
Rh 10.423265805475896 7.594672979148111 7.337448467104166
Rh 4.677696218611774 2.0141974859695915 3.655440093672872
Rh 3.7608916442220464 7.540781282169901 6.9721584183363525
Rh 6.254306641312184 8.822144677783978 9.040177824478626
Rh 7.325078957903373 4.335659224770231 7.301553406324041
Rh 4.376914207421623 7.077562268328836 9.446301196812273
Rh 8.686773295202759 3.959433326917515 5.15097685738222
Rh 3.6159622425737847 9.381886382742783 5.26246705954089
Rh 6.164734055994622 6.7581418132607105 7.368356181931398
Rh 4.323742926138185 4.605168911161634 3.8974073744956192
Rh 6.3440029105900475 3.0446423973587544 5.053438701188178
Rh 8.496186240016304 6.383833352732173 8.466129401332
Rh 5.8336450458183355 6.093600033613942 2.4514392127744173
Rh 8.15960930014898 8.670450478546487 7.410559753583085
Rh 2.8755165507838574 5.495945084151071 8.325527381174595
Rh 5.514804502126357 3.6207634191385476 1.8962290975030707
Rh 5.755543990152845 10.352537682048105 4.46189979483383
