30
Energy = -171.47015018 eV
Rh 7.232134450669853 6.96547550493812 2.683110635887346
Rh 9.070515857113898 8.072331920596467 4.137696591620097
Rh 7.135945494743524 4.416154754048424 2.4296556149276336
Rh 4.801768948562008 7.62899744576926 2.9983074485462016
Rh 9.035715902641648 5.378894733107239 3.8855221885319966
Rh 6.583968054000212 8.90537927514556 4.303284938922426
Rh 5.443274063989098 5.291089530557552 3.9533182384429266
Rh 8.143269746402588 3.0173368198298482 4.189611376542761
Rh 4.038693439353499 9.417965515909998 4.644599519450264
Rh 7.979232095339792 8.669908921907751 6.434880179829552
Rh 9.626261732623368 6.716713637428928 6.256640148343189
Rh 8.909172201170348 4.313600307967171 6.240124839076065
Rh 7.2661223406514175 6.460915201931826 5.254490829281509
Rh 3.7743705996732824 6.886625634367233 5.155583396698904
Rh 6.500197559105612 3.8415394561649476 5.824874990308837
Rh 5.445782306601124 8.496253633871495 6.6067931045966315
Rh 3.855970660552566 4.379330191575291 5.869867612190582
Rh 5.49528125682847 5.974448880710737 6.997386156186533
Rh 2.9832809784150514 8.68318000226777 6.91699231665317
Rh 9.691542041742984 6.646001574475132 8.648531395319154
Rh 8.190532518526524 8.749698493228802 8.792625418040306
Rh 4.955258961852666 2.2800083477564987 6.92644557782689
Rh 8.670864957878546 4.320675962704226 8.562906713975948
Rh 7.229959544107977 6.387857246099618 8.79526848171877
Rh 5.716723286239386 8.419945692192911 9.023852049538192
Rh 3.0160409784962177 6.223931719122018 7.557002325765065
Rh 6.166014168960764 3.988514630224176 8.42632012688782
Rh 3.2668616819660428 8.177730615461696 9.275324913476798
Rh 4.76607525968674 6.030346591881731 9.448082741155359
Rh 3.634614964378563 3.884593811031346 8.386346182532856
