37
Energy = -215.36164307 eV
Rh 5.896153053243376 3.291934781618391 8.746628475455823
Rh 3.7767220149918415 1.5287649102550231 7.612805505133475
Rh 7.826193184956366 6.460313427587074 5.8573816731879
Rh 6.760202552170079 6.915830511109902 3.3601440748833054
Rh 5.288343013172222 6.591886466500034 1.209826500998112
Rh 7.537926258051725 3.9250962785768118 6.734669130128064
Rh 4.206311893335235 6.1335474319835015 3.504142010967373
Rh 1.3022828600565508 3.3083497595993356 2.0160366715035143
Rh 5.342005174233634 7.462917797719572 5.534309991076326
Rh 3.8483774242633566 3.5334214556125705 4.0353586220728195
Rh 1.2778357022174356 6.002519528505298 6.341556621395884
Rh 6.879260123664338 2.587538491316705 4.5207577477922785
Rh 4.677596798162348 1.2051064777985985 4.9828679754670775
Rh 2.81078984278545 7.777191145084507 4.986456927673416
Rh 4.902564615559907 3.3328618547200644 6.4753157397462475
Rh 3.4233741394042028 2.298687257606752 0.8347956193827544
Rh 3.6144696219266588 5.452440487460618 5.8541343725363575
Rh 5.733616780266708 5.727337402097815 7.498659820285327
Rh 5.879654393462144 4.438912412828688 2.5712425572630604
Rh 5.54603274368902 3.5786673238045057 0.3475976745270481
Rh 3.4120276603127344 4.712993607924555 1.5645214110982077
Rh 1.6233823049535612 4.890566178729509 3.9482384826984624
Rh 6.544275710382743 1.5050654992843073 6.8690481989341
Rh 6.022783493222544 4.990296634768196 4.99705966167431
Rh 0.40898335407571335 7.075447543522565 4.246935971272288
Rh 8.255634184316497 4.761435825240912 3.786312997914284
Rh 0.7173227899507381 2.5828429821836774 4.39138261590995
Rh 2.1543331424509016 6.9806624081845845 2.4733406341706377
Rh 7.742377389756833 5.397271050687642 1.2473827740897114
Rh 5.272709393686875 1.8840603744164597 2.5414398710631034
Rh 2.7157805176508063 1.5195633617809645 3.2004035463382805
Rh 2.2329290580064747 3.3717821568686643 6.308605372863208
Rh 7.711338489921533 2.8499473257380705 2.059693660298231
Rh 2.2474843290832194 0.9241581757626807 5.697140686195951
Rh 3.545057552241185 7.220580079409382 7.536448866960882
Rh 3.506370139861298 4.592128972186832 8.289905910779762
Rh 4.658948013896884 8.489322334909449 3.1189013396466336
