30
Energy = -171.5525605 eV
Rh 7.083157145231679 8.256274854415762 2.0476163141762167
Rh 7.024616844902502 5.911620960171583 2.671963172561483
Rh 6.960278258711991 3.59399683744291 3.0698352498104695
Rh 4.71941208796307 8.388360113891 2.4477380916421243
Rh 9.203879765123352 6.763406909207688 3.345001170323402
Rh 7.622397917723059 8.645928563818755 4.422162045458092
Rh 4.57649282320752 6.078660814014055 3.1291998105016083
Rh 8.732106989661839 6.805514661023209 5.767629229929492
Rh 8.737933433715401 4.568783940819919 4.8357193832937
Rh 4.4789211251226995 3.7820530829217485 3.7670717356474945
Rh 6.26205597629847 6.490766635514353 4.966079904694358
Rh 3.728753696163925 6.813939822897487 5.4313184530581875
Rh 5.113602375050545 8.850852908587028 4.76958263936772
Rh 6.338827997771191 4.0339905101386355 5.389630068095492
Rh 4.06156680222352 4.424003589369015 6.291273861296347
Rh 4.636826985758344 6.445537938774266 7.803384791169252
Rh 6.908328957529111 2.6431647068865507 7.228892843276221
Rh 4.171608855998783 8.768724790909957 7.112606070649078
Rh 9.307425651703047 3.7376057816488752 6.974890520065973
Rh 7.0152173491377114 6.931156623317708 7.630598950846259
Rh 6.590708415294733 9.191894665464039 6.843715923204636
Rh 5.173825333703895 4.12757711193136 8.590905343291665
Rh 9.560041926267898 6.085893347413598 7.915455534830696
Rh 4.7440735908255744 7.2396027728931145 10.061587215095157
Rh 7.5395576157890645 4.672289514664884 8.46145680366184
Rh 4.2393930720869495 9.482712562450333 9.377200477334284
Rh 7.026456828959287 7.7007412730912685 9.884961848640518
Rh 6.59443660256652 9.91980373367336 9.129979164878982
Rh 5.182557653664397 5.004518192623706 10.81768508449579
Rh 7.536209090715618 5.511293948895028 10.685529467575787
