36
Energy = -207.83318631 eV
Rh 5.418349431302782 9.133129668642525 5.223358747803201
Rh 2.0008894978952103 7.1386084798530085 2.824186434199828
Rh 9.53601414833239 2.9550495153934184 5.555528597617281
Rh 5.623506315308319 5.8974790693977654 11.161503944216303
Rh 3.263821803033363 5.352116793917774 11.170816815715785
Rh 2.301801222222272 5.196640560262845 4.336928872895465
Rh 5.841479504247144 6.244407912704608 5.696426546364576
Rh 7.207708432139171 3.8549311626130334 5.60325097877604
Rh 8.364927603248036 3.052595435896864 7.7774179602838
Rh 4.5889021018788565 3.9785189450383793 9.63962676049479
Rh 3.3172401324794016 5.415436109495692 6.4810509126410505
Rh 8.011081536167348 9.45966526827122 5.394234489993992
Rh 4.870543666605778 8.80113126948474 2.712921578468451
Rh 9.991243882889059 5.1659150790483155 6.695219549394577
Rh 8.101527504388503 7.352459645446133 9.270101122867443
Rh 3.6995266375794125 7.393086315381165 1.0616680364417617
Rh 6.7359775390294025 5.205520046984472 3.487163505509666
Rh 8.056299734674315 6.001673968882712 11.19951143123599
Rh 8.562230290146776 7.023275475551872 5.726848188035967
Rh 5.30934723321891 4.155864461802772 7.252722599559244
Rh 6.748723006806568 10.300088848912852 3.3980246858513583
Rh 7.704756784976318 5.465080127245109 7.695228677848746
Rh 7.26861476518998 4.181674305733139 9.832666960493967
Rh 8.545484781070208 6.367863101323018 2.2120947268874462
Rh 6.132677386213322 2.293227899182317 8.67991197030703
Rh 9.17311473041363 5.1313907540687556 4.2528360749987
Rh 3.7881989203334143 7.35687757559115 4.523638411929712
Rh 7.076522630044458 7.764356844946029 3.73204330305888
Rh 9.22568293116978 8.59605979564872 7.510687562425003
Rh 4.17283482579872 7.759024108932017 7.0997242409827015
Rh 3.116141465193527 6.02605218370117 8.84612495110264
Rh 6.096368347401283 6.891712931639414 1.5424799737416126
Rh 6.721667842278429 8.160483978261956 7.271007286068128
Rh 4.8163335355360095 4.048681940662394 4.703977910110223
Rh 5.561557779027401 6.456027837996459 8.838671987902163
Rh 4.281918169106167 5.656908699431131 2.823410321121335
