32
Energy = -184.40046979 eV
Rh 7.4404524446141265 8.560369063717797 8.331971827731756
Rh 8.9627160895169 7.418114600359953 10.10876552869652
Rh 6.022364112172862 9.194049438269303 6.26363895786978
Rh 6.486088271903836 6.517754590870023 9.822511939659421
Rh 5.032195450816472 7.773978370345287 8.084381167104622
Rh 4.342558350798089 5.4578548546350065 8.883084782677184
Rh 8.56701500173696 9.178506532685107 6.066532348938335
Rh 8.582861783389877 4.935746960784155 10.017170597269814
Rh 2.629522855980886 7.06794396208283 7.804184194123572
Rh 1.7299311437095566 6.541161521141948 5.2616901469650195
Rh 3.824725409005465 7.954750446275131 5.698500002640564
Rh 5.040215148426513 9.316869486188525 3.8692145601760775
Rh 6.2443064656698235 3.9294167298863107 9.792077448605411
Rh 9.85506906510496 7.755275575427715 7.756923344337145
Rh 7.144852730795642 10.657584318609649 4.527781964423679
Rh 7.836113221917339 6.085868985199106 7.832724860443308
Rh 3.7669793260220668 5.371859708478966 6.270483028500919
Rh 6.084441843373124 6.539791634349873 6.008984887108044
Rh 10.107715104188031 5.16516651099028 7.331134515871887
Rh 8.268831321655878 3.513301193436495 7.963851273151422
Rh 8.7999150382506 6.6406831362972545 5.5930145314835595
Rh 5.934424695553791 4.3252672747906935 7.329390984446275
Rh 7.337153403882135 8.115460215463887 4.081731056770417
Rh 2.850923078238217 7.749763483812363 3.3262641355634206
Rh 7.32355378587924 5.472795825824888 3.874543078677135
Rh 3.3337129506381156 5.1663774580404995 3.7994134871246557
Rh 8.7750265097018 4.052396070205068 5.435174569147474
Rh 5.3871826477485625 3.9708249115300696 4.827081436966041
Rh 5.17074984535984 6.849727042907552 3.525939926244122
Rh 6.971969699134834 2.409273039418487 6.070346772165558
Rh 7.359660614140255 2.9743083870375284 3.5911332936236886
Rh 5.43858214565267 4.584782687275773 2.372957089230712
