32
Energy = -181.69316354 eV
Rh 9.578890400297913 7.343559565424422 9.314918093720978
Rh 8.043655408099733 2.9605616454824353 8.480464304834262
Rh 9.280782831362353 5.200607265806199 8.238073278823524
Rh 7.107297782192689 5.111554380069567 9.3587706274761
Rh 7.593777745826159 7.053045784051855 10.779102135088806
Rh 8.366919110540893 7.5568294510826695 6.9999138101777
Rh 7.1346838368848875 3.4962897305469083 6.1490597843136765
Rh 8.622938370018089 2.6372411962535347 4.362572498294733
Rh 8.925722770059927 5.352518797255278 5.813662615756538
Rh 7.574430821096724 8.879639501230654 8.981277584706818
Rh 8.499929856562499 4.8340489815829475 3.3852148328576646
Rh 9.69752713804847 3.06618726019218 6.537264122301668
Rh 5.457282775237006 3.5978335750127197 8.189051845911933
Rh 5.699001674358864 7.176287310942407 9.119604942606237
Rh 7.865538574322095 10.087991254499787 6.754284806074738
Rh 6.476372743455548 5.878338860755959 6.856107990949636
Rh 5.077482049891502 9.737956162159325 1.6385186521636352
Rh 4.2140232454334585 5.276257098676445 9.492555808945887
Rh 7.557175631092661 6.986680464073564 4.562264129826297
Rh 5.795338913845636 8.620900471142944 6.967293999432593
Rh 4.495118675963026 4.330681591516515 6.024967761555052
Rh 6.724698292353571 5.705477578258908 1.9109690000600787
Rh 6.746614906212834 9.300697150556596 4.765934604799033
Rh 3.9458834023256837 6.485237651564673 7.241927385442895
Rh 2.3060684715477877 6.7781632306154 9.158007186616441
Rh 3.708637141055268 5.187312012963162 3.8109946466491182
Rh 3.7118530401555123 8.655846211943407 8.607093378298826
Rh 6.063433277728478 7.8437602382136555 2.6332280585576253
Rh 6.100671199057865 4.755393000264062 4.136828401039489
Rh 4.858540889231391 7.04179367109626 4.861980930536456
Rh 3.435556317488929 8.765124070870572 6.049286983930976
Rh 4.4730232220202275 9.435055349662214 3.9576763120178025
