32
Energy = -184.63093345 eV
Rh 3.298607682663409 4.319116424100389 9.23688873024831
Rh 4.625898030460205 2.7558075930303474 7.656421359332271
Rh 2.127396206134723 6.458735024752704 8.40081903875589
Rh 3.3267376291110304 4.894603164219132 6.747125920874912
Rh 6.859471293780697 2.0746174030191677 6.995923336202934
Rh 4.548638961924092 3.350474762739649 5.084552656661964
Rh 5.869532932871578 4.266508343548646 9.369978556992587
Rh 6.770898737141619 2.3889162887889612 4.587183253959978
Rh 2.2223227870520614 7.078778057192405 5.887112427089495
Rh 4.712689322603692 6.3990429361581755 8.576693423118229
Rh 3.4869504744278443 5.556681553568089 4.219159757507208
Rh 6.005808470038004 4.762573125595134 6.7892424264042495
Rh 8.025371290618335 3.8906309032416924 2.963340757671248
Rh 3.4848040123538877 8.47187106080753 7.656039119570797
Rh 6.971471130661281 6.225041518223764 1.9904673181184063
Rh 4.756048501049109 7.029645660420782 5.934743181354017
Rh 6.080756216983585 5.171985300264276 4.130971375819401
Rh 5.105388703563906 7.435945666097095 3.3864873316693465
Rh 7.310846918698528 6.253185226396737 8.568898597423315
Rh 6.10612851874661 8.436178323742446 7.802144056813098
Rh 4.809306024816367 10.44283255761614 6.905679903740722
Rh 7.39401279758749 6.982750734916815 5.902919162115478
Rh 8.154648551651315 3.881393421361169 8.099151290179561
Rh 7.520103259429013 8.299629366027379 3.380804769541207
Rh 8.235270222452074 4.300777723432557 5.485345025797477
Rh 5.988351501816575 9.130786234645178 5.178588066557978
Rh 8.753996403897677 6.144690419341038 3.793668295086019
Rh 8.658738609746806 8.353338072008151 7.837533355848721
Rh 7.456186944032819 10.433674670310003 6.911892077218526
Rh 9.421001749046258 5.931849085391652 7.093828880988101
Rh 8.847392770580932 9.014750804480272 5.3710076977221854
Rh 10.431757248683725 7.137883186429598 5.221352963098436
