37
Energy = -216.56688961 eV
Rh 10.016118598678402 6.582911386624912 6.673317572206804
Rh 8.43298651195408 4.965893542675287 7.883773391473748
Rh 9.253495685617542 4.335279565383992 5.5194757417587725
Rh 7.749003979320675 7.441928320403527 8.291683060723125
Rh 7.225192837591263 5.634623347532332 10.062590552591779
Rh 8.269641038730088 2.503095838598004 7.042911708724584
Rh 9.713432386882133 6.369582430654662 4.019729121801483
Rh 6.569903456996432 3.3347852462456262 8.808278750819227
Rh 8.93331000559082 8.686264293209078 4.4296836881542365
Rh 7.741684876957471 9.350190769570792 6.539821616311692
Rh 7.968798177859721 2.356499124573112 4.488950834969874
Rh 7.75274865032176 6.703701639885043 5.768983611333921
Rh 6.141189030056007 9.670659721500435 8.55724650750706
Rh 5.913739473827715 5.51572888627307 7.729141275759709
Rh 5.359570771330333 7.4207964581651575 9.448410944517518
Rh 5.803809158094259 1.9921051038044157 6.67135135145832
Rh 6.60903645303399 4.1544257301874055 5.688522510673404
Rh 4.752102408639328 4.912351057724378 9.97980408277612
Rh 6.021973234458972 6.011771438906913 4.004090712149267
Rh 8.011803457668318 4.670514210296633 3.229113640948753
Rh 7.663846276968291 7.246491927395381 2.616807045307494
Rh 5.292073260252124 10.28751187667274 6.161138490618337
Rh 4.181400862389248 3.6803440744787173 7.715109621393813
Rh 5.839577463096144 3.271617123268007 3.3330091166481974
Rh 6.332076283538167 8.648090187088458 4.393848950614261
Rh 3.685888162890937 8.856086324491491 7.896113767700204
Rh 4.184593315262445 5.894988336930616 5.710682087268859
Rh 5.636670581896107 7.823231914610202 6.769048738672373
Rh 3.415316472866199 6.192080764255778 8.199332995524918
Rh 4.09075928622445 3.361912960295485 5.187677418394402
Rh 6.002923387763481 5.3006860829660685 1.6305695172003432
Rh 4.527599172782876 7.565129571068206 2.8211860936327
Rh 3.7945052595135613 8.500013540254256 5.153741381489287
Rh 2.141422929972379 4.726968976025182 6.482946320478947
Rh 1.9524635557145413 7.364155156645959 6.57331765360595
Rh 3.8559546207268696 4.97221070041691 3.1610040284712846
Rh 2.3364834763959244 6.747648646322542 4.113684022339605
