37
Energy = -215.37500751 eV
Rh 7.263165165203734 3.180380594461284 2.797617149481844
Rh 4.739435871630284 3.6921976879230045 3.4293073148367754
Rh 8.600144398806215 5.114219993984023 1.9176509249459421
Rh 5.758654623926875 1.5481107063391382 4.181186114243497
Rh 6.096708833186055 5.234114472457024 1.693612034425384
Rh 8.227510940745136 1.8290086252730298 4.940647850435248
Rh 9.159922251920156 4.1536551469540575 4.303182990284927
Rh 3.318180332853741 5.134654415657539 5.111611944959621
Rh 7.46989569819652 7.463402381896002 1.700575064483303
Rh 6.801344445071255 3.9398296666973316 5.142308148365958
Rh 8.185754248070662 6.536673941357753 3.9481928139419944
Rh 4.941437068568033 7.634903864195703 1.7726368008113276
Rh 3.5560275723106085 5.6850514971566595 2.5488024109701986
Rh 6.402578276744933 1.3937985837388227 6.702920479790155
Rh 4.537537288494792 2.982107714536414 5.961094619346173
Rh 8.013194627916963 3.300019576429297 7.193044307094631
Rh 5.715843322793537 6.063110083342406 3.9782917312296022
Rh 8.735300169519482 5.6898167001193665 6.315087076158248
Rh 3.8095679903320367 7.640318417872443 4.327182348163594
Rh 6.255334016817717 8.52875844500122 3.753633124750469
Rh 5.582727718075345 3.436400226617594 8.264932707194863
Rh 7.116912421522354 7.595056173878333 5.940686297795216
Rh 5.481512177535592 5.516365817412983 6.602848835240607
Rh 7.279569388437395 5.321570298860291 8.444823355548237
Rh 3.2869777479982916 4.59971877651937 7.630134547446246
Rh 8.322346529754842 7.609886632035748 8.191839310749756
Rh 3.413199106623103 7.085225772895719 6.772980972763039
Rh 4.969794335517054 9.140622610808713 6.024993791528589
Rh 7.188963890717044 9.779148756054344 7.195429622264232
Rh 5.668172670243774 7.698614058829787 8.084417782160573
Rh 4.86813971013877 5.685066532931937 9.414060925467536
Rh 6.944888888555829 7.004286957199268 10.381652602432919
Rh 2.593038317777525 6.782679567414577 9.154522865343885
Rh 6.624172607799899 9.467686734573354 9.659994012623464
Rh 3.53632391862802 9.024748414072356 8.379570221528944
Rh 5.127395076161981 10.864694871955544 8.139824827550655
Rh 4.557033921508939 8.003878708524486 10.488644771206657
