35
Energy = -201.55377504 eV
Rh 6.442449653813771 11.209262908708466 7.055529766800919
Rh 4.919143881834233 8.176066205628718 7.277856553411198
Rh 6.76451716305672 7.58886835254081 9.235588348001514
Rh 8.074309304072779 9.783142117365928 8.709006489129214
Rh 3.871537659121353 8.863596463746294 10.385851761550526
Rh 3.940599612459153 4.876297629330913 4.4722185922473185
Rh 10.536432693466532 9.368269217942926 8.761577743294888
Rh 6.047687921874593 5.416951698877094 3.318310270716734
Rh 10.79327487769086 4.391539058433231 4.860131868380063
Rh 9.106048005684533 7.824774562765346 10.088533407083416
Rh 9.325168421319157 5.200939411372065 6.729569373414694
Rh 6.112478642999977 5.120478498629085 9.049918932444394
Rh 9.274463453668192 7.6803153570626215 7.509626689295314
Rh 5.651244902873273 3.122928673906027 7.642692168253773
Rh 3.8720678501765318 10.491526908425092 7.391458817784079
Rh 4.271731437815038 6.765913923865555 9.290802982213522
Rh 7.803746440452568 7.064466881954415 2.7046837636999554
Rh 2.188287781382286 9.466007333574087 8.766082648260813
Rh 2.5377343597686823 7.388835797538221 7.571409384417856
Rh 8.610096526522605 5.593300871542139 9.102628352943237
Rh 5.583132065643841 9.869820351922241 9.015597805158647
Rh 7.803611008979873 3.2702871666598825 9.196951134227087
Rh 11.084113163899794 6.775515873511509 5.72147317138604
Rh 5.179537470413693 9.762016997080442 5.308235004716953
Rh 6.209249759160645 4.276150974080361 5.5302199044092095
Rh 8.642242338064275 7.177673235326135 5.092686124236945
Rh 8.061477784055281 3.119583829549892 6.725475921261787
Rh 4.4084786382072 5.453689005377778 7.019098363515217
Rh 10.211936388938824 6.302452354887826 3.297914345655535
Rh 6.044109318724766 7.509424021273747 4.6138419081642
Rh 6.872764531742469 6.317858939766695 6.81987683607616
Rh 9.311494649013827 2.4641643743543344 4.809229897792973
Rh 8.358372460232198 4.750034863990074 4.195999192637207
Rh 3.6677022575505243 7.161618818614506 5.286371103493979
Rh 7.299318200296672 8.96512575673966 6.375418286349809
