35
Energy = -199.37021139 eV
Rh 4.262695600703332 6.757049798125786 4.876472883208088
Rh 5.737816100645839 6.346833425820826 8.983524954267665
Rh 6.4239325401721175 1.7364245574589414 10.03443064007443
Rh 7.794661402376924 6.8683793970840785 0.4024278929017792
Rh 7.63323043916748 2.0284267254835133 7.978747419275401
Rh 4.100858096754927 5.5623824726330175 7.110775839210966
Rh 4.869814458209164 8.76079834182567 3.018152054401876
Rh 4.051955230351493 9.546156330440727 5.362037033593939
Rh 3.312139040834135 7.345097931464701 8.842627839643452
Rh 9.27754733699745 4.4172784535516705 4.138519799181814
Rh 2.5523740848461722 7.7816956173070135 6.457795382479598
Rh 8.412959185268495 4.226681305552122 8.706614992972149
Rh 8.466226291580647 8.733113423635057 6.516309171343701
Rh 7.077272081937299 8.509076455594478 8.66037466724312
Rh 5.948482198458593 10.699757239018984 4.1770170941857785
Rh 4.490116677321179 2.8717458381629832 9.1242157044863
Rh 6.0160186017137205 3.9356924716003086 7.572789983580773
Rh 6.6069019010581345 8.314629424945075 4.923763190788609
Rh 5.599123383961055 7.48734088574096 0.9576499037497637
Rh 3.7156351122039757 5.054244790583669 9.68549990139668
Rh 6.411303291684222 5.682736755385332 5.701383384697822
Rh 7.853971250149152 3.557926482764604 5.900401524608442
Rh 5.087508734141208 7.989620136339128 7.115478312739104
Rh 9.180076606622455 6.528810637632377 9.618896551509781
Rh 8.030589313130966 6.481444177870176 7.4999120913086355
Rh 7.193960468051764 6.526714205812672 10.930954787956606
Rh 10.805020250007404 4.97053384295348 8.735459545897193
Rh 2.391966589842329 8.218447319923337 3.942645465515185
Rh 6.3033263885028665 10.13959814524912 6.652221651900374
Rh 8.269867352332513 5.979740894337889 2.539752908711011
Rh 6.518410550815353 4.228062162731713 10.253487392817012
Rh 9.819503517908789 5.009374280323026 6.549539073590699
Rh 6.0690772628954575 6.468181898797434 3.150027005230476
Rh 8.658866996523845 6.686000361947753 4.940059077602233
Rh 3.635930752235537 6.663980668296916 2.3354740957015196
