38
Energy = -221.65043487 eV
Rh 4.7333317956948076 4.225010663251249 10.682716533977802
Rh 6.192806663562766 6.28255164201478 9.916318867463918
Rh 6.876373828356827 3.85306911386689 9.270148292501155
Rh 6.703830758636075 8.147922898207014 8.382309020919164
Rh 3.6254041698433546 6.448252183698976 9.796635005215077
Rh 4.757268712289136 2.606787831283616 8.61123783204672
Rh 2.743046186483414 4.144897510762906 9.027895147949096
Rh 9.080487555506064 7.682740141363665 7.324004831119194
Rh 7.537450476716637 5.784806203361503 7.67786995241826
Rh 4.9683224999257 5.165103520589878 7.920270307412726
Rh 3.9927798855876016 7.796682156687365 7.809422752367357
Rh 7.590382470434324 9.19269496461278 5.898376554117952
Rh 8.140081393882495 3.166571845726579 7.251916309008686
Rh 9.77337337712317 5.307402892998455 6.414817089889322
Rh 1.5524313823294416 8.041353932679113 6.959400325073511
Rh 5.845483556492816 7.36163559636924 6.094718511181904
Rh 5.3693972106998 9.80310187270676 7.077790446679243
Rh 2.521884913527096 5.8142398094749685 7.065327221310161
Rh 3.1489420708179656 3.337428067829406 6.6389250413128815
Rh 3.3564654697065106 9.176044348840662 5.692842665939992
Rh 5.67940914570326 3.182164407457384 6.3224542369759185
Rh 8.580549132023291 7.056596434696021 4.879882938157324
Rh 9.732051065030927 3.157768671042275 4.985342225310877
Rh 7.592382710299819 4.671385251686508 5.325074662850599
Rh 2.520203411514692 6.933169828786946 4.723450685868316
Rh 4.363701078764872 5.289879441648451 5.349490156003796
Rh 10.158933829528172 5.408157177010155 3.8090942394797604
Rh 5.6008696672652984 10.296020760663835 4.612505106211756
Rh 7.4062378598893215 2.0987907087397435 4.809700205537613
Rh 6.3253061209804855 6.188365265017861 3.8324257370562034
Rh 4.617154838249354 8.113915195736908 3.855175720704633
Rh 7.123374671396457 8.58505426315158 3.4168001755207658
Rh 5.613663389104158 3.6924989146875027 3.755614832605528
Rh 8.210296466013999 3.936233598079855 3.0052032124521784
Rh 8.309472357996684 6.504987274408562 2.282853254901385
Rh 4.086713880249025 5.72703606174808 2.799507476044693
Rh 5.8211526031192555 7.3403019658912445 1.5769498617102142
Rh 6.327953253607322 4.8373679318435405 1.5454618107703764
