32
Energy = -182.66514243 eV
Rh 8.633155498043969 4.429596912226278 3.5611857974512753
Rh 9.687215808706494 4.597321253689218 5.939846986033736
Rh 6.512492334450121 5.801083061497315 3.2585655350949305
Rh 7.117525983372156 4.873551498626056 5.537047300088597
Rh 9.75401052746314 6.475564942854309 4.328011954131147
Rh 4.684509023440605 7.3704139504014305 2.8894248760625034
Rh 10.559103232361188 5.077747990973372 8.278960986829297
Rh 4.977510003405402 6.352006840132955 5.242998030952231
Rh 8.131631875088383 4.686038452939484 7.928500244560733
Rh 7.539429875386346 7.458020726322451 4.706674662378696
Rh 5.768654474597181 5.698577187032359 7.548453121586708
Rh 10.219385671417209 7.058512205316284 6.790993056018907
Rh 6.071310324205567 3.3382045259564728 8.338886528299627
Rh 9.627088153229378 8.935825816538301 5.2419148978647545
Rh 3.162134197752062 7.2479279444788025 6.640150206056469
Rh 4.4411324341582805 4.116035642753591 10.006774109249639
Rh 5.33323624760807 8.299779877932208 7.120706402476723
Rh 5.451883584037974 8.853041370471798 4.64737542953752
Rh 6.735240582556451 5.174070827431784 10.012122392735616
Rh 7.775811754179188 7.180756730219522 7.225546915463496
Rh 9.514120749858465 9.139108387134007 7.961333628285643
Rh 3.6594919916111497 5.975663906182331 8.6792559876478
Rh 7.412434383561674 9.58157165540889 6.237297857573085
Rh 5.541404121090365 7.315219100181622 9.66324601356923
Rh 7.487683338069611 7.110471924493652 11.358577349881323
Rh 9.039679758681967 6.7619771592471025 9.390525023894181
Rh 8.5040676564378 11.470410707357127 7.515667423099559
Rh 6.838072626549103 9.253312737119673 8.883033106467753
Rh 9.973401492226357 11.027245976406942 9.520278661460551
Rh 8.660631406306651 9.0597512117874 10.479310871106321
Rh 7.511903017804413 11.40714069646078 9.837688652799274
Rh 5.975956245697996 11.175357153779986 7.530954364696858
