36
Energy = -204.73129911 eV
Rh 4.871827949024932 4.606492086422875 4.620857055982595
Rh 9.537921886240834 6.78147647844414 4.590730305207434
Rh 7.845698536415625 11.820451085593119 9.187475552054932
Rh 11.090185046514286 8.047452377880223 6.159038665890617
Rh 2.5413725827648204 7.270825771777483 5.783518260504154
Rh 5.599456803923538 7.526510693456459 9.982978346378037
Rh 9.552786962455434 4.286491707151519 4.379926622575138
Rh 8.748414609758047 8.865366567731847 6.288130412058332
Rh 4.665197032910061 5.256580722189955 9.230970428920445
Rh 9.440535702582782 6.784580927144506 7.700830232729048
Rh 10.960185244804205 5.431605184546116 6.146472444708383
Rh 2.900444506795991 9.364983796901019 6.959094582714599
Rh 5.3151065896241 9.07017191727696 7.089562536100832
Rh 2.9579060722344623 5.9737530073775 3.7801139229791905
Rh 7.834909471414454 10.656714267616154 4.764175853617035
Rh 6.7845113840447615 3.0064254391731575 5.714457431474592
Rh 7.297245910590325 10.657116296894179 7.177491939424758
Rh 7.235919189639021 5.27830273008263 3.9083526900620287
Rh 7.80602026674919 7.559619617113037 2.9343634080347467
Rh 6.429653719337364 5.425753061483189 11.066035433895191
Rh 5.772760800819933 3.1413456472343038 10.100520215657443
Rh 7.194145386659219 3.0683331817168944 8.238939494036918
Rh 6.312998894878186 10.06425165692743 9.533823198580205
Rh 7.81654337746868 2.8460640428282042 3.555154262913178
Rh 3.7224996705400866 7.1870627588051015 8.112452560134532
Rh 7.492270991122865 6.435605826328643 6.102856456739305
Rh 3.9677676784586127 9.427013900322406 9.345924778721276
Rh 8.729899159882148 4.342489372628508 6.741388393539519
Rh 6.5383976213581905 3.4511619991688662 12.356438461805059
Rh 9.557843162514384 9.154605788343183 3.7221563595752962
Rh 7.364372723917353 8.128479197384852 8.348417342638966
Rh 6.564359746186497 8.578803857446902 4.91137928649579
Rh 7.290788207466001 5.638531287921458 8.756490118466356
Rh 5.624302268028735 4.740910885641594 7.023999376381717
Rh 4.937439794222811 6.860124456521156 5.899936786132276
Rh 5.348000119488104 6.914231475360865 3.435235853706363
