39
Energy = -229.81187336 eV
Rh 9.792242216488901 5.226158971344184 6.210041260693837
Rh 9.796192196671486 7.639546961971655 5.283970521989526
Rh 8.932036327384576 3.402591378337953 7.808038388906615
Rh 8.702934187556686 7.1299061779209385 7.566460660211552
Rh 8.839491014310235 5.6405085170312095 3.8210770454322107
Rh 8.270728806200681 3.481178429828852 5.1105271208460294
Rh 8.134567409871046 5.405328431917358 9.344016590101667
Rh 8.572068426903424 8.147781768209923 3.045352175566721
Rh 7.670947573966242 9.45545309581998 7.432786826810914
Rh 7.99354089490463 9.665747733559927 4.99778928446591
Rh 7.297310559282177 7.112411936088533 5.122528023470531
Rh 6.543628011202776 2.7334849741517733 7.069286743428674
Rh 7.236635180538521 5.139667314651995 6.873172830433801
Rh 6.784298110260015 3.2637929408363138 9.464673972476843
Rh 7.118234438770031 3.9669907582173614 2.7464828527022895
Rh 6.081022856400322 7.40940070904379 7.392757000824373
Rh 6.655627334694838 6.445030695038257 2.644756631011211
Rh 6.032136356319152 8.867565814021903 3.4601223160777566
Rh 6.433806294763577 1.7694872045578347 4.673717010504875
Rh 7.156981627190027 7.808566460410161 9.59995278096028
Rh 4.5693773145118 5.416571352872663 6.75485253429176
Rh 5.489479105407419 9.30629131801563 5.878797614368563
Rh 5.822668419117855 4.23391988752645 4.815012432397349
Rh 4.321005131870329 7.591038038829985 2.1065354750700425
Rh 4.530129083858619 5.038961936578404 2.4705481220169516
Rh 5.618594232454182 5.569245558069727 9.169501582550543
Rh 4.248726097088512 2.5374192596011653 5.9046394947620096
Rh 4.83307438367573 6.751781737605643 4.497855083869292
Rh 4.43632910976286 2.6369910026941414 3.2619381695228054
Rh 4.381059100657416 3.418986148820874 8.385523165867305
Rh 5.386486576472258 9.612432798151232 8.527980104823225
Rh 4.390279086534239 7.6568785369875645 9.829010774236462
Rh 3.6808028301760083 8.078485028970464 7.385001920367723
Rh 3.2279056643801933 4.482761849376871 4.602753203346738
Rh 3.196806242650207 8.575475920231614 4.889675423689799
Rh 3.0222466978809446 5.8047590842376335 8.645183136627232
Rh 2.3748089856021224 6.5296171062873185 3.3881890397647654
Rh 2.3074345816596953 3.9379837945312355 6.9542470482328955
Rh 2.3002243373682587 6.406186363199924 6.014006698391565
