33
Energy = -190.05696521 eV
Rh 6.644182750956084 4.542027073900236 2.501590417680427
Rh 8.686697825339062 4.187668508005459 4.473243185589344
Rh 7.941118119925837 6.4644924622106945 3.298962008164542
Rh 9.657869388860634 6.748309337963491 5.325965193305105
Rh 10.430403227906542 4.597248733068822 6.298038306217089
Rh 8.93808921588956 8.657175624094652 3.819773225252809
Rh 5.059037608961946 6.822785531568019 3.52293138920223
Rh 6.143395315618886 2.6163035687324676 4.148559650290156
Rh 4.235081831094162 4.334436031548725 3.666582829178667
Rh 7.1656806222748 3.021205464011775 6.490814430959893
Rh 9.008555655362057 3.4370809245032143 8.102069286375349
Rh 6.373808023145429 5.095443948117222 4.92837744592218
Rh 8.084515685236918 5.358499775520382 6.717109511914673
Rh 9.228604085831316 7.216005475195446 8.112270458607677
Rh 6.862969886981943 7.8623157895326345 5.124740424272334
Rh 8.79146844601599 8.980802602315437 6.305836002148854
Rh 4.58998435429515 3.4049031631176088 6.040342808855552
Rh 4.399278374664723 6.180213913418346 5.983599901587724
Rh 2.6372097853006173 7.623962734017758 3.6069774974044506
Rh 8.167710712986532 9.476801735567781 8.647704502761759
Rh 2.2456369217430203 5.441229701198003 4.68982461691271
Rh 5.6976537754247385 4.792999972305466 7.817217436251581
Rh 6.648898356060392 7.37288745843463 7.6562552567474285
Rh 4.372950289566069 8.645210795742399 5.233319125266266
Rh 7.759745786722907 5.299172550040442 9.221350340180548
Rh 2.4024843754794882 4.114758316362781 6.772329024117633
Rh 7.711136475526742 7.591236297930876 10.32184321331031
Rh 3.3040600994691744 5.903588233217698 8.206848605284376
Rh 6.185371102080322 9.69605322388278 6.803024230838551
Rh 2.298096787111856 7.555026633680938 6.2293603126111075
Rh 5.415988154388854 6.518587190170359 9.670125128480306
Rh 4.186480733415438 8.233999043577173 7.820374436005015
Rh 5.796231798525466 9.141326873787568 9.446846989822227
