37
Energy = -216.66216247 eV
Rh 5.783347687871545 4.412144357685726 10.399595100055556
Rh 5.399839613201971 2.8978188828639557 8.352994918325255
Rh 7.335799281656374 4.7962448891472675 8.401004318363261
Rh 3.45864356925654 3.4781390754141004 9.821794896814998
Rh 7.722313400803419 2.3344898696475225 7.5777925577549325
Rh 6.453316866058048 6.793912565537809 9.841564853383508
Rh 5.999813801144147 2.6951367120111076 5.767348879911342
Rh 4.05009330395482 6.049331760732016 9.44888047054668
Rh 3.599017459436273 2.9757783505478965 6.390919436727777
Rh 4.828745186889876 5.104605391359655 7.363836636528903
Rh 8.345107798154771 2.1490349445135535 4.990361403514305
Rh 9.19359922894169 6.395788512229806 7.669959801888572
Rh 6.871754081196416 5.048817935929669 5.740243109307961
Rh 9.076638321830163 4.110470286703426 6.402641159634929
Rh 6.756190976438615 7.096129236341616 7.37601824537392
Rh 2.310999173075439 4.5746736719365355 7.940524546384404
Rh 4.796312419413199 8.335897404181537 8.251290294713792
Rh 6.997373621093146 3.894167131573948 3.6187000171115042
Rh 9.053256938305212 6.311336923287871 5.089931057337589
Rh 9.48707086534627 4.174428386996221 3.855184433608443
Rh 2.3160171856148355 4.998547415817657 5.414700125108068
Rh 4.36230371959583 3.8162318872533505 4.081917468898434
Rh 8.705450803703618 8.523409840264508 6.23834768390262
Rh 4.599525061919572 6.106956402990773 5.034820718538172
Rh 3.0238165405206843 6.899979474240926 7.1236428245177645
Rh 4.246824031348496 8.610779477466998 5.726589176660357
Rh 8.054966067398244 6.119689201892619 2.76044469715542
Rh 6.668608022973987 7.591297112329594 4.714830262393288
Rh 8.79235757268908 8.479486553322301 3.641726287120979
Rh 2.925235678907426 5.782440707793933 2.988440236482029
Rh 6.404774866593209 9.60673788810751 6.536549401494038
Rh 2.1463687321020837 7.556647008592116 4.7111798719099
Rh 5.52366903192777 5.759951567904714 2.6875733447150543
Rh 8.117072541159262 10.596662178931744 4.829976182114168
Rh 4.266652894057175 8.003180294402478 3.223258410666253
Rh 5.8335137217571695 9.907807871390661 4.028840814563747
Rh 6.6532645739814065 8.204287061928136 2.1643140875554336
