36
Energy = -210.25127179 eV
Rh 4.020296630575472 6.13628616015285 9.967495244356998
Rh 3.1548307215922344 7.817002882898234 8.270500241239207
Rh 7.110897844597453 6.812539128151411 6.114465650375354
Rh 2.665502744729482 4.422785836560459 5.308081296981234
Rh 5.7327219914274705 9.84217942650048 4.98186150843026
Rh 6.917728975059511 5.35083323544366 3.904085299487059
Rh 5.147825744588251 5.732532939105136 7.6930119525223954
Rh 4.849750633512601 5.871846618285416 2.5554338565791177
Rh 3.8959092899339884 8.073024497140526 4.013114106683923
Rh 8.659502172380423 2.5686935675245937 6.403327909752834
Rh 9.619053635289104 6.964117864558626 6.298474897142934
Rh 8.902093845071597 6.907472009534942 3.703956321392075
Rh 8.590909498360096 4.927951473093352 7.67487279006714
Rh 2.529062812026033 6.88635876215686 5.891178310459645
Rh 9.115226435399036 4.736203607423118 5.084406646668686
Rh 4.891046756764867 8.048941993355346 6.44766036770965
Rh 8.924734720140375 4.592122814165503 2.4573917596235497
Rh 8.196739646373361 8.947903934848537 5.046597163079683
Rh 4.432481732275874 3.313296022970817 6.742033196743856
Rh 2.804914902236734 9.387534816218478 6.153210776391632
Rh 6.700961213919776 4.256791529852802 6.15839818020563
Rh 7.247494874503956 6.4442985726103155 1.5853228012446767
Rh 2.7604427935202236 5.124835933375213 7.812098645264435
Rh 6.397590251576702 7.848172127607733 3.5638345066367383
Rh 5.106823190715737 3.459764595455063 4.13130234908635
Rh 6.26075391133458 1.7395148725811127 5.811552918647124
Rh 6.7655956075432275 5.395497465147379 9.450173561436007
Rh 6.48985421358118 3.865476607823848 1.856289406172924
Rh 7.6844396164427575 2.842007922018752 3.947705466041012
Rh 6.755472489565164 2.9271827637809618 8.208285380047748
Rh 8.214891804369389 7.314356808280989 8.521463619934712
Rh 5.728538456126686 7.880994770915731 9.086047814754814
Rh 4.61697767581819 3.7785882949453824 9.280508520817236
Rh 4.628826662362611 9.985944033698894 8.065555511729336
Rh 4.724212240815649 5.839880497086132 5.117871252535069
Rh 7.016517091588619 9.218531593667203 7.269396184303461
