32
Energy = -184.89417132 eV
Rh 5.490487231514063 4.652659581921795 8.392495381542904
Rh 6.841196506345175 6.84256987292322 3.948410953495892
Rh 6.8401995099629955 5.498227393949416 6.213245079912019
Rh 5.414187755468465 3.3908628944742834 6.128667974598805
Rh 2.620698836106769 6.838811937853161 5.489703948704505
Rh 4.653549490506062 8.211516180900192 4.718689731189302
Rh 2.51586025725445 6.832585451600371 8.205294638276406
Rh 4.730786010184996 6.842414548681281 6.982581076076525
Rh 6.839822644483703 9.407393392582076 3.9691550567861658
Rh 3.3419469005513633 8.979675647264287 6.892706414996046
Rh 3.3437142491637672 4.700885542133646 6.8933865695815495
Rh 5.409663729681161 10.289401926184336 6.124493720356228
Rh 5.490565114676841 9.029953968506048 8.391168769837034
Rh 4.57964706498481 6.83841151808409 9.646217635927139
Rh 4.6570642023896385 5.4719038633164825 4.720848508865336
Rh 8.949384915030992 6.8425692116414805 6.979908247239274
Rh 10.337133279073417 4.701592134915108 6.8947394515186025
Rh 11.059700008796762 6.839579043954384 5.488305463616776
Rh 8.267561955635527 3.3905328752067474 6.127334448027287
Rh 10.338366277897569 8.979052718459617 6.8930136059699105
Rh 9.027703900329309 8.213467884652964 4.719322011568778
Rh 6.8401895398889705 4.276929959832609 3.972250775397011
Rh 9.024145245210828 5.470831503615089 4.720632156745987
Rh 6.839962251604262 8.186638866983204 6.210263112920462
Rh 8.271492752926138 10.28914578413763 6.124249214261716
Rh 6.839956408713334 6.841366591468346 8.438467870930676
Rh 6.841368110507132 8.234532856968134 10.484590232984612
Rh 8.189924915860553 9.030146890264712 8.391276021035937
Rh 11.163326110868605 6.8312788331513525 8.206335374396835
Rh 8.188852792891263 4.6509616790798285 8.391261909428708
Rh 6.840867239860656 5.446585718977036 10.484490756385041
Rh 9.100805286522553 6.8376439921317065 9.646624153240545
