39
Energy = -228.78265351 eV
Rh 6.1722315919204656 3.22812575555433 0.9748676430509458
Rh 3.670743344301158 3.143686396378845 0.31178605100904766
Rh 4.7221935473277625 5.487050909354425 0.893712309889833
Rh 2.444123888880161 4.872308867701531 1.8097383989251727
Rh 4.470830908371183 1.2460500351508341 1.8820680011649036
Rh 5.5336965934664955 7.637786935883399 2.3013742603915475
Rh 6.612696220066344 5.277103701295507 2.525413324122328
Rh 4.618765203707071 3.5148450757390908 2.9154381242584466
Rh 2.075934181033859 2.4151278686582005 2.279998872825325
Rh 3.0539577640743407 7.3960910706300504 1.5867818046152087
Rh 1.4869254520458475 6.493850692533317 3.498253626859198
Rh 2.6799143238536045 4.112576071420859 4.489450640089019
Rh 3.37705126637096 1.5356667774913761 4.228256188702327
Rh 8.228064576437681 3.4018473119980013 2.6100773592743125
Rh 4.255614150724428 5.951653662493414 3.640804336472075
Rh 5.872238530204031 8.989178687920905 4.463802548571322
Rh 0.27715049833302535 4.191375666057839 3.04459836012453
Rh 7.029092418284439 1.0729064015371235 2.1001739131603028
Rh 6.592372192858581 2.4004718400517486 4.1505609751153845
Rh 7.678735903103095 7.145701767394245 3.74929416070162
Rh 5.140967209811614 4.213279740483697 5.378700143439382
Rh 0.9436944280340549 2.332345249583895 4.7143655333745125
Rh 5.94595938329767 6.712288163083699 5.442636806273111
Rh 5.464287160532649 0.21210072120457793 4.093706224292868
Rh 2.653308223759636 6.5066600742552305 5.7137157037641995
Rh 0.5613081397755393 4.964658214215766 5.499223625951559
Rh 7.727924994086858 4.722653367606182 4.922771434046695
Rh 3.441253262155722 8.290772557865377 3.9851634299587935
Rh 7.837442267075703 2.2036709006544397 6.186294321594357
Rh 3.158666429371913 3.453541465144752 6.93255408144337
Rh 5.107132832701693 1.6999255943347835 6.307726094690136
Rh 2.46817201734055 1.1330584195970292 6.496277267427956
Rh 4.286660318093974 8.20503351594644 6.475758180266494
Rh 7.298996537092011 6.088970085363565 7.318333013374252
Rh 4.518578954271326 5.716000653921967 7.506253865995451
Rh 0.7277042426066689 3.025981714505638 7.190413996912938
Rh 1.8507645867058105 5.367533926177836 7.7606565199013495
Rh 6.62240037085656 3.841204441257865 7.348139061855412
Rh 4.7912172945179 3.195686907003876 8.669631003565653
