36
Energy = -209.98582573 eV
Rh 1.2644482427035422 6.454628283437241 5.60970798487495
Rh 2.544791360135694 6.348129468042038 7.805223944043932
Rh 1.90507821478702 4.128867023733217 6.628300873355808
Rh 3.738770654937947 8.5680655289506 8.400548888690574
Rh 3.344944060972577 7.998858804872983 5.876417654990047
Rh 1.6992682171358164 4.48655175764541 4.105200401386001
Rh 4.18957909764725 6.407741344878176 9.779868719439436
Rh 4.096296860570866 4.325145090769939 8.05428030288438
Rh 3.8616167142098763 5.476410984237044 5.5229657337025495
Rh 3.1288285658486865 6.799302200815392 3.577602791213259
Rh 4.204646339971943 2.9746440424193388 5.755755791711986
Rh 5.209451899697014 6.639467197013257 7.332340877590351
Rh 5.615244638730676 9.013365177623632 6.654227418312784
Rh 6.184271769052822 8.015045037610822 9.164053010496444
Rh 5.049376808159353 8.54436722777689 4.017624611452544
Rh 3.856733134905838 4.238663287531952 3.087111760889729
Rh 6.204444382467148 6.660090666738348 4.954369368188373
Rh 6.4796133201734465 5.401325794016666 9.17265193039807
Rh 5.476985835650919 6.300836250444563 2.5652591746807167
Rh 7.957532915801114 9.270798530186315 7.892140741137927
Rh 5.19554308374633 2.004879933961772 3.386595049902803
Rh 6.316328059140341 4.101715641459806 6.9709229350463415
Rh 7.805638916140218 8.643812065141894 5.463915582142363
Rh 7.84555813473138 6.365872532182272 6.833876062600366
Rh 8.550436465229279 7.058500624783269 9.086984644994239
Rh 7.572183374625599 7.776337384943106 3.0543091267988203
Rh 6.025155236593426 3.847291346841705 1.764096741787338
Rh 6.027205886828456 4.240094260005358 4.371543805620902
Rh 6.719752080206689 2.051435823437891 5.522487590643125
Rh 8.545758830770724 4.2971585691374905 8.115526621511245
Rh 9.88217751423621 8.00036566573882 6.8245232218129575
Rh 7.859618906738207 2.704541976184765 3.2804767613814585
Rh 9.21066155888644 6.531810640940911 4.679958851498725
Rh 10.29147122784186 5.49627042694074 6.734720606251434
Rh 7.901797330425754 5.237632088829743 2.971972043624468
Rh 8.477855151163055 4.086180483636606 5.414964451598431
