39
Energy = -229.41212056 eV
Rh 10.97860126292917 7.219213676649945 8.523533183053148
Rh 10.834743029021222 6.417682603680987 6.138643161766016
Rh 9.456589373139657 5.210323323769637 7.948499350147558
Rh 10.869931835549005 8.685722962188555 5.053503978114496
Rh 7.82483214894569 3.3711742572304146 7.267880991972067
Rh 8.460611090033218 7.5386399958362915 9.005269128746148
Rh 9.191928798457594 4.5355259786978035 5.367594849624975
Rh 9.74331774452775 9.005741985082347 7.26968552573937
Rh 6.176107745517906 3.352769893245747 9.243314426700575
Rh 8.377138033601332 7.037370660790716 6.484071180756211
Rh 9.29352678729474 6.843657530319713 4.0889313631157895
Rh 7.233978551749377 2.801195742871415 4.862360025240716
Rh 5.328038010730464 2.4270813309027717 7.080565993952322
Rh 3.685412036384844 2.8563151134671436 9.024608446106871
Rh 6.746620923539132 5.175494993597808 5.734806713177743
Rh 5.884528158161871 7.784606571357311 9.27660279362241
Rh 6.933776776923704 5.572980020275457 8.387827024359689
Rh 4.692027458427931 5.426947733656526 9.714083005250718
Rh 7.200467843270461 9.321490264756175 7.5030928819522495
Rh 4.645466200298254 4.9308712814525135 7.161257309478375
Rh 7.536169798671066 5.002337412404511 3.3428400677309122
Rh 5.755270685500164 7.3254105452515486 6.715289939991301
Rh 4.795914959282327 3.4503278525140657 4.8814680581700145
Rh 2.38625114957028 4.968517966683118 8.527143997308436
Rh 6.775040638283693 7.376977633881775 4.217206013873239
Rh 2.791728211125657 3.3198580467016297 6.469504353674592
Rh 3.5298679815263454 7.1796524878607935 8.154735973295335
Rh 8.33186197394735 9.204422419369857 5.106022199330284
Rh 4.603516567179341 9.45656519234259 7.681701270366917
Rh 5.738335248339923 9.505355086759426 5.279805461776368
Rh 4.532968731673051 6.081583754088966 4.714124711924499
Rh 6.007106662176053 6.683496986104608 1.9365872305860738
Rh 4.999205635836344 4.5687319907154125 2.7022373565250053
Rh 2.2890354900072176 5.898929845985717 6.166039862413996
Rh 3.4121555405706485 8.28425486431877 5.770306347980764
Rh 2.6376594531571924 4.479166859811144 3.992376082130686
Rh 4.485661373829695 8.250264188538926 3.3309342933156656
Rh 3.4195768790910357 6.32631985044273 1.8077652220227742
Rh 2.22600055641172 7.073398708149491 3.9202395243763606
