30
Energy = -170.427554 eV
Rh 7.206522942278364 4.975440086757339 2.043252127940428
Rh 7.69949419679045 7.256514401032797 1.645114950166344
Rh 5.869443281677176 5.558799757992514 3.9723597369699726
Rh 6.416817734892523 8.010840331853142 3.6145193537244342
Rh 8.540704714752366 5.022857580411148 4.0925180543955095
Rh 4.889671300729635 3.2588887520695535 4.6554256770714675
Rh 9.094617847225164 7.321309032418059 3.630167315209163
Rh 4.140509391185024 7.407398371682854 4.520057283009135
Rh 6.878270406849777 4.195094870559826 5.979172483894542
Rh 2.018073504291625 7.07660167020517 5.831915164902655
Rh 7.591819255859475 6.8934861673294945 5.601990658249205
Rh 10.257397582034175 4.968244160373248 5.770386839105426
Rh 3.286666484781276 5.015523428049339 5.32499510613962
Rh 5.857080209995291 8.6962760725401 6.061409596693056
Rh 10.716917094707771 7.3243850833125554 5.390954523162072
Rh 5.228144137443713 6.101396667422325 6.489471191561039
Rh 8.644261681376914 5.420635053335674 7.466593882640955
Rh 3.694533068481702 7.94545918742207 7.325906650465689
Rh 7.0139653509087925 7.234683987650824 8.129262683180714
Rh 5.153877630992072 2.7971743719556637 7.1046955199896065
Rh 9.213636982580656 8.07136044535766 7.078186303527416
Rh 5.012299505019372 9.93435065627712 8.079564008279547
Rh 7.539626596095168 10.030869210982578 7.176538447172002
Rh 3.661893377723452 4.534302424650445 7.703318935678814
Rh 6.437643986263186 4.772885614795814 8.539578301217816
Rh 4.628019627211718 6.644759772027076 9.190329877517533
Rh 5.8829923575735705 8.636154344598738 9.850342316327579
Rh 8.276215501156084 9.14753513437629 9.30411171486739
Rh 5.828019010908751 2.4794592703324 9.389477629270555
Rh 4.347851744213793 4.294300598226327 10.065370173669715
