38
Energy = -222.88780277 eV
Rh 6.905869347843469 2.1501737181588303 9.850248867355665
Rh 6.309728805001363 4.709205182495793 9.871966239567378
Rh 5.67586802781438 7.150152243020913 9.131294535033023
Rh 4.212299920241939 5.221756861966244 8.246072925661615
Rh 5.106604630003542 9.539553962555877 8.33693214505075
Rh 5.338207389676083 2.9682277924162825 8.122294926695444
Rh 3.702380338837618 7.643261571267805 7.452693666746028
Rh 7.590745522563094 8.83988647109036 8.533055367036416
Rh 2.218099773161275 5.671879321076821 6.5835549367472
Rh 8.211273300399926 6.402387447374582 9.17312798530752
Rh 8.705014835219295 3.8781306528479544 9.611471294587911
Rh 3.560623186359707 3.4603180704967893 6.360789704241863
Rh 7.8110980999587705 2.8153273525170186 7.461796813873529
Rh 6.735869220935332 5.291101169769477 7.413306575714174
Rh 6.199421578515756 7.871700464353103 6.6319070497786585
Rh 6.8605603614199095 11.189763659025918 7.688450139534048
Rh 0.3598305736651988 6.127746077809771 4.88421958501192
Rh 1.8646727750299374 8.037131405207663 5.725655471574726
Rh 5.5324788813743915 10.228485656474788 5.77440035122985
Rh 8.846691838720737 7.314944230070277 6.774596671268281
Rh 9.304797777344671 4.879965769372236 7.353426517344986
Rh 8.020821994463246 9.673384723783425 6.040789951058524
Rh 4.711553655577799 5.79622813520793 5.7487139272416306
Rh 4.2260574759118334 8.24619117778716 4.890526045899994
Rh 6.054225012582138 3.472124612344587 5.662903975054255
Rh 2.746781246348321 6.28781970204656 4.019680580344704
Rh 7.340004853012371 6.091380222081031 5.013965046378267
Rh 6.627206469175693 8.485269905210066 4.054492651062475
Rh 1.7657357619380836 4.0147331844080965 4.662189654410416
Rh 8.518492668482418 3.729698819121563 5.113915270165483
Rh 9.121255982405588 8.10853311560328 4.338759943940644
Rh 9.988853168218423 5.78487067888689 4.992283417188438
Rh 4.2387717548888855 4.091211927647002 3.8900665503917
Rh 5.249286665371419 6.430136927565056 3.296995669815287
Rh 6.765553467806307 4.3146256639446285 3.2581149094947333
Rh 7.8260301677175015 6.644405169278756 2.5540915577831176
Rh 9.328092320228565 4.584829806655331 2.8438945928383244
Rh 10.402754728067645 6.837070725343255 2.6209680638549733
