35
Energy = -202.58049185 eV
Rh 6.041440132244601 9.473547690857982 7.257620763955779
Rh 3.834177342088154 6.732884971892938 8.535424468487573
Rh 6.239062258317052 9.770805733251768 10.610136858451199
Rh 4.247692315561536 9.27150320502745 8.99183732800204
Rh 8.006505606674505 10.263400887466696 8.790665989894443
Rh 6.421017228187155 5.4857717694589665 11.62430822414951
Rh 9.092318872191408 7.086351129233999 4.39691353571713
Rh 10.883680124594138 8.199448283963605 6.741596725925204
Rh 6.14449364325273 6.425387981168722 3.0422145305505426
Rh 8.264862671597045 8.04249362886509 6.560117137721835
Rh 7.595254454528112 8.53974583328694 3.091214712356332
Rh 6.05017978591476 5.197079202337321 9.25066515807969
Rh 8.471381187963619 6.618896483358169 10.690353902201336
Rh 5.448197638413911 3.730189018682213 5.055659463766036
Rh 5.968853515892153 8.147077048216834 4.949000984969834
Rh 9.310079911926797 3.5579968537067623 6.782843920946941
Rh 8.791430180980056 9.167898534827827 10.99433010111472
Rh 5.124493702894248 7.405562419242398 10.53735758310525
Rh 7.5813181939576655 10.05909813934849 5.120913388019169
Rh 8.390530512008091 5.864850004445999 8.190345815929769
Rh 5.914564285131779 6.780189783984559 7.166350518358808
Rh 4.450252359733912 6.057332341851926 5.11915128818109
Rh 6.966863708030662 4.005246085878055 7.126265299499318
Rh 7.079585255838433 7.896288403770147 9.111623416277036
Rh 8.51665057581993 5.961985730246932 2.250427491695758
Rh 7.006180412203863 4.0177402303838665 3.1407158244483897
Rh 7.353164473110612 11.737316531014748 6.962799621189713
Rh 7.115977715696303 5.635981649916165 5.19932049645961
Rh 9.178067556493277 4.527550774457145 4.43629648677793
Rh 3.896458326958955 8.251922458194537 6.483853870927781
Rh 6.913287357922815 7.942113061854268 12.269661230680125
Rh 10.10158332123599 5.913006243022403 6.38883308730551
Rh 4.4961201391406425 4.566341106313257 7.3266525389277195
Rh 9.4799793932713 10.261979755538079 6.74243269435404
Rh 9.661235797913225 8.090422408714414 8.874695180935696
