39
Energy = -229.03841267 eV
Rh 8.395299062475885 3.3958080423776638 10.619821451094277
Rh 9.55423554050008 5.193873588075146 9.389451652856318
Rh 11.184616145337129 6.563427050686977 8.119654364828506
Rh 8.861275614914494 7.5030724504312305 8.485494602786124
Rh 7.13597549062517 5.617816410349454 10.415352476607707
Rh 7.778586172162788 9.72591731595619 8.079827399503785
Rh 6.239487868990834 7.712789971654646 8.8352255256642
Rh 9.62003733910448 5.137913021500032 6.7299762517366934
Rh 8.615802804063776 3.1504632239806774 8.082090579516903
Rh 6.294953259831351 3.4179752321769614 9.243093129462183
Rh 9.96477629217957 7.556658680287172 6.0949064700495414
Rh 9.6581376672041 5.430875242263725 4.217945577371173
Rh 7.215907422087647 5.460878235213346 7.906218814446709
Rh 5.413484458833275 9.508563655991189 7.077921761422337
Rh 4.846088639421856 5.566353947956935 9.180995396092884
Rh 8.83330263071905 9.671095998733396 5.571386552651066
Rh 7.0844395968948115 11.344341418222408 6.2512632492183
Rh 8.818267479529885 3.1910847448396646 5.401965618976532
Rh 7.313869273185653 7.716618706289858 6.414271578867117
Rh 4.634779743994406 11.153697367879127 5.246492269078056
Rh 5.052266521543359 7.540209373275838 5.280258537877954
Rh 6.512284618169407 3.163899454144241 6.596893280926036
Rh 3.1453076450268296 9.187040011463862 5.770871548971604
Rh 2.5554935033194117 5.196254070501494 7.926817506547612
Rh 6.531536353204304 9.567621825671164 4.494917215384841
Rh 4.204112218834928 3.2609338762863023 7.860173312903543
Rh 7.322334998296518 5.35812667125927 5.317056426885603
Rh 3.9299934608833933 7.417502671169803 7.613196362351314
Rh 8.225253062137025 7.553327161657997 4.022379118204212
Rh 4.951015640676167 5.326065281952144 6.521986522396437
Rh 7.4059902437036085 5.472623705550387 2.725013434004524
Rh 4.17691991444711 9.380852417495506 3.3971251298748166
Rh 6.658567859884695 3.2475660662557 3.9521277367125975
Rh 5.8969317233780885 7.551646151372949 2.885312243571553
Rh 4.347806630049927 3.119104381600272 5.185663439495197
Rh 1.7731453449154815 7.066919849371826 6.313783464505866
Rh 5.008017356895729 5.30443305291727 3.861102388762591
Rh 2.954574182654103 7.148194676973453 4.000429741691939
Rh 2.735504375576069 4.984569040597411 5.3084039113602675
