37
Energy = -215.4660828 eV
Rh 2.5869239260574024 5.426074264534806 5.035283513353345
Rh 3.060121217955168 5.018195979465275 7.485625372935656
Rh 3.4577040004484876 3.6631684657187518 3.347642719967524
Rh 4.446504515555201 3.7314162631407317 5.639164774040695
Rh 2.778290367676691 6.5939073495968055 9.48573828878926
Rh 3.359023267875179 6.188541913508734 2.710173571282978
Rh 3.9153795822540918 4.329618365946873 9.90909380228847
Rh 3.3731866028701494 7.888980222210629 7.245223084279162
Rh 3.2431427834856557 7.966026894690573 4.574295240423259
Rh 6.389788031958721 2.1231369013427073 6.134351815635525
Rh 6.3036625910041995 2.8626428417671654 3.702985531988757
Rh 5.271818660809953 3.380691545800327 8.007844382721334
Rh 4.803534870926723 6.477973199459728 5.860948935030573
Rh 4.9769927347700404 6.358206964684193 11.105336769191927
Rh 5.439868286479184 5.16578102097448 3.7431677911613286
Rh 5.873837142247407 5.677465013531687 1.3667400864545156
Rh 5.185968219156623 6.029487888807669 8.395407531756828
Rh 4.700426394300621 8.298000594776134 9.456820306136258
Rh 6.870052461800113 7.719159967307239 7.274538254085996
Rh 6.643479682113495 4.60518270635732 9.906929158263333
Rh 5.343323967212339 7.681052480455832 2.953248695693552
Rh 5.5602123346897185 8.935395612334045 5.234543900704385
Rh 5.273466734447298 9.682101525474781 7.5464742495194415
Rh 7.870956890831178 3.268121380185889 7.8983891809894695
Rh 7.287657037313408 6.932977577877324 4.674842928259137
Rh 6.7633423554966186 4.9952955290159915 6.404869095345116
Rh 7.063701098530389 7.1765971494142695 9.790876236510714
Rh 7.7921943751028655 4.892695388853573 2.9907779361934597
Rh 8.362489322581922 3.5770394709970645 5.187559995534393
Rh 8.372934165724196 5.710420027808405 8.251734708978297
Rh 7.253484708422654 9.39741460756201 3.353053696257835
Rh 8.072339111629995 9.39547746023223 5.7721949942741775
Rh 7.756906833071353 7.235086451676284 2.110868634260791
Rh 10.037357503168339 4.659950954016656 6.769244431307992
Rh 9.723217937317859 5.62519499019423 4.400908531165458
Rh 9.248027998372237 7.172173879274689 6.377603062087854
Rh 9.489443967865917 8.108584695699232 3.8995539099654484
