37
Energy = -215.94034458 eV
Rh 9.062680941877819 7.060778540958031 2.7870896758715897
Rh 7.347500719034067 8.933939243100028 2.186413720665263
Rh 8.22599086596811 8.714954476825529 4.531031688147073
Rh 9.73871668545747 8.604819372679085 6.629473240087471
Rh 9.731996082132488 6.611804063488671 5.157283589014193
Rh 5.880116270529832 9.730562167119492 4.080896187265575
Rh 6.593032941081958 6.628510279248455 2.603481414812762
Rh 7.277564900970733 8.370603766875375 6.986499032754044
Rh 4.4294597255034125 8.02509205591599 3.0204284604707845
Rh 8.00363109139925 5.038909744763395 4.080075597390073
Rh 6.103898440877561 7.318757870515622 4.936708840567639
Rh 9.77693020936185 4.172924000219227 5.842022471648853
Rh 9.806963103162223 6.150115699307192 7.71230235649443
Rh 5.647985075128425 10.163326819153522 6.415700955616847
Rh 8.761454421182336 8.222180194061727 8.990570075698058
Rh 4.535068675112092 5.396313489762463 2.6454964879721925
Rh 7.028636802369844 10.343586253615966 8.588885492226959
Rh 7.610846454627953 5.815173193272444 6.4912655479900465
Rh 7.451510601635423 3.1007915628658096 5.707235691342844
Rh 8.339499170278497 3.7599984226836916 7.958927347391657
Rh 4.433482050789798 9.854668558387294 8.604304277919034
Rh 7.699863270141147 5.962413724983861 9.14042622471582
Rh 5.6133438873602115 4.746087842511621 5.080995162573033
Rh 4.178678550636312 3.098581026624872 3.2603769844788073
Rh 4.372142327168693 8.039150289969685 6.781620418073177
Rh 3.7062274533833897 6.396063670713222 4.827744867387842
Rh 6.151854103542898 8.168832447954495 9.359286698146239
Rh 5.487742620195251 5.9915979270756425 7.847313935084663
Rh 5.114338396541065 2.215712964381557 5.433119665270913
Rh 6.4356578927733725 1.9848741129459977 7.760174628886068
Rh 6.128320855938551 3.947182866723434 9.338216650844338
Rh 3.6652065652126447 7.3514823389818575 9.224413091106712
Rh 3.0845225897380577 3.92690205564525 5.366663438980595
Rh 5.5464881688544585 6.0848319366422245 10.596486745126656
Rh 3.039815199027536 5.82217709649813 7.210899205901339
Rh 4.529166616825017 3.6499017084447587 7.416606623958505
Rh 3.602784374422307 4.739516315326436 9.542681608360933
