35
Energy = -201.77668182 eV
Rh 11.239757620999894 8.054405097627514 4.253188348153562
Rh 8.623444128828648 7.782478991903349 6.668650930923345
Rh 2.60209582256257 6.177921457067577 8.28562248909117
Rh 5.2757131088555225 4.585376090132767 4.3240036818373975
Rh 10.697310790133987 4.553976188203538 8.22314552362258
Rh 7.55173314295351 9.585448621823593 9.968376402856757
Rh 8.369279363715039 11.14211452780248 8.236203431181293
Rh 9.595090850409774 8.720894854474782 8.76603526667108
Rh 5.029355048148427 5.883162041546175 8.518771262286938
Rh 7.172812414182409 7.284127354760342 8.933293605888794
Rh 2.7768245529881685 8.266735454065078 9.647159630946243
Rh 6.99128427187808 9.056470910712656 4.898057464905929
Rh 9.330942378522169 10.139366432952885 6.214631746718059
Rh 4.021484200032902 5.753711047151462 6.13227518678196
Rh 7.176283724320674 11.395025178479397 5.9327193548026775
Rh 9.330197536766995 9.591687303337912 3.8716820518060184
Rh 6.5736257621042 7.579678675861013 11.317377886821498
Rh 8.942647222945814 7.100942749298055 4.316043360876714
Rh 5.176385761891229 8.858753339626933 9.581513541231791
Rh 8.547933895147171 5.212591632073894 7.190073605269637
Rh 4.36400727233256 6.5437614660858765 10.709822028748905
Rh 6.408698756381395 5.098241164022621 11.46944649494479
Rh 11.254871895757665 8.720534608130718 6.60154660479005
Rh 9.350568760897096 6.220597868641849 9.61323434733587
Rh 6.5024115553567485 6.721348794122704 3.9828235093327247
Rh 8.592354427229846 6.248222430443631 11.853789520342167
Rh 6.215620842000345 4.491446180013966 6.686992073510027
Rh 7.146250383311224 4.739204943578148 9.199804349011389
Rh 6.188956434206964 7.062531132840886 6.398969589771694
Rh 10.619601184057851 6.164685864079378 6.097010649302334
Rh 11.418400853901707 6.94861427527279 8.376762601289919
Rh 7.922961439149467 4.82000967138482 4.778295487071021
Rh 4.092343081904126 8.077696067925096 7.422664365655045
Rh 6.492428949043029 9.46460684250271 7.47872604938328
Rh 7.480597156232135 11.135229076351658 3.542853846524463
