35
Energy = -202.958941 eV
Rh 3.1317536883705386 4.387330581567849 8.717842460706551
Rh 4.64907308521472 4.550356884551024 2.8369702977390414
Rh 9.54456932331327 4.980858322477 7.392782650903706
Rh 8.85912787597141 7.153722213108577 3.532120678324552
Rh 4.619769776028251 7.002984349382412 2.4389835194953897
Rh 5.643725485985612 9.811040868794397 4.272077739913725
Rh 4.503601835249061 6.333219801376202 4.951510965121272
Rh 4.752852678919472 6.238294103576439 7.793449010559577
Rh 3.4575429647440257 8.516696301824766 4.0838762558781605
Rh 5.273233303016406 4.737251292055427 9.945193052888673
Rh 2.5063323932284707 7.479708996639921 6.153854093733117
Rh 5.386800697860966 3.5998879272785502 7.679086092295639
Rh 8.431805154473098 8.928562483147799 7.375063089505088
Rh 10.427069260525952 7.552832310613398 8.177586715487912
Rh 9.45052209581742 7.068109876036191 5.924289697286958
Rh 6.535087758795089 5.168868254629708 5.90874093784111
Rh 3.1561804738094494 2.5450575303136045 6.912131643854071
Rh 6.751324832267966 5.782116880259745 3.4241936220282696
Rh 4.610689211308052 9.476480841584193 2.0270372060116433
Rh 4.773189799915594 8.484368708281991 6.4409780365764355
Rh 7.81138182364731 3.127528299047735 6.596147351081484
Rh 6.990908449639895 7.80237426161327 5.276282696238194
Rh 6.781912139564961 8.278185318262272 2.670758485188631
Rh 6.749747828018804 3.3015266555798233 4.10572907915214
Rh 6.526974541511704 10.275447130461522 6.509530329396666
Rh 6.6732679271581885 6.713873384686287 10.120857904694725
Rh 7.529938015988898 6.568365817884649 7.701162302109593
Rh 4.434540566475443 3.6784187896935046 5.12627619960482
Rh 7.55206785929369 4.3241662183084575 8.864790118812483
Rh 5.744886508746054 1.7339433102095396 5.97691316380289
Rh 8.486367378382853 8.565790221589781 9.876259937609184
Rh 6.146837852176925 8.561964407829409 8.498752585204544
Rh 2.7162358330092675 5.030154026600073 6.354333733028519
Rh 8.770139650214613 4.811475516529835 4.883728852251404
Rh 9.12583036329807 6.112161012889099 9.765152324943355
