38
Energy = -222.51508651 eV
Rh 4.375936437474814 4.043207377602164 8.319753969195082
Rh 5.366870915840133 2.009118183236803 0.882678275565862
Rh 6.8958226552494954 4.135326312528907 0.8719926025773636
Rh 2.80900333712439 2.34561580311322 1.0780702135108888
Rh 5.302044268315935 6.171112858171309 0.7669578360997802
Rh 2.395938912131682 4.90628595865827 1.0809667902777436
Rh 4.723438381107327 4.266943543254319 2.2192937495565976
Rh 7.446251593204885 6.4083060037562305 2.0278779165249956
Rh 3.224128434642318 7.3183194875354065 1.1969681296930255
Rh 0.531673594526069 3.0434449990776593 1.9933699735478478
Rh 6.584957008116433 2.6300538152664896 3.057988268347706
Rh 4.227113919961038 1.5984782559918784 3.074548101502033
Rh 8.602884448842152 4.250117433384698 2.9347072742957163
Rh 6.4091612959156725 5.195761301205762 3.902482247416934
Rh 2.592909018952364 3.6041196202659407 3.3932115644240404
Rh 3.125809090489055 6.169004425988182 3.360869357017132
Rh 1.5628066423350617 1.2858902375276582 3.7150849774373174
Rh 5.253481268853713 7.434725900599795 3.13690186879954
Rh 0.7421302353372555 5.4114715395548965 3.0648533181558535
Rh 4.3562969333806985 4.569752250769071 5.251824852781297
Rh 0.2223728966375482 3.3932304811416243 4.564680582986466
Rh 6.626467365022652 7.4054091369427715 5.298761537874778
Rh 1.7920293991480056 5.33050885408197 5.454501452418927
Rh 4.088874092700537 7.077062494950584 5.497101874219067
Rh 2.468954411268947 2.7658219049185155 5.787849918345913
Rh 7.733137283272941 3.301939014762284 5.25943565161435
Rh 6.546764845749548 5.153044505271567 6.509049446609428
Rh 3.5897202871250187 0.5136721928409081 5.200982714455589
Rh 5.416294745964461 2.2418998622561506 5.328276334284181
Rh 8.643285824638529 5.813481873532061 5.002193021745878
Rh 8.643285824638529 2.5238659725083874 6.810153029189119
Rh 4.327822092903112 4.418605422573438 7.703869701703399
Rh 2.7477901901575974 6.36332162229789 7.58710576634272
Rh 1.6645211966176152 4.09868066900947 7.674345078713103
Rh 5.242578950349516 6.886391648284369 7.688293903401913
Rh 6.395395885896669 2.87383767165398 7.546087249639346
Rh 3.9975808256127965 1.8378322583938032 7.48629040214189
Rh 1.3647522055175982 0.5545505556725744 6.31090776260833
