33
Energy = -190.39712624 eV
Rh 3.4814127203705456 8.32993722004959 6.337576985498252
Rh 5.909027920892582 8.93145136103356 7.046104975061024
Rh 9.767213234093738 7.152054687511233 8.179012113865864
Rh 4.586689782622757 7.429760993834786 8.482060414349347
Rh 5.815561705114895 5.829570401890526 6.745504077096629
Rh 3.1075415960752166 5.493254260938194 9.60991482903313
Rh 11.16256803169563 7.74931349105534 6.335077200083104
Rh 6.867751502609355 3.974134403174366 5.341404898270764
Rh 8.590363638204906 4.9703164158897986 9.111135878445724
Rh 10.092927080996926 9.644955325993635 5.270024104685474
Rh 6.391239219706067 7.64266723838759 2.589991778428144
Rh 5.672692426489354 10.99127985950895 5.735744758540456
Rh 4.272438806448765 4.137964898848523 5.601009358713912
Rh 5.544039533651158 2.381068474989625 6.866717972251127
Rh 8.214584432690557 7.961876505318819 6.137637912875071
Rh 5.472542495099521 5.823526866489054 10.204510455575337
Rh 8.988087418062781 8.255189947187308 3.595455743307773
Rh 6.8370601028862295 9.319698127739473 4.384862595823869
Rh 7.172295036780772 7.136558888909381 8.526179216521063
Rh 10.079468968011332 6.255709107784361 4.794889940017171
Rh 8.178292067812311 9.451575577631818 8.269440020416669
Rh 7.61915938049004 6.165409477737811 4.20911795331406
Rh 9.128845063891857 8.272902398670814 10.24621016350711
Rh 3.231045950296588 5.902458965636716 7.112814404787878
Rh 3.698782877570428 3.61105434069622 8.118863751479239
Rh 8.524385037045347 5.4596457747695615 6.61096631618529
Rh 8.075559698763819 3.0892419034168253 7.41240468438551
Rh 3.108145766620634 6.150522402281242 4.634341952841703
Rh 7.762616470715661 6.323138488444273 10.90114820240961
Rh 5.2237428232010545 7.454460798162035 4.826874668519465
Rh 6.122316652474453 4.1795807853999065 8.55751943108842
Rh 8.101904390877372 10.721665513489244 6.182727187311656
Rh 5.379869914285718 5.263244620662687 3.595631574756981
