32
Energy = -182.03770113 eV
Rh 5.067310745693339 10.597676435836133 8.122207398481804
Rh 4.81084553489956 6.06158572109284 9.670009988960286
Rh 8.671984404604972 3.1572923599245204 8.238354077248813
Rh 4.049931185040677 3.4292930289288286 7.6133541622765035
Rh 7.681595036799649 9.37937121488511 4.7851798403305965
Rh 8.937613304786803 5.636032231674837 9.011146856185807
Rh 8.399308415772978 2.7597594855669043 5.716224111944532
Rh 6.498743165821413 4.50274656899395 5.803800648504599
Rh 3.079041791865702 5.135752682047431 3.129221890852992
Rh 8.057485385487961 5.465534752693655 4.032187186854999
Rh 6.433400229842594 2.5231713257975072 7.264247292694663
Rh 5.330958655625654 5.943204968512533 4.004176415318561
Rh 4.716236701099173 8.194541023287629 8.201299966717686
Rh 6.859904205743754 6.899682031713442 8.456279146418668
Rh 4.688797355982675 8.092344915491315 5.725789226054907
Rh 7.130927902367345 7.581262602685523 3.1940272441088062
Rh 4.201166411401102 3.732104458451499 4.951137546855301
Rh 3.101799694935283 5.9904884403193295 5.510868012241909
Rh 9.103142820488868 7.56377480847945 7.373178560334969
Rh 8.82253127416883 5.100723189892489 6.544660388060181
Rh 7.090638543490445 9.272245785861028 7.548044374968096
Rh 8.94629682119241 3.385737919082167 3.4987014365316598
Rh 9.317799788896048 9.791908671496751 6.449797021062944
Rh 4.455868675940889 3.63245326189969 9.937513251199972
Rh 5.610945113247369 10.392830624650612 5.760617494332272
Rh 4.769087342588239 5.719780535616663 7.221044512019991
Rh 5.302773844972621 9.257462766994454 3.4994567947410498
Rh 5.061879969382661 7.234255235114107 1.7990977039958114
Rh 4.547723697783293 1.5997739270981364 6.025007772455502
Rh 7.123838388818936 7.156100872399695 5.8182935755922065
Rh 6.654780198803924 4.399104338843852 9.018876251412461
Rh 3.354230345274605 7.6342364337784385 3.603807285125267
