32
Energy = -184.06216382 eV
Rh 8.911496771167254 4.710490906989254 11.908304701859514
Rh 10.774534976236396 7.666554019058112 5.196198818030966
Rh 8.655510159693607 6.183339463043158 5.405141585936032
Rh 5.9586932811717395 11.073093003265184 8.392100882410155
Rh 5.41848912683065 6.525803877507146 10.435731568358106
Rh 6.248511814940212 7.3413648225341355 5.05318231117784
Rh 9.606733451469934 5.573508393014688 9.577622860986631
Rh 8.578213300956381 8.804871029136333 4.782009216600475
Rh 10.143643910014061 6.842758235229584 7.449163071815582
Rh 8.934861373131799 4.555373722473724 7.328328023556058
Rh 9.862778027265751 9.377336582095321 7.097140747183739
Rh 6.640191130640331 4.34737084124287 11.006654083461736
Rh 7.7675593403812 7.931676355686278 7.166037007213948
Rh 6.799395446231486 6.258154877396995 12.618644646765151
Rh 5.567326420194633 8.69290467644098 9.209872200596667
Rh 7.061302972020123 8.134280514240467 2.7857768894349912
Rh 9.002692279036651 7.216661344610828 11.721460892138497
Rh 5.449047089802885 6.762795796791184 7.423456284055389
Rh 6.324372988450805 9.88030387450495 4.40499544761179
Rh 6.8288007484485584 8.640604685151892 11.424414299530401
Rh 9.339349451241798 6.923929768570937 3.0890311270838304
Rh 7.140553674706604 5.580622209945014 3.4302497553944074
Rh 5.495581915850575 11.646764899915516 5.931511495245671
Rh 5.435450414559423 9.206731241657971 6.740515964481767
Rh 6.581711908581869 4.921389128507135 6.031239332545509
Rh 6.822083152814771 5.023481741787301 8.608573765742776
Rh 8.472881029038938 3.3204965886456494 9.63859673325382
Rh 7.671130094214809 7.151758816990997 9.5708456756454
Rh 9.114998049016894 9.734992694621655 11.38277395910526
Rh 8.06717578951668 9.798258185635474 9.033728306831305
Rh 7.69321684575699 10.607133388225371 6.554993843233593
Rh 10.013030354557676 8.226411373936651 9.55254453903306
