39
Energy = -230.04199545 eV
Rh 7.817946834801234 4.810886334854755 6.730748328915171
Rh 5.207928668050616 5.303990507459447 6.737230603698211
Rh 4.789886148689964 3.014352243908507 5.725640453684352
Rh 5.170360636439896 5.271652666271818 9.356617449260744
Rh 6.139947100592189 3.167153016352184 8.001324577014637
Rh 3.580967654016719 3.7838685916081807 7.974272715599985
Rh 3.132442142824437 6.377874655841366 8.00268412739445
Rh 3.913433270154422 10.057829302171887 5.726795332006098
Rh 2.8880083678880535 5.046419971827694 5.73251183991117
Rh 5.857618735600282 8.931788797042909 4.407263090476094
Rh 2.924402715251003 9.0016546782822 7.97490884780311
Rh 5.254330805214526 10.239248532855145 8.000421163963804
Rh 4.830674968232895 7.954655156864154 9.355214048399366
Rh 2.569274515078704 7.607869234978915 5.737597869995163
Rh 6.838104622827826 6.845649927985142 3.0582092888494428
Rh 4.879819414063858 7.941804397159642 6.736556155858405
Rh 6.40296470699586 4.584804654004553 4.407958653829334
Rh 4.554613064057228 6.55891749404542 4.411882362244111
Rh 6.83535061415158 6.843029116737289 5.532463521193581
Rh 7.318776674627404 2.5319693278163973 5.7416367385399685
Rh 10.12976421743474 5.03755638652476 8.000928475804782
Rh 9.08890787032658 7.132595475288614 6.724324463252575
Rh 7.2840097367224725 9.061348054505807 6.728176490009491
Rh 11.104378232943626 5.957854639737579 5.742556260052938
Rh 9.868462555905177 3.7136850574139784 5.728368657034772
Rh 9.582695596731142 9.411596225668573 8.001641025825368
Rh 8.865290145053761 5.732331945983962 4.403753827019582
Rh 8.525005125425343 8.428285987232341 4.402706254658479
Rh 9.007597970833004 10.625487127639053 5.733119178028408
Rh 10.758615570112577 8.76085868771968 5.739963238789959
Rh 11.288822720521983 7.403010170274204 7.979205803956555
Rh 9.132069269920796 7.1329640879158145 9.352581295527305
Rh 6.849682445716412 6.847118086517485 8.080700035325982
Rh 7.686860618687105 11.242388197595803 7.979119416555056
Rh 6.850812334180507 6.847541994488406 10.64459964960679
Rh 7.826451669147138 4.763691969569661 9.353134402659922
Rh 8.74451126882904 2.794799466647481 7.976755771607026
Rh 6.237788157008282 11.146992145648877 5.745494654123853
Rh 7.2813149051572434 9.104367832135832 9.350825925380734
