36
Energy = -210.43946618 eV
Rh 6.703816661713362 10.50098282699348 9.413481138530667
Rh 4.460012647245516 9.974678646811677 4.7684376691011074
Rh 5.376233179597375 10.354414829250423 7.263461850024373
Rh 5.365559182777247 8.427955375078358 8.893268642966829
Rh 3.2739650660157418 7.830174918208224 4.13265065956126
Rh 8.076902126722798 8.448890127573264 8.704837094496593
Rh 7.932591798547768 10.40534797408732 7.173566537895871
Rh 4.295568096636619 8.154395762781734 6.536898276065379
Rh 6.685292710389169 9.051788252543982 5.4714083924058015
Rh 5.700756383723494 8.204264909618981 3.2567222572981267
Rh 6.645669758252358 6.918296379734567 7.003776694963659
Rh 3.62156982691698 6.629322338264434 8.448338971606917
Rh 4.653671653612338 6.919944094457855 10.780721688743816
Rh 1.9582612380084699 5.794565430967125 3.592930666593338
Rh 2.7456950759077294 6.120780480838362 6.04555427420606
Rh 5.203170492948614 6.272251624794011 4.922310100745408
Rh 4.330258239943563 5.918219982150145 2.598468668423272
Rh 6.885155864551178 6.4324804482729 9.59910157488847
Rh 7.676891807951036 6.966882932547611 4.354570767809004
Rh 4.809530900851078 4.825713362156412 7.013321620190401
Rh 8.974127462888273 8.083768815200651 6.294846600225986
Rh 3.6759122706785385 4.243447123150801 4.5852797524744915
Rh 4.953640904123473 4.726301098347743 9.56172045906256
Rh 6.844399605530651 6.169737763265299 2.089718738365379
Rh 7.094770405717306 4.241055418741729 8.256685658495737
Rh 8.533695623545741 4.659680120901273 3.382483353009314
Rh 8.904367983247829 6.11579483688668 7.96658113734268
Rh 5.183940180903304 2.559450959628919 8.12683781065548
Rh 7.22147350052212 4.661961090538901 5.66848941827975
Rh 9.641011063247099 5.690749304339568 5.500000863500785
Rh 5.430519335557584 2.734033941468262 5.535591130880294
Rh 6.0081864234007005 4.108884234267917 3.3631308973881313
Rh 9.28022133338584 3.706421229709214 7.05994827109715
Rh 7.451706983705031 1.9617580085140667 6.977175738354411
Rh 10.147748761142736 3.2680223224387426 4.7282577772832335
Rh 7.772880611649572 2.4415622740177185 4.494181529145759
