32
Energy = -184.34881398 eV
Rh 6.712116944190546 5.4630668391602875 6.050071183891374
Rh 7.252183010123207 5.660826448519874 3.5766558638781767
Rh 6.4094736928323846 7.476008372506285 2.0933250655886053
Rh 3.3547043951538273 6.810681051645438 7.212545191228665
Rh 9.043208704293326 5.813719335876075 6.6233300691670935
Rh 9.37614097263432 4.004315137019352 3.6558006032554538
Rh 7.054374755902811 7.04246755554863 10.605432393463285
Rh 2.4535446911979824 4.41473583784795 6.737761702688907
Rh 4.204120017832058 5.377735996154155 5.198224884288072
Rh 7.945200178420069 8.170239962784189 3.9844185946950272
Rh 9.085555833695846 4.073944815308613 8.478458928211293
Rh 4.77090111012564 4.514807001542238 7.739672396390434
Rh 9.245929170836185 3.3962176909313055 6.051464621974119
Rh 7.117419203066677 3.3437784391720706 4.671227175600763
Rh 5.665088796639015 10.748256903602345 7.623658231318787
Rh 6.937407835439738 9.306900573739492 5.9775389298431305
Rh 4.838279385845633 6.604174547561791 9.493203893693481
Rh 4.848363951036357 2.989415521939238 5.714055651736576
Rh 9.615841846007834 6.342658994645339 4.329638621029507
Rh 9.288359116254945 8.298890710622976 6.169584230480336
Rh 4.223180369292594 6.431777531166916 2.72949396646693
Rh 5.600799571751624 7.510406461900806 4.576784297343121
Rh 8.159646332855766 10.002328585132616 8.041171916719472
Rh 3.028381050748757 7.5855452811807735 4.815402889506212
Rh 2.768943117008276 5.234298838556961 9.12454793518268
Rh 8.21995276800239 7.518955337060117 8.334485188724186
Rh 5.864466948679101 7.478997868017681 7.29979249536727
Rh 5.195688529152135 4.169113090824878 3.267580721763894
Rh 6.160904357816747 8.951148125235097 9.240515590111933
Rh 4.342572523470107 9.155625164912205 6.243168034532648
Rh 6.974273820463165 3.2311349166304044 7.281513440229242
Rh 6.973552126037308 5.342539883542574 8.790157927554587
