36
Energy = -210.75662537 eV
Rh 4.554395506559547 7.828937833744219 0.5086245184868319
Rh 4.121866135584131 4.513289449518989 1.9539645868951996
Rh 2.8363770127014094 6.682741093235352 1.726515227424992
Rh 6.640777217263499 3.691057644480962 1.2486914346546574
Rh 6.090208417837361 6.109565828674728 1.2572532065825366
Rh 5.470434155491981 2.7506486590962003 3.3001450132618535
Rh 5.837786485837865 8.330260261124986 2.585738843290316
Rh 1.7051187847574936 4.806473929541616 3.145737746223192
Rh 2.8965135999507403 2.4577598415946307 3.243847978501551
Rh 8.26397886481584 5.31026573887295 2.467430476454378
Rh 4.070045100474301 7.174227707858637 3.7643900141407647
Rh 1.5784619117244434 7.234591416586909 3.9345496853758455
Rh 6.024200823613571 5.417609094129832 3.701917620624182
Rh 6.689949416503632 0.9188139373617009 4.671983388179386
Rh 7.556979898650838 7.2817219963697815 4.166542919362523
Rh 7.9494942389952445 2.940392189937234 3.450128215812767
Rh 3.709213141901932 4.537792983197017 4.519851269240957
Rh 5.636700066862237 8.551632561888361 5.2701959740945075
Rh 7.211282158040379 6.749870269824573 6.7001674863735765
Rh 8.312735544256581 2.4558902914889296 5.929387360636836
Rh 8.1043840810024 4.915845811309275 5.126841511266703
Rh 3.009936016205858 7.898671027492376 5.945325079547074
Rh 1.7455549256739624 5.526011683789998 5.771293550294445
Rh 5.924495546932064 3.6955782624839153 5.6780270937599795
Rh 3.8546137987018056 4.165191898532577 7.235977020686979
Rh 2.0680956455346564 2.9063722968675196 5.772501943831115
Rh 4.979071218964423 6.200285620425084 6.025274477860021
Rh 6.135630941494831 1.6794374863211115 7.125494726181063
Rh 4.294265942729516 1.715541667830679 5.322005422553116
Rh 2.9043207283139774 6.372917158699201 8.002163650787235
Rh 7.2885703556784565 4.25657800751582 7.604357561510081
Rh 4.851901200691355 8.090406245929298 7.750667402448288
Rh 5.4203768369850325 5.745202383738468 8.560131940227285
Rh 5.372309299534141 3.2326994029955056 9.017961716840897
Rh 1.449752295555361 4.263769745957608 7.922037470140046
Rh 3.60617843050428 1.757924317909283 7.758852212772865
