36
Energy = -205.48948343 eV
Rh 5.5372694140583985 3.827301713848787 3.217449595208091
Rh 5.07181792322398 5.314212246111782 8.829688060220075
Rh 10.357830589985126 9.40189633309731 4.919578620735805
Rh 10.53948352613783 9.224122924481435 8.84317098857101
Rh 2.7150154671481213 8.43900901691262 8.38324416398678
Rh 6.0137056381949625 6.009830895441225 4.217032409775884
Rh 6.656394162135179 9.36571553932493 7.030047517945953
Rh 3.883562431050036 3.7571379972018755 7.3665972540096805
Rh 6.393534992430171 5.648803985812124 10.800573781277022
Rh 8.19419436535117 4.772204378748318 5.27729824588818
Rh 9.311673545284473 7.106509546057932 9.290053089750339
Rh 9.708162974607347 5.896034854161514 7.003270867552117
Rh 3.7250905693843457 3.108920519770035 4.7749309972542475
Rh 3.779286562394825 7.2116391664060835 3.598208405537795
Rh 3.3794305520761787 9.67363008291942 4.276797639914508
Rh 8.059971820296534 9.336945232269718 9.187666376993349
Rh 7.2920560755587545 4.840714115033716 7.67972907888184
Rh 4.148219716064304 9.76946458771746 6.706030730850299
Rh 7.742542009787162 3.0306489669723997 3.6987567837286672
Rh 3.8670687720628147 5.547527734714388 5.457383962284251
Rh 8.350011891105542 4.717555068434392 9.808705124515505
Rh 6.831226571932606 7.208139112789322 8.8683229454202
Rh 7.278332172374842 6.9634711279862636 6.221249401055433
Rh 10.604273054995705 4.983095070613535 9.051656338304495
Rh 7.915370891830488 9.101314983267953 4.74786842073089
Rh 5.890326784088636 3.869894960851602 5.813645228952151
Rh 5.560516564374049 8.51499000903294 4.816176728599259
Rh 2.685679759524167 7.808928566450316 5.843714007476919
Rh 1.8003249649391133 4.198090322605586 6.057916986437395
Rh 10.584504477293258 4.840260602013585 4.665078827041909
Rh 4.831095700962114 7.258375308317188 7.203184375473027
Rh 2.6216110788825975 5.997083730153143 7.734579760086974
Rh 5.157352994268082 9.124678652198165 9.02535988834806
Rh 9.198061980387022 8.560844213313363 6.932488020763832
Rh 9.54259256739271 7.067166995829928 4.750091777327161
Rh 9.859619064846282 3.5583651065575315 2.806965468758841
