30
Energy = -171.839908 eV
Rh 8.347600749417895 8.863640295493965 2.9367930328958383
Rh 5.964832234892257 8.059782860949884 3.6368288210442334
Rh 8.075987162242525 6.571773749155276 3.855007432945135
Rh 7.785893854660518 4.086436364013097 4.608973836303494
Rh 5.727474994375194 5.4990969357390265 4.025917274750675
Rh 3.7921139772775985 7.18530354671297 4.517459815531398
Rh 8.758479413289958 8.561027266135183 5.4700057808253835
Rh 5.249078852107766 3.081052309798572 4.734585993749183
Rh 3.445827782231793 4.756918980197185 5.264473840954346
Rh 10.278947570014667 7.123314130753977 6.8420903765539975
Rh 10.045456928193692 5.292014418593266 5.146886023754112
Rh 1.8867171557245297 6.612603177379788 6.141164028753421
Rh 7.049195428621438 10.23207608455474 4.585906289171387
Rh 7.88967539801966 6.157038694736097 6.347467309623257
Rh 5.2797364218614735 6.000476305362904 6.425553643835617
Rh 6.44496474101445 3.79706709604205 6.741297304864473
Rh 6.682797070346653 6.191386594191824 8.644013120195197
Rh 3.3360329186142677 5.542061469290774 7.877667769810392
Rh 6.192724768930277 8.388255676871168 6.11361330282858
Rh 3.7489957328221877 8.04382177045283 6.974009933699887
Rh 8.92498218295309 3.8253975824225144 6.997779078646115
Rh 4.136098007252109 3.2614930268815034 7.34830425838703
Rh 8.115452093959178 8.226404976211816 8.016618892769579
Rh 7.627693917064277 10.504308246173158 7.025186990313917
Rh 9.107960224275262 5.724535761568501 8.678570763144268
Rh 6.040905781781722 3.8823490674340926 9.180778877576813
Rh 5.1864922276427725 10.308684236402618 7.429824608125212
Rh 5.474929959986466 8.31232088950193 8.79625665197259
Rh 4.570086878820888 6.041802921165787 9.829755409340033
Rh 8.405990555267543 3.4406805494755632 9.380334521296659
