33
Energy = -191.64152882 eV
Rh 7.549834892802316 8.533576559741892 8.869187427005524
Rh 7.759599202249672 9.607921075483747 6.498998278119986
Rh 6.624957120316792 4.152321632942365 9.61063130437508
Rh 2.9500916448673604 9.449941805331422 7.393021148711174
Rh 3.858838113277673 8.054244520813441 5.351037600815348
Rh 7.697815235821809 2.7639671087560074 7.660080513285729
Rh 3.236202458834156 2.71928528853803 6.995013431099198
Rh 9.651685220609986 5.765841381998454 5.017041751964452
Rh 6.211572578625553 8.865327010510919 4.495012061475185
Rh 5.4074480456523935 2.192258678546423 8.591182413836894
Rh 5.212305586501575 10.105179247238068 6.446519980259332
Rh 7.951823855243362 3.718855026755279 5.3458385017576076
Rh 6.913153434728831 5.218378230590537 7.223462065756805
Rh 5.86381726820367 4.253153683010415 3.8713678846086976
Rh 9.736338489355587 6.81043827878564 2.6719545707438614
Rh 6.277770237891716 5.470388175601981 1.6208007844502303
Rh 8.67303657008451 7.171785486880643 6.959185308183182
Rh 8.393908572914354 6.036843831179252 9.285303642981038
Rh 9.426924768172336 4.662324503532679 7.3208831009920825
Rh 8.25973769370419 4.811571842052145 3.0417699566126677
Rh 8.819568275241796 8.238700403441692 4.6041318816547365
Rh 7.129000127602798 6.28168089036117 4.772502028903726
Rh 5.502979609026919 3.1941400421584727 6.156498784824523
Rh 7.328302157476066 7.5511781990965385 2.5918296566985397
Rh 4.66998343974927 5.616743468004985 5.744552374236785
Rh 4.999063683402019 6.800605796768944 3.451678834312058
Rh 5.837814822700834 6.588987526000454 9.23308986348503
Rh 4.498398461521051 4.579089990133358 8.252476966095818
Rh 6.086156344933577 7.674090178273394 6.815272854989484
Rh 4.979213522492667 8.987314195087562 8.80893874638076
Rh 2.498475315010903 5.039513549726248 6.690653043458619
Rh 3.6719387009427313 7.017339088775385 7.839365162351957
Rh 1.682206986894259 7.304219135874481 6.2236433491094285
