34
Energy = -194.95278202 eV
Rh 4.1632888735076925 6.043795461941528 6.3956144342499925
Rh 5.857725262456526 4.476250353247586 7.485914387169762
Rh 3.337885815435934 8.449551757111713 6.979937630105082
Rh 7.09334060440444 10.615313881147818 6.679008996564314
Rh 9.786286494168895 3.3786619728527816 8.999854705833295
Rh 3.7443530344031024 8.417880066648891 9.415444286359444
Rh 9.377698582345362 5.218010092532459 3.491600299725176
Rh 2.781662101966667 7.944567025715341 4.688165766612684
Rh 6.539857668784502 5.618729875858217 5.287854296743785
Rh 11.225075409556041 5.434917134651212 7.540861182591977
Rh 5.836467301539638 8.072930744685314 6.505187658772281
Rh 4.144345633486878 9.703051816107461 3.6059561344788795
Rh 6.658507776081526 9.378860923770166 4.3822714042875965
Rh 8.657494781423622 4.143035587412679 11.154070241692418
Rh 4.397967352249055 4.92388210807354 4.085121350641811
Rh 7.276236946689727 3.275007330902911 9.254466336523661
Rh 4.702787025198594 10.340196071017937 5.913372358209308
Rh 2.2182323195224645 5.618115276172814 4.837378992636323
Rh 7.139739722311121 5.729308643970139 9.878696035213414
Rh 5.3453093097393864 6.78011691260463 8.648661834182093
Rh 7.945810965535473 7.139909164365336 3.9885678574229337
Rh 10.062616325648031 7.691494794949296 7.90654298620072
Rh 5.1031360602717495 7.352348085701024 4.099981316385428
Rh 9.306964175218868 10.044117960833406 7.912752035172853
Rh 9.562756200279907 5.819927385619483 9.399311948254818
Rh 9.746854432211439 6.353429362331908 5.66972257585055
Rh 5.345522847606258 9.938712269855971 8.42077104405209
Rh 7.434704372220269 10.915457981542126 9.262253106793572
Rh 7.359002573219676 2.5052821532926925 6.867617763277826
Rh 7.48202640137648 8.39124420381545 8.691528042166695
Rh 8.387438911150696 8.51918569203179 6.07193010844318
Rh 7.820517084046401 6.095623393403498 7.437327139498987
Rh 7.891812407833539 3.7796863701955266 4.737908949667405
Rh 9.238097262085422 4.143316094872117 6.754397965317736
