36
Energy = -211.06707978 eV
Rh 4.413549503215501 3.919075015700428 9.665437229988509
Rh 5.481582780168861 6.231753780514499 9.551794616781189
Rh 3.231406181568755 5.6598800425766935 8.17232909057499
Rh 4.37146193741183 7.977631856937403 7.875312922538014
Rh 7.089944698973739 4.221826313250069 9.6563380449421
Rh 6.391780436151918 8.579885146840777 9.234387911386667
Rh 5.705650862934911 2.1852093141853572 8.204108631353751
Rh 8.161181444499507 6.583165548309309 9.190817832147676
Rh 3.581513891154419 3.297232368488838 7.057601154911896
Rh 8.304098566524953 4.691109998903851 7.453900943600673
Rh 2.2701668859447817 7.452614435817253 6.585240024427838
Rh 4.481209748158012 6.204198757491748 5.924316967693834
Rh 1.8847929119770794 4.970700643569116 6.032039542995767
Rh 6.704003043102563 6.981079301752622 7.1706789124331785
Rh 7.987830810846551 2.32704181234441 7.1339841267227495
Rh 6.193272136661974 9.534506690946081 6.830986526955804
Rh 5.714554656235163 4.625979775042577 7.545145050108837
Rh 8.540000788217704 9.025125217383746 7.902860881108283
Rh 8.297910979863838 9.075213275443566 5.318716598249172
Rh 2.86477687440787 6.768443183579715 4.090804831004011
Rh 9.164900964356573 6.966126969604432 6.583039322632444
Rh 6.221826137211053 7.689323583005984 4.74750093358437
Rh 8.513899874633935 6.814478094347423 4.061216604473766
Rh 6.861938232293387 5.138359748251997 5.180486774244589
Rh 9.529213516732222 4.758823562974901 5.200607673992041
Rh 3.8091515785428527 4.167903663920608 4.604542336851017
Rh 5.9360967660506825 10.234298767134376 4.3690737085735885
Rh 5.7524779008206 2.840343596687965 5.730080159035134
Rh 5.126676838898357 5.912832086353533 3.214313159243677
Rh 4.023179028565408 8.873212596375563 5.40197148456605
Rh 8.063477249820597 2.6966659117647844 4.6440315972797155
Rh 7.041595950094611 6.461458231347489 1.8465215704477378
Rh 7.426223072092075 8.759236541884883 2.813180454781417
Rh 8.292822791979612 4.549975888901026 2.887374733648281
Rh 4.596118080359617 8.406559232571782 2.9247579375779
Rh 5.96726213513795 3.4806668837477646 3.2644935184887633
