36
Energy = -205.2288799 eV
Rh 7.9755873546589875 7.310351256285477 3.7244621609782307
Rh 4.371387518409404 7.215614018510439 4.6318043658798205
Rh 1.363842833679793 4.871023221560221 6.822141304039252
Rh 8.080471027265368 9.226223771284888 5.506459633572966
Rh 5.31753987956603 4.293671703116633 8.201154531535423
Rh 5.4910857682347585 7.445345804404241 6.941274446119092
Rh 7.596041635702368 8.315266722092373 8.116479586718265
Rh 5.986338183910717 5.819256546078181 3.3480974460214274
Rh 3.5178234333619174 5.778322475552723 7.407674079868659
Rh 8.18228270154567 10.020108650274148 9.951826790087749
Rh 10.110866519623908 6.135862453804289 4.874637172418659
Rh 2.4870110230606213 6.048229575363179 5.1367912369949265
Rh 10.889842122319655 5.89823000061799 7.421447970631796
Rh 8.024926355748383 7.488756175554934 10.550827829804765
Rh 6.791078664451938 10.562203760839822 7.347387875515519
Rh 3.8063454145154254 7.611458842011813 8.98100545125576
Rh 5.900845911711325 8.463185561221879 3.126470497702775
Rh 5.946342767627597 3.446840633406949 4.019295506386655
Rh 4.4922592255310505 9.742681466957185 7.81816227583248
Rh 9.307837690058811 10.282521393749231 7.626101622714366
Rh 7.910178927531755 6.718281737058206 6.1532390151942575
Rh 5.548153784055099 5.095786337693079 5.835667720645214
Rh 12.086713080239226 4.737143503489894 5.629516056569265
Rh 10.05831456682565 8.228370475217675 9.1067984055057
Rh 10.210253813596555 8.16382984661235 6.575949318470575
Rh 7.389673855136179 4.290886982625826 9.657130697077433
Rh 7.709631807179318 4.28372849995709 7.128098127597998
Rh 7.989858441713992 4.6210258881535 4.547667797037401
Rh 6.007043908550607 6.431039341056978 9.31913240311134
Rh 6.396168527952399 7.964203206953376 12.183519987909104
Rh 9.873796611974154 3.8490299971502933 6.0491738097309575
Rh 5.688338620310286 8.981430776450782 9.962942754905626
Rh 6.700240791404575 10.29548575438121 11.847658521907796
Rh 10.113265995389751 8.533183664692734 4.103066445626394
Rh 5.547203191986744 9.39871445281782 5.424192837872224
Rh 8.764937315871606 6.066234773703835 8.556273587460652
