37
Energy = -216.86934917 eV
Rh 4.964679085977737 9.304305015536167 7.887318186960134
Rh 7.421852610407859 8.201395350769765 7.960840238923624
Rh 5.390404618018287 7.166856749874936 9.341692367983663
Rh 8.825552847455395 9.107852491793524 5.920367143792463
Rh 8.869590851004187 6.715103015476639 9.580831575320104
Rh 9.748130349434145 7.084457927290072 7.2435619925440475
Rh 6.293203195492968 9.122454240703831 5.646042511955111
Rh 5.705422021718493 4.709168324511324 10.149028797111638
Rh 3.0957307364438726 7.452384543321307 7.8606191743889635
Rh 4.200661473554312 5.181569824825503 8.18553603948363
Rh 3.748245343033823 8.645142603930047 5.5901652064288685
Rh 5.404478911172671 7.050390882469161 6.7326372052531935
Rh 9.58585468487557 4.6659864910761994 8.13852405567242
Rh 7.7516296357461325 6.584898823944955 5.798741200023197
Rh 7.711676522424061 8.276275307418405 3.709455288228505
Rh 7.163737736707144 5.533000050302413 8.228349115822125
Rh 7.781502997298288 3.3676590089369935 9.494648436635135
Rh 9.379712773285418 4.81568520790158 5.583400057584327
Rh 1.5399598741634428 7.277524749582756 5.742213730806263
Rh 10.004866932722525 7.20922058546971 4.642520150739063
Rh 1.8480698307442394 5.219208414666481 7.3145067247636755
Rh 3.5318388105975025 5.707432367495703 5.477746450971185
Rh 5.586706436323059 3.050201814146097 8.167356912140292
Rh 6.513436666708784 7.020803358717455 1.7910280864062145
Rh 7.434450241772491 3.5832912114101942 4.4055024747250435
Rh 5.944920703913465 4.640563252197965 6.088642284119578
Rh 5.130070842958927 8.664414571871436 3.3668521421510884
Rh 3.5985357620459126 3.3499298889437736 6.458278786500312
Rh 2.9126471465232355 7.374746451204265 3.5423875153332425
Rh 8.337020435832152 5.738565320910464 3.345433257804893
Rh 5.714480948773784 6.328593501170921 4.12896812723457
Rh 7.891015677448828 3.141973955332463 6.924401115287786
Rh 2.2361198597942797 4.895595521985606 3.5418814974091863
Rh 4.204195967113206 5.624524539148958 2.17521608546786
Rh 5.754502937269009 2.0917935808371015 5.738902336568771
Rh 6.441444553214213 4.45449260279399 2.1947138462953033
Rh 4.635739050545364 3.786362217854462 3.9825636216832945
