33
Energy = -188.20317669 eV
Rh 6.950698480557712 3.2694671220323084 5.091091346630752
Rh 3.8753301072061412 4.575555041819916 10.061858645626002
Rh 5.989070631208104 6.194630295738782 6.197423920028028
Rh 9.700949782610005 6.898496423724491 9.052837898571552
Rh 10.965062494861707 9.16853879466085 9.267195755376251
Rh 7.892233304559147 10.107416194477125 6.117483056482707
Rh 5.963688927350747 11.126467176252707 7.0879020323878414
Rh 5.7267202917695785 8.471997843576302 7.676161084171303
Rh 5.9318866103729 6.441199114306195 3.58094497798941
Rh 4.021309097677189 7.975717431872895 4.188640927414076
Rh 5.3926352658981145 6.177841811136071 8.754929598106456
Rh 3.3732684978294856 5.845994295504588 3.181106106980688
Rh 8.122657563303669 7.501958726976911 6.961730177573036
Rh 5.47350105536545 3.8908472266444467 7.08863140781045
Rh 7.943095437520992 5.329799344880108 8.641743227432263
Rh 10.582189141344992 8.236030629854161 6.9935475078226625
Rh 2.509060942177556 5.1754069746599765 5.46482048947374
Rh 8.37041421061428 5.048290005684547 6.151810117503767
Rh 8.777058609061907 9.576965805297146 8.32564556358321
Rh 9.660712218785804 8.97162362176662 4.894278114886794
Rh 7.266954817196871 7.70170557365916 9.5004619944075
Rh 11.1807507479068 7.35087421560847 10.830382689912993
Rh 7.797674449915843 3.0404313832299072 7.6180716783882625
Rh 6.411643342936071 4.154434867921503 2.7565067685419935
Rh 3.330811636886844 4.870795177627554 7.741354121662208
Rh 4.242860536697469 9.61286018678883 6.0730237393099955
Rh 6.125903763550138 3.8253412286108865 9.518005496204978
Rh 3.736079527832292 7.089321978473177 6.526256529921601
Rh 6.339617923601536 8.504568638406232 5.010384051469724
Rh 6.6151870668026 10.255093239996693 9.294199957114373
Rh 8.670902570383731 4.584460942882583 3.6463324738340646
Rh 8.373525752630787 6.918035089855201 4.445794292007102
Rh 4.775762086819214 4.433243761389982 4.689779712314098
