32
Energy = -185.55422583 eV
Rh 6.365324263202253 6.669418716294121 2.976987410677738
Rh 6.382834308479685 9.217630278263549 3.2658132199722356
Rh 4.111269003483537 7.902972089239375 3.271313336668921
Rh 8.590721733231701 7.851706811495321 3.8498954670779013
Rh 4.136084431631049 5.3417256597086675 3.4307961470799864
Rh 8.45897299195428 5.275848006653615 3.4566827796836894
Rh 7.191714689140628 9.040346357404736 5.682261434063786
Rh 4.735554320033305 9.498444282997037 5.2346111424488075
Rh 5.486864892653276 6.993929525083176 5.284587721233654
Rh 10.405263271915087 6.218497672363293 4.818112391718213
Rh 3.009213403748376 6.49652067642392 5.4516707176397174
Rh 9.5912014347813 8.150075584581552 6.353413679824588
Rh 7.96041195814532 6.352396729926061 5.768536625886227
Rh 3.981298231753093 4.113863263335415 5.663448753961738
Rh 6.313128247491052 4.533589475186326 4.533398750102307
Rh 4.129293643479183 7.961308423126029 7.2133559690954145
Rh 5.745065715872954 9.86679303112687 7.661748145161516
Rh 8.328578041908475 9.822691475614361 7.8596546173757575
Rh 5.963662119150873 2.473303346775695 6.0360578319011635
Rh 5.879437238893896 5.026948533999353 7.050876222531763
Rh 3.5838176959052594 5.567189014960084 7.878315278159605
Rh 9.96186795304486 5.7461809815649545 7.286208090147025
Rh 8.14363051279761 3.8630091456927 6.34673944940576
Rh 4.3060941918393745 3.030822258215669 8.004491113716957
Rh 6.644691980994159 7.436044790338252 7.75599225952122
Rh 4.870418191331364 7.235568003109328 9.543316305845668
Rh 8.927338958776192 7.546052458212359 8.847437051042986
Rh 6.951413574472634 8.960233542023204 9.873283287177856
Rh 6.887980551240802 2.8663790473791977 8.380639474361873
Rh 5.503067640561543 4.7470848435085236 9.540996103201378
Rh 7.911481902791955 5.192144497843399 8.611368323499818
Rh 7.0811787976013205 6.51826041298481 10.598877016950322
