32
Energy = -185.03529801 eV
Rh 9.084285862058403 4.895027887470224 10.251609489789256
Rh 6.6258396539896145 5.266745157628322 9.809127366518695
Rh 5.516385828881704 2.9989150720073865 9.75034507509458
Rh 8.257222656602568 7.132444134308461 9.222411658777823
Rh 7.820593551126576 3.2456325053576887 8.7422055325425
Rh 5.694974067608439 7.282140383591124 8.52635170937236
Rh 9.183504159704524 5.20002789852728 7.7204770893611245
Rh 4.388629662460462 5.014908768301775 8.579465355567441
Rh 6.653666844278567 5.293317012117917 7.186901711867781
Rh 7.230574742065721 9.269605348267689 8.14596683900568
Rh 5.608722051900077 3.0072458827110933 7.2166827598023895
Rh 8.070041663489368 3.362979133567186 6.238729656888864
Rh 4.770673361696415 9.342300478388085 7.2896023214630645
Rh 8.20498813771714 7.38389074600874 6.67031198721785
Rh 3.434120503502891 7.122708811477378 7.318547384370932
Rh 9.105548143998506 5.4815059573771565 5.180353204106998
Rh 6.245607236531688 11.3778713853857 7.067161683994044
Rh 7.984733235966965 3.2354825198308963 3.7627436642467784
Rh 6.633882338931378 5.345965839479221 4.459147102301875
Rh 5.6238639499340035 3.0981252772653387 4.681414071946323
Rh 5.714008296906976 7.3914531970059665 5.846818790963786
Rh 4.881368919461852 10.610315925783356 5.032724223600035
Rh 4.3599622736145145 5.036042084636 6.003796490730432
Rh 2.3317757453389585 6.242103098427618 5.11230110139843
Rh 8.566600842849498 5.489904571658365 2.643017384941626
Rh 7.934527193855264 7.549033478768223 4.0930511675333205
Rh 3.465812403829764 4.055356606457839 3.8920236861015134
Rh 4.416345203366146 6.3464672504396065 3.6746315147473414
Rh 7.141912623623015 9.502600984533071 5.581149776639061
Rh 3.53086226964321 8.480568421075466 5.089535333833676
Rh 6.383472759235234 6.726710407542554 2.2054243391881356
Rh 5.64768521727616 8.701290858857899 3.566029578793687
