30
Energy = -170.1957107 eV
Rh 7.338849187805509 6.101665583623065 2.4230887905940035
Rh 3.5961759309101287 6.832408136506488 2.96379783598599
Rh 4.017791259008689 4.506981219018635 3.1873954879596273
Rh 7.678608854385183 8.528419525267276 3.1198555898209506
Rh 5.770490006154107 7.23731056895204 4.065554150222058
Rh 6.242227569889916 4.604833395625014 4.223432647378883
Rh 8.76081215662061 5.377687626442896 4.282331613677464
Rh 3.553004678080444 7.248050397669113 5.363512209537249
Rh 9.081719082498875 7.8820165230871 4.935372367714155
Rh 5.977953111394809 9.568756414343897 4.782539084729314
Rh 4.061911007589266 4.79294273704411 5.5977303423686005
Rh 7.1823741417672275 6.3623499714643845 5.9952974146254965
Rh 10.579778204059197 5.866143596643207 5.855787603845428
Rh 4.136553762115333 9.370592863875322 6.458894757873156
Rh 5.540162591512153 2.771236453503035 6.097537557201628
Rh 7.822178071185453 3.801873990700719 6.1723126729157105
Rh 7.321880072247441 8.855122928673842 6.599851999814728
Rh 10.038854779430556 3.940510626554788 7.18470079184403
Rh 5.219566073763038 7.36006030268569 7.277219104913866
Rh 2.2056945736622335 5.775168702704361 6.916502810971835
Rh 9.184166350069372 7.213057104102713 7.430524579348547
Rh 3.568541467543422 3.550668843585682 7.68701310316174
Rh 5.776624496319954 4.7820897478882305 7.660863596473995
Rh 3.7825998425105682 5.96378086106105 8.774591116692967
Rh 8.295214890594337 5.160659626530038 8.357750815415645
Rh 6.8165110062837355 8.809096904883535 8.956543134351584
Rh 9.082461352941914 8.219588468109887 9.596228061473985
Rh 4.358128549913662 8.378238715849612 9.425001333807009
Rh 6.170563874026173 6.513701243510687 9.58424758021745
Rh 8.365366746704403 6.1517506110814235 10.551285536050491
