36
Energy = -210.38364385 eV
Rh 10.101038952595875 9.720149055025892 8.047270679031907
Rh 10.871902831367835 7.928804820622851 6.387196785208696
Rh 8.541043997264971 9.007950496594239 6.065672997683103
Rh 9.531674715763543 7.452833767072088 4.3300485930088755
Rh 7.698477221165962 9.527240350057014 8.470623361508508
Rh 9.05518427630483 7.369909405404522 8.133142812417939
Rh 6.00867601393879 8.976434236566481 6.583786769925745
Rh 6.947244246509216 8.16258835545486 4.191133840363942
Rh 9.69913326894474 5.696455944735852 6.281081394115575
Rh 5.2592741810584585 9.490989548396232 9.020594485955218
Rh 7.293463967185363 6.632254036414162 6.208666327380374
Rh 3.5139049234626727 8.894323068616902 7.250787849685739
Rh 4.326476700876221 8.394097417326991 4.781153956546945
Rh 7.987599358627453 5.555110712253428 3.9535734591077096
Rh 7.859625136375522 5.00423329158676 8.102260092973408
Rh 6.515604314685502 7.2408857529511295 8.683725160039309
Rh 3.9959949165768234 7.291618489094581 9.286295469561859
Rh 4.688018348077263 6.662702937733668 6.862189826692203
Rh 5.322974562267018 4.9960960831127075 8.890962458661813
Rh 8.297627865746122 3.712263674813766 5.780725255186371
Rh 2.308780466342546 7.0658921049167915 5.93792722085361
Rh 5.07898748958711 7.621249138900819 2.422646855179022
Rh 5.467945323784033 5.995944148991318 4.41246610516591
Rh 2.773332125717195 5.443277409755016 8.022964420118484
Rh 5.900086560675534 4.303775831465285 6.41591167185098
Rh 6.188176916675783 5.238738085426311 2.0829074961440117
Rh 6.377916986869742 2.7201956136651813 8.343951676275275
Rh 6.582249816889168 3.3962790800865563 3.9613982294063224
Rh 3.0761464573784876 6.432628399083839 3.579945494930549
Rh 6.796400053162775 1.6791284755439313 5.9681196393091405
Rh 3.344281979690325 4.719354592824265 5.548330882993196
Rh 3.8823857942119204 3.228414712433395 7.636321010417982
Rh 3.8489661705092812 5.745491068003289 1.2667423498143635
Rh 4.204424014105995 4.075010545227302 3.197824620299099
Rh 4.483060452623338 2.4417514816523886 5.212303914686847
Rh 4.843149566149523 0.9410053058178589 7.321624821458233
