30
Energy = -170.87555725 eV
Rh 7.2710402869414175 8.707791369538427 2.452739595645889
Rh 7.480055980147794 6.593860259670886 3.6098937964414266
Rh 3.525542758996075 8.000061369910414 5.36192334479652
Rh 5.764183402240148 8.573570105578511 4.3629042975378285
Rh 5.014321629283042 6.080248718033842 4.550223735200359
Rh 9.012232030379487 4.748967427199778 3.108926498696488
Rh 8.985992171856141 9.678881992024003 3.7827638681885856
Rh 6.650851794947716 4.162410731365698 3.949659151676576
Rh 9.237218516607136 7.6378277960861 5.060724375490267
Rh 4.293544981705644 3.5542686123751133 4.850512226123159
Rh 10.714363180025142 5.749488268810141 4.587052645591427
Rh 6.8534677858561075 7.050980273271334 6.253472985361868
Rh 7.554396847910847 9.719493451302005 5.7006525804035615
Rh 2.6904557917731786 5.416465513257305 5.559745719746285
Rh 8.484954312416786 5.012735544680733 5.644082013213661
Rh 6.094829899633374 4.477140019018593 6.406267671778542
Rh 6.5103085833105325 11.177542443023363 7.274572022359712
Rh 4.301324264085809 2.8092685714906405 7.196970584455344
Rh 10.022962270870753 6.341845919500914 7.148809416883496
Rh 4.420012043315047 6.411350098399402 7.111199550257934
Rh 2.8160470557194937 4.534945639293345 7.84265899642998
Rh 5.279708057076088 8.911904638125689 7.039269957548525
Rh 7.820182483303118 5.322779714461201 8.129672917249357
Rh 8.54852283839641 8.276394802734325 7.65189099381132
Rh 6.066794414480658 3.693806913442172 8.822502352811926
Rh 4.380526070220069 2.0061590296573093 9.496413715025508
Rh 6.882089322010462 9.484324591520492 8.939792575374975
Rh 4.57626076750708 5.420540488721269 9.484040395898063
Rh 6.230648879578479 7.0692222317333435 8.85900425326019
Rh 2.8905698351338236 3.7491317215007336 10.135066018468784
