30
Energy = -170.86985112 eV
Rh 7.250849565332585 5.37392758652278 3.1302652962355237
Rh 10.129522380055246 6.1645776624555335 6.705737267397099
Rh 6.777697201705721 5.328220825974663 5.597845839054595
Rh 5.161490844935516 6.425772467307968 4.0457929881939245
Rh 8.129224146868632 5.616029217723851 7.892986805200389
Rh 5.328741874827108 3.347036659201843 5.262586212580417
Rh 5.619674931722886 1.3432512033265391 6.565624715690534
Rh 4.164844617248839 4.317140482063151 3.4399013096197515
Rh 7.763138490503183 9.536607228879108 5.011583707133924
Rh 9.583358870114175 8.615329400550849 6.613002978698072
Rh 6.992171448519463 3.373373379327115 7.215975955619951
Rh 8.58066547886755 6.926798459950503 4.7773295134351015
Rh 10.714444117320552 7.688041787635404 8.627027299414502
Rh 6.900850140791004 7.9544024036487295 3.2221958252477867
Rh 9.487870889492175 10.974163096560337 5.870829138816614
Rh 4.281512801822941 8.595429074802395 7.57580953098552
Rh 6.349373211247633 8.175306510035831 9.054049456540849
Rh 5.220042549091364 6.228081900532103 7.705269327419188
Rh 3.544016709016698 6.728300293128944 5.878426069920787
Rh 6.432256872720262 5.754590521158008 9.885387311175066
Rh 3.7255997927446707 4.23398120060989 6.776720092903803
Rh 3.878356390772516 2.1042939802572085 8.002379489410476
Rh 2.3194524007475974 4.859399742195497 4.88660976858205
Rh 6.3685460042173565 10.055047692645593 7.1773363065477325
Rh 8.606701127921095 9.370162272000798 8.717033088030448
Rh 5.311798020524294 3.8972368164378812 8.767092982101445
Rh 7.155133286323891 7.620606700230631 6.729808423975127
Rh 8.630386832270343 7.107275322455253 9.803953816921979
Rh 5.343612917076846 8.671495153916863 5.2196406215661515
Rh 8.186562374595145 11.552017247861366 7.779695150978496
