33
Energy = -191.12732563 eV
Rh 9.774575115981467 5.935942713975052 7.959630497281625
Rh 9.410396952546717 3.65879875435877 6.714156344193486
Rh 8.968134344106378 7.522012074733828 6.1215742570453235
Rh 8.902465653175572 3.933320865832071 9.224730961607364
Rh 10.387177442885628 5.4830623464705575 5.389346974524077
Rh 9.829160485348694 7.325398492948463 3.742752611534089
Rh 9.411872926287755 9.714469186203129 4.8379208367159405
Rh 7.576391257311395 6.295646329197173 9.316749519969806
Rh 8.920601390864906 8.323169593834677 8.565698068232662
Rh 7.566050400961467 2.19549221212267 7.761606206310801
Rh 7.474396081465133 5.357832348560319 7.043145962963632
Rh 7.276109215366151 3.252675930890093 5.422933360967332
Rh 6.948786415860567 10.71340939153064 4.640663750990146
Rh 7.48082340009539 8.347542300317672 3.9789548270491903
Rh 7.740352444288574 9.63988030300608 6.7666487972051215
Rh 7.966592249198839 5.707338732077722 4.503020891504363
Rh 6.41205224931912 3.9825525463479976 9.131774178092458
Rh 6.16204788276398 7.5457611524650545 6.153684494528952
Rh 5.157689728630882 6.048898122163419 8.121264480560932
Rh 6.317983698407397 8.371734456981127 8.50067668589081
Rh 6.321056944338081 4.143097344545055 3.312694739450561
Rh 5.203493399455459 3.157405918512035 7.089523402006457
Rh 3.865116193558124 8.221782724494876 7.660227233627312
Rh 4.994682141698743 9.025741028120942 4.1417335627356415
Rh 5.24462058298894 9.994233390253834 6.525356446211771
Rh 2.6930015550737663 6.278742901740525 8.912654017378813
Rh 5.3644100062166515 5.0215789203626295 5.475161596252126
Rh 5.692594007544879 6.614039556047951 3.562103606820037
Rh 3.8965879995504427 4.028610901645257 9.16234092170646
Rh 3.754394530453979 7.001715075511675 5.234046148403448
Rh 2.86722143806412 9.365222485366674 5.668454722001606
Rh 3.2134874096557966 4.918816349143208 6.83283084299619
Rh 1.7523070663586224 7.149607550289134 6.701859265704551
