34
Energy = -195.82961691 eV
Rh 7.503875021626501 11.494289823277802 7.657817615215185
Rh 7.587397983419583 5.787218837857811 4.087922663764307
Rh 4.910330347778934 6.928639854551814 7.7434210732002695
Rh 9.501511470651861 7.634168343320085 6.100386934216178
Rh 5.125259328125357 8.217619601592391 5.382844115418307
Rh 6.978724141620652 3.5171703639716148 5.0569967099514574
Rh 3.22514108658561 9.827671527620081 5.892575116072721
Rh 5.617358460706052 10.31251355541149 6.621107533449837
Rh 10.954246880074834 6.2842240878381315 4.578180893740881
Rh 9.046430693223773 7.689392475292112 3.6755169629708435
Rh 6.329073374874742 7.747602090565303 3.273204254553651
Rh 9.027885612498457 6.9814168983148495 8.670818696500044
Rh 5.818948608482329 4.389527117916249 3.0786533926240427
Rh 9.584699452045651 4.637926528970889 9.331860033047587
Rh 2.9016093818596125 7.336143579860977 6.189861763508984
Rh 9.815756931059397 3.036749325660928 7.266258464733025
Rh 7.430537486447262 2.3234761749155317 7.131294250156325
Rh 4.487665005772084 5.972405895732295 4.3383455911119855
Rh 5.395221276063443 4.881538488794794 6.3225568833051895
Rh 6.961774184785229 8.349635891692774 8.521479771955477
Rh 7.958534013808302 4.8212835229738085 7.432412559304414
Rh 4.973660572073031 7.936362965466558 10.074748508466481
Rh 9.422659425568769 4.493065204059961 5.224768060611213
Rh 10.565631964055452 5.6062711762500115 7.18950879717786
Rh 2.27002935120799 5.241739515482367 5.048607675306626
Rh 7.498057272937263 9.137184809649291 5.206565112716918
Rh 4.253232639591791 5.326720529749605 9.616734401047697
Rh 6.700151601394188 5.975163985756379 9.382601645853397
Rh 7.1225646444832105 6.892485873925583 6.278244851666852
Rh 8.830153955532744 9.516795003727086 7.473715456774713
Rh 5.807401732577905 10.409049879956804 9.139088496781886
Rh 3.8065049721728323 9.133793691345852 8.179777776148688
Rh 3.2072469424336005 4.989121738087721 7.3220274112222645
Rh 5.854452808018092 3.716292936318714 8.449556795475157
