31
Energy = -176.37534049 eV
Rh 3.0094853274454993 3.621133332939858 5.645922794295782
Rh 4.253124704499163 4.067059517044225 3.427135988732566
Rh 8.066064697338307 5.437353347535221 8.112652972194985
Rh 7.7986434029059 6.8874233162979275 4.142116287701727
Rh 9.746197270821947 9.637226078462833 9.034799279835298
Rh 8.37809770590175 6.010236939426201 10.521659046685658
Rh 6.128580969402041 8.62357808082531 3.5465483776581306
Rh 7.652471989264085 8.001642089417825 9.116223848895329
Rh 7.387832465007753 3.6754522549855158 9.867656765493917
Rh 5.57092167380967 6.351930804440929 8.789639729582087
Rh 9.080914236222421 8.802949036251864 6.738087369088671
Rh 4.671447601658813 8.124711680191151 5.557293863235352
Rh 6.038315307963824 5.3841993529603585 10.895117412070578
Rh 5.474020684567991 6.107299813024852 3.9991824126310114
Rh 5.4350048229184305 8.845973707368591 8.04389646033257
Rh 6.874094707323804 7.277638352407067 6.603353298642359
Rh 6.702344007998894 9.640560820516631 5.80088486254105
Rh 5.4316705963111565 3.172004898587266 5.453441155701376
Rh 7.521552155571981 10.340515366840739 8.084504906935692
Rh 9.547167481137159 8.079953384280403 10.94655734853921
Rh 8.684972710426305 9.169200395250378 4.273039353941334
Rh 10.772353904101148 8.052284792101007 4.985726957036153
Rh 2.1962694446502744 7.898226240463444 5.628569200356743
Rh 7.218851511165671 4.868898908954797 5.675804934535645
Rh 9.37160367002017 6.272396761937414 6.163400866798782
Rh 10.023503917667517 7.110479731366344 8.504004900166105
Rh 4.626191596561997 5.52222955880473 6.4735722582968185
Rh 6.061070968033208 3.894336327255306 7.809831118004497
Rh 10.041073854346195 6.05469304032358 3.7679244713745366
Rh 3.4457358787813583 7.361675183764515 7.69260056720582
Rh 2.936056384472712 5.86779547843747 4.656208509606089
