30
Energy = -169.92512558 eV
Rh 9.372424232799514 8.40827686185535 5.760505753043243
Rh 8.793878744484221 5.48110635888723 2.8791016621441194
Rh 9.078157817202923 8.03011655657893 3.2847372341069994
Rh 7.015688894833934 8.825004897939111 4.632894007297491
Rh 7.134934913259776 8.415696409169666 7.163460466394324
Rh 9.448741312848759 8.898714773252808 8.195584986063599
Rh 8.712448849765098 7.161460148975987 10.00966340905264
Rh 6.729688388969202 7.0458592798774236 2.711917012659181
Rh 4.926263410918955 9.211730399290365 6.165016640809277
Rh 4.782257854288801 7.760051739042464 4.101305140086578
Rh 7.911793163339991 6.445751397025568 5.040823067456958
Rh 7.285647857166541 9.165366608755184 9.574322742406668
Rh 2.6163104478269523 8.507774843669788 5.002222337548954
Rh 5.102614814006851 8.242401071932639 8.588628826789696
Rh 6.180344589613494 7.0678249944071325 10.614183509670047
Rh 3.504556179153173 7.223605940367019 6.945398413506041
Rh 3.0986872324005117 5.928674482705107 4.739636772904433
Rh 8.707247218734455 6.525438227304464 7.529522346587274
Rh 5.572020756068562 5.405273873651913 4.383472643933522
Rh 6.627010534815382 4.442458432995585 2.2774382074327923
Rh 7.610883818683775 3.8802669804033387 4.614471488820546
Rh 3.947141225943278 3.4629256736842513 4.625787565630726
Rh 7.191033553293991 5.270100450736143 9.21663020569618
Rh 5.466119944731069 4.5369452527611775 10.924004753244919
Rh 6.868683874185484 4.956209091780849 6.782306642620512
Rh 4.530301824440892 5.8864099449667675 9.022916603964006
Rh 4.315842820453299 4.868343606559456 6.715664464010549
Rh 5.846777285489577 2.383991300199131 3.4828906931625596
Rh 5.8677593063467635 2.7323720621116636 6.139392052142547
Rh 5.433981997359574 3.509091202538305 8.555343214238755
