36
Energy = -207.15370375 eV
Rh 6.958587235305281 7.4929019257560405 3.954911177402797
Rh 3.541703055402042 5.212570671494522 2.599576094323538
Rh 1.846171819089546 5.372557984252099 7.186411790877778
Rh 7.453530123845629 8.83826403191828 6.162479216343873
Rh 6.244345559919151 4.02550067381102 7.710703204706405
Rh 3.9989287260468447 7.201761620457368 5.726005234308253
Rh 7.42899323116767 9.71316404588208 8.50211260822041
Rh 5.237813374222628 5.341015092998215 4.513959618443508
Rh 4.053322298322081 4.462607857394101 6.554561303978001
Rh 9.001476775451078 8.665409092483362 10.056070380446291
Rh 9.17248584728029 6.57352611732705 2.8352558173092395
Rh 2.4901190341888118 5.454374018558617 4.799105670561122
Rh 10.284890284996287 4.584256633319784 7.892230785210078
Rh 6.789491752159802 7.457998469378971 9.570731132520356
Rh 6.080803627719286 10.901275399940616 6.747665800953502
Rh 2.7931720521541537 7.449779843199414 7.941904564366902
Rh 4.598092139403265 7.408134961392616 3.243129077553901
Rh 5.685520407985926 3.720497878458197 2.743118952221311
Rh 5.162803618749713 8.653241499158565 7.530316425554293
Rh 9.62240685458299 8.94675375365836 7.266911350955451
Rh 6.831308464886364 6.336728617619357 6.248206929486356
Rh 6.177970132102246 3.1457458024866165 5.263777059253765
Rh 10.707552371209982 3.220327854367015 5.93213545762558
Rh 10.179717248805705 6.975753220713369 8.75538843498931
Rh 9.510151602533494 6.4725255836776405 6.331571711531565
Rh 6.214997853005881 5.068186845333416 10.083100446988889
Rh 8.329150324654398 4.008041159341145 6.309042349623142
Rh 7.605995247880205 4.858891377420474 3.8729091533684805
Rh 4.880830997288068 6.1470083522139785 8.217402463784852
Rh 5.748390001221678 10.121337920202672 10.247050437080942
Rh 10.05763102591484 4.989663454439421 4.460113985496994
Rh 4.3738717557875315 8.10673054651553 9.856178757516865
Rh 7.1752747933534655 8.785833242341829 11.655148014654806
Rh 9.284021653657586 8.251104461938924 4.637923714125477
Rh 5.270415278806107 9.220142020321935 5.003258371895711
Rh 8.064224123258072 5.672548662585102 8.445793198677896
