35
Energy = -204.08090892 eV
Rh 5.636583810798686 6.993698012665505 2.28340674233322
Rh 7.441878891180863 5.074010508241975 2.0875811807222684
Rh 7.8294662743543535 7.151757205498039 3.518539347014262
Rh 8.250870077595417 9.244779488496576 5.16590491732253
Rh 5.974763502490022 8.856489496054165 4.066542768256806
Rh 7.261955812650222 3.123277687459672 3.7915701207503694
Rh 6.240633980128184 10.803265307198538 5.601484435276149
Rh 9.111349317141023 4.902553297595108 4.049332624693339
Rh 4.591583870735754 6.838787241305179 4.592664043847963
Rh 8.937488749390095 6.792760025016718 5.845018403052946
Rh 6.785364394841204 5.410123230289316 5.027894854306925
Rh 5.154898360941165 4.644141809710084 3.287115531706225
Rh 4.2762993937999765 9.022718078570346 6.091497039240535
Rh 9.58221317145278 2.5370262378064945 4.863639250790853
Rh 6.478882475857958 7.620068492927635 6.417002645322154
Rh 8.85888349980534 8.646543787005665 7.5473811392457195
Rh 8.174506663572245 11.002865444839403 7.2380925487850964
Rh 7.436973638127764 5.278779597571411 7.64038071479086
Rh 6.0505892255779035 9.692578231242491 7.8616329830208045
Rh 7.947283210540648 9.78780744976013 9.584474678239218
Rh 3.1626880692294344 4.735714838961669 5.037221220794052
Rh 7.603075245886992 2.9877126017503195 6.336815762394992
Rh 9.667655121127991 4.460342144548759 6.546028040034397
Rh 5.226272287020108 3.206164174735057 5.456049556703041
Rh 4.822587595114846 5.434293575381479 6.915658804946058
Rh 9.520759517808699 6.3918140312260014 8.378032143457323
Rh 6.998818230048753 7.483349623569572 8.976109877551854
Rh 2.8198235488660788 6.955759188418374 6.45104598458885
Rh 4.480570527603015 7.701800834973496 8.342931248113649
Rh 1.340998544787885 4.920101179371358 6.860163878965372
Rh 5.815836603756657 3.2875094326915333 8.071696103326177
Rh 3.3315909332225084 3.415104861361669 7.29097193306634
Rh 5.465902775604267 5.527156736461381 9.390243552574892
Rh 2.902759279001127 5.622897725765607 8.71329870152084
Rh 3.871507789035281 3.5379930950911476 9.74434564769476
