30
Energy = -170.78061935 eV
Rh 4.600376291274282 7.062612468380778 2.167303761138736
Rh 7.039532094616236 6.8206403248181955 2.545578150180447
Rh 8.844258066417654 5.223747107728128 2.910708727123794
Rh 5.625224006382665 8.678704784331838 3.8351288450186405
Rh 5.268932792076365 5.153610211645277 3.662249239764526
Rh 3.746718799862232 7.032490190078791 4.54687514750866
Rh 9.219974732489494 7.225863085043655 4.260239071739925
Rh 5.422786723272864 3.1904755156488176 5.263687914151796
Rh 6.7744211527221285 6.713504699270575 5.061053740604822
Rh 5.750124485484653 10.527794301881107 5.582434687280183
Rh 7.593643231096793 4.310894246382307 4.716095348109456
Rh 10.264250113274922 8.919893057670821 5.567589462082278
Rh 4.829732431424445 5.419285991221628 6.272100237578603
Rh 7.786303697234868 9.107003040251328 5.336002617413837
Rh 5.08715858122525 8.187483545968044 6.454250253912097
Rh 7.631531252059223 2.7100111914225864 6.595055110922199
Rh 8.855280839005445 5.902687471174679 6.360542121553462
Rh 5.843940102443298 10.161213862086743 8.027928802922595
Rh 2.906952637265354 6.980874567698916 7.127009957126596
Rh 9.927900483513056 7.723488413580888 7.609015250970117
Rh 5.6456249975855854 3.435010751421387 7.866004149223466
Rh 3.6626429011758157 5.051979409636278 8.449487451248133
Rh 6.7987802126187935 6.584966693118995 7.673278297364888
Rh 7.768306452517161 8.788733306340037 7.710633729111336
Rh 9.014382206450856 4.107936907190385 7.969694347265109
Rh 4.171947712304141 8.41793093811002 8.771909314465676
Rh 7.119395338850566 4.727435572962087 9.247365340192152
Rh 4.229989332890157 3.1160379318992413 9.824509860719887
Rh 5.161260728985806 6.430111731456632 9.644573740606319
Rh 5.631414935949247 4.5103660140490245 11.16448265517022
