32
Energy = -185.46521723 eV
Rh 10.902300603019572 7.2715261487270055 8.235088254808343
Rh 5.298873944088938 5.0885210113514185 8.150354141334276
Rh 2.1496555541735414 8.168511323242617 4.0948037196536005
Rh 4.8169960723297445 10.005605723788973 7.14221261062396
Rh 7.72130629682965 2.275191633718623 5.313678786096069
Rh 4.734178796590669 7.577200445472469 7.946792552165781
Rh 6.7989757006604385 9.183274536242754 5.758334107904057
Rh 8.877233289435965 8.129126042728764 9.543096447179854
Rh 6.834221835035325 8.970084977155313 8.34991093695422
Rh 5.246290206334409 7.14215717952491 5.462229900772472
Rh 6.72298348768732 6.619266004754704 9.640909231466527
Rh 8.114137077871115 7.188062698194866 4.789633277223236
Rh 4.190565930529143 6.972659135195154 3.084602165571607
Rh 5.119885224988794 2.252385924975323 4.872286841836803
Rh 6.722829028533618 3.3639974016029597 3.174794841982241
Rh 8.590954539728708 4.595501846130786 4.577969674626972
Rh 8.166263127513936 4.1090189161443424 7.083795225092214
Rh 6.014727864079255 2.73046096611269 7.26427570479694
Rh 7.149247969501083 3.9988711174667815 9.406044335291407
Rh 2.898142308832839 5.908658931716103 7.68722989447567
Rh 4.412130457258536 4.468409237701209 3.7377587301187094
Rh 6.536638859677974 5.875560115879467 3.2402054462798358
Rh 3.0259851803688678 6.082817534857601 5.20536048905333
Rh 8.997808043878825 8.448632898711047 7.010046758042506
Rh 6.181964228756553 4.661989608879029 5.526950433443939
Rh 9.73975177346137 6.031535733759657 6.358359676665916
Rh 6.373896272317881 8.417423763956622 3.330617386959209
Rh 4.313311143518626 9.347453393115023 4.6912992805291704
Rh 9.035553414386396 5.682111392707241 8.877913880457902
Rh 7.19660130897181 6.626222391467274 7.141863937847225
Rh 3.8402611827319646 3.9430332646661377 6.2914398130675915
Rh 2.804856923170031 8.393256346316685 6.53866916394179
