30
Energy = -171.66035718 eV
Rh 2.9411888742772447 7.439503646160918 5.308348681168101
Rh 3.915775756969479 9.8561021089721 4.891241835737357
Rh 3.5948549337250735 8.966135439991877 7.223549588060199
Rh 3.3614629315063 6.254918274858004 7.548335329576002
Rh 3.638330982312605 6.277706598403638 3.1221041862128858
Rh 4.441858801285513 5.316065384248057 5.438798569143466
Rh 3.5459951252365247 7.882516738604677 9.490574154089636
Rh 5.254184016765934 7.795408428867124 4.469073572435514
Rh 4.560747376074171 4.0737723256284255 7.756490394796951
Rh 5.4982316641989355 7.514353569914004 7.985967362599514
Rh 6.007593242582887 9.375263803912457 6.354352636267415
Rh 6.4560746717357445 9.993961207161304 3.9168893702592036
Rh 4.880841431233472 5.684949930651037 9.669162652645637
Rh 4.413752987999008 3.858321424131068 3.3256131312033226
Rh 4.535038396084298 2.691520163075585 5.706846474474629
Rh 7.7672567103046575 7.735434923551627 3.701548980649168
Rh 6.1920648496297686 5.765587520363523 3.2492792630342833
Rh 6.143532679865299 3.470007617985808 9.687343149297382
Rh 6.594767419057975 3.7613259680699076 4.792209217351875
Rh 6.666662387608889 2.75582062395969 7.223510484690998
Rh 6.910414062279475 6.246822612121338 5.745024658328566
Rh 6.955695413211078 5.348839828145496 8.129099400015882
Rh 8.408143513330241 9.386408679068431 5.4999563177585005
Rh 7.8636493111996995 7.825998934686722 7.443028116134853
Rh 8.642650418369872 5.165700364443495 4.000497953094706
Rh 8.58961208671491 3.4899725562507014 8.812360951896306
Rh 8.553228557835155 4.135133138008501 6.352045270565909
Rh 9.44521016452683 7.094365143691691 5.542735648663364
Rh 9.528344729971135 5.851611882683283 7.9056891342479725
Rh 10.76872339613122 5.06235805441306 5.784210407624353
