37
Energy = -213.89973366 eV
Rh 4.5991327168445055 4.736863969558913 8.822537131097523
Rh 3.8984076435628876 2.2268335400158703 9.346603323402043
Rh 6.4813671176966965 2.802614797552382 0.1684778068779894
Rh 2.3685119645749997 4.333196417806415 0.8861081200454846
Rh 6.565997481258135 5.518866120747538 1.2471127475754462
Rh 4.810891243011142 3.7943407567918395 1.6873012222756667
Rh 4.0555443763677586 6.320174096172292 1.4231760402515996
Rh 5.280315073617209 1.2028474885594702 1.98345831684161
Rh 2.8309458987884093 2.1155703243133677 2.3986623097638975
Rh 1.5896936963686954 6.496487505966249 2.7901304556587285
Rh 7.056704710168769 3.085089443789536 2.742942240970172
Rh 0.8055093208252518 3.7832662915267137 2.974040970131888
Rh 3.103853332736113 4.699001151220311 3.3139569297929
Rh 3.2609248402679154 8.431024628926012 2.478343592383868
Rh 5.943105833066354 7.553123519533623 2.782494688486954
Rh 5.725699567661212 5.153772163479733 3.7320132482580086
Rh 4.852935238546857 2.731726999021558 4.008645596228234
Rh 3.9061973198747784 0.44907968378740215 4.549988450071607
Rh 7.517838079048248 6.5047903601716985 4.748018120062566
Rh 3.9830032005753693 7.026379519628787 4.336490246176695
Rh 6.373897111828581 1.1250631655376453 5.353498426575484
Rh 2.199995653529472 2.565612193962699 4.858944165289711
Rh 1.4245219670953806 5.022125876833935 5.341116038290966
Rh 6.0005195699635046 8.450921256533702 5.165842842902723
Rh 1.7101664547467623 7.545565320777414 5.236362759079929
Rh 6.400392277051849 3.795951123560752 5.865640703688802
Rh 3.908897059428319 4.601092732322772 5.625481980834255
Rh 3.770675182649582 8.444127058564924 6.4200887449331905
Rh 4.336045373689241 2.224987009964421 6.404859794761735
Rh 5.534792031088239 6.31599916446845 6.431480126464201
Rh 4.804138666980215 9.280458008775929 7.0923695365712875
Rh 2.340860267391071 0.8645797386635731 6.821308618917513
Rh 2.8859159545401516 6.136858481067072 7.242696648925223
Rh 6.349646790311654 1.985515471254836 7.875898501588039
Rh 2.2937711196055925 3.546460126498546 7.389412260248918
Rh 4.782792602538656 4.261537482544969 8.022889868129285
Rh 3.8349973892135325 1.8578639256814802 8.822537131097521
