39
Energy = -229.77253588 eV
Rh 5.207480357181021 5.121157558637163 6.4944746562538915
Rh 8.06366642961385 8.149989228157704 6.4944746562538915
Rh 8.498924461446832 10.416943240908035 5.139295412664974
Rh 9.49252945458095 9.773118239381688 7.655946026516558
Rh 7.0408100730094745 10.460757218074567 7.1891502518905295
Rh 10.316724463166068 8.60492785400322 5.222427674148017
Rh 6.177593517587956 9.313700702516998 5.028317356275966
Rh 8.381632490098267 7.653343412913064 9.002456914426203
Rh 10.283552880717448 7.074417095559573 7.256779596389575
Rh 8.156763076839303 8.246831626820516 3.7435173300141065
Rh 5.641337846118608 7.5963491730171295 7.346733205937757
Rh 7.6298089406762655 5.674797613777747 7.346733205937757
Rh 6.635573393397436 6.635573393397436 5.089920225654303
Rh 9.270741249202466 6.268538537874411 5.004739336278709
Rh 7.093553269206918 3.957446084277883 5.028317356275966
Rh 4.000405537592404 7.002608248920465 5.004739336278709
Rh 4.889514296696602 5.6178033738818005 9.002456914426203
Rh 2.987593906077436 6.19672969123529 7.256779596389575
Rh 5.114383709955574 5.024315159974364 3.7435173300141065
Rh 6.230336713785394 2.810389568719992 7.1891502518905295
Rh 4.772222325348034 2.8542035458868367 5.139295412664974
Rh 2.954422323628798 4.666218932791658 5.222427674148017
Rh 3.77861733221392 3.49802854741318 7.655946026516558
Rh 7.638060001075155 5.71735136880882 2.9943262857057413
Rh 5.633086785719723 7.553795417986055 2.9943262857057413
Rh 3.8168187584899718 9.356815116343801 4.336222597097713
Rh 3.379065693376022 8.765703930993789 6.791219565735767
Rh 4.685002377011146 10.90750115 6.2869709136146135
Rh 5.072617449856925 9.794437898504322 8.614562353758926
Rh 3.548929091865468 7.819042209313366 9.169506441148773
Rh 7.523464720801794 9.913445583828985 9.573813657050831
Rh 6.018308207010493 7.787436618530149 9.998261483080192
Rh 9.454328028304896 3.9143316704510687 4.336222597097713
Rh 9.89208109341885 4.505442855801083 6.791219565735767
Rh 8.586144409783728 2.363645636794872 6.2869709136146135
Rh 8.198529336937948 3.4767088882905406 8.614562353758926
Rh 9.722217694929407 5.452104577481506 9.169506441148773
Rh 5.747682065993077 3.357701202965887 9.573813657050831
Rh 7.252838579784379 5.483710168264729 9.998261483080192
