32
Energy = -182.91145916 eV
Rh 10.355053341881545 6.9018677507273365 12.278644753942325
Rh 6.4436792350333 7.436107158521181 10.730922376977087
Rh 8.5177239422096 9.551067475480663 7.462809825583576
Rh 8.382661865243202 8.456644348792778 12.016613638150021
Rh 9.24556079110604 5.913646608200977 5.658447104352339
Rh 8.687334060134694 8.016702608233153 9.598910450659833
Rh 7.731456294248695 5.41614473851369 9.605680731982538
Rh 9.856114514319225 4.864041192849167 10.7812301380106
Rh 4.348298755186526 5.8347646807369955 4.69345512405644
Rh 5.56617692821585 7.87279808741104 8.416899428316844
Rh 5.461509053987164 10.090026194124645 4.515133110873856
Rh 6.722690061032633 9.810817057359946 9.556598877800205
Rh 7.575828421522525 9.326459881657762 3.1764405798056545
Rh 9.52625276080759 8.694588500331532 5.206261351033803
Rh 10.219725509941245 7.516093255820424 7.343774635834554
Rh 6.844979916740456 5.765873380353714 4.917105238640905
Rh 5.569878531699026 7.686526799088515 3.484176755655886
Rh 9.827134059482143 5.187694932720874 8.156557362472295
Rh 5.99134694457451 9.989572345841625 7.087744838722283
Rh 10.846953785609765 9.527893239252993 8.627460945395926
Rh 11.389891415265877 11.263014270433393 10.304521606878348
Rh 7.118705428342042 8.19526655817238 5.444764053979606
Rh 7.820558346261566 10.713951341976722 5.282205381328105
Rh 8.977791575205746 10.574651396060919 9.958508864061091
Rh 5.288940565999703 5.50099125274333 9.442659095263435
Rh 4.650546855152984 8.001953757165957 5.968442794811347
Rh 5.326815296490627 5.690228033270788 7.0052443826041975
Rh 7.948404131755863 5.9084176541487095 12.14186410677943
Rh 10.709880107108257 9.158838488336265 11.257950708493787
Rh 7.621916847859255 4.393901406889036 7.068373234310958
Rh 10.90740221083284 6.936897438344339 9.768976951823298
Rh 7.657027993482363 6.924475712970675 7.484850052542024
