35
Energy = -202.81324331 eV
Rh 5.863911910323488 3.108264102810545 6.810622361336269
Rh 4.117315886949786 5.950373647998662 5.4509626585016875
Rh 5.665704849116731 6.34230318504885 9.750211516388646
Rh 3.442574006793558 3.5013602842520832 6.17904733884178
Rh 1.7899399100818205 7.115955722959793 5.157862355851644
Rh 3.0820402329113588 6.405764807552312 9.393886223482726
Rh 2.137802591218293 5.50741252412816 7.1061836950075286
Rh 6.787574738081952 5.25261599914564 5.516445458586704
Rh 2.1879088952772725 7.984129146483667 7.5440574972899235
Rh 3.609583745806027 7.43593287581988 3.3545019503475872
Rh 9.535804876489955 4.3143514362561515 8.995327887661396
Rh 5.302679130679998 5.69730244254441 3.064647326908084
Rh 3.755539644412913 8.68994865020208 5.580672384100158
Rh 6.758399857195547 8.510455518974544 8.961738040482842
Rh 5.952731417822091 7.791741977414821 4.602191244306667
Rh 4.675395580925951 7.595793598024348 7.742191980385923
Rh 4.567771049815955 4.9842041745020556 7.867863989852068
Rh 7.727808815820776 10.674735289883616 5.340849961149839
Rh 5.194886592082778 3.5394409334664254 4.3627131942500545
Rh 7.849757092598341 10.56722099795596 7.905492157235012
Rh 5.902639741301291 9.53738338962185 6.527062133352076
Rh 7.731468671007045 6.214217063722106 3.290956469452085
Rh 8.26301722693155 8.626095299538193 4.028283970478925
Rh 7.045413488344667 3.8395870323396273 2.6437477570920342
Rh 7.250932539950911 7.408065017963935 6.824591546121443
Rh 8.225667972983796 6.554658944146865 9.945762113050325
Rh 9.175960024464404 8.891796008930154 6.495772268559296
Rh 7.219133566750521 5.030177804378433 8.134334544870772
Rh 8.107940957454236 2.609182628633158 7.639593823369256
Rh 9.29587993154164 6.646424509044455 5.226871612468724
Rh 9.267193257250257 8.779270972180205 9.102199412707163
Rh 7.702506978943762 2.9685520493339306 4.968415526183477
Rh 9.416600863575846 4.425068994695009 3.863284307646051
Rh 9.553384128277417 6.599382953968509 7.797883578756404
Rh 9.384042990882168 4.42198358994753 6.444983118999131
