38
Energy = -223.18001353 eV
Rh 10.581972856895721 9.750820022037296 5.259788534277753
Rh 9.209260862834917 8.004021041921742 4.052621414041873
Rh 10.068174455239175 7.512115920339993 6.450897800438273
Rh 8.855131018792735 5.642678576044268 4.997000256919938
Rh 7.878459541105775 6.29637499100847 2.6438216745105554
Rh 9.50877334907474 9.724279978270589 7.562949948286606
Rh 8.023824269162183 9.878083412836567 5.475922327375846
Rh 9.3642236943725 5.280301891513938 7.505171410440294
Rh 6.438312799753687 4.6876645382944995 1.291843173539378
Rh 7.509211005968064 3.886907295330806 3.529823582433433
Rh 6.717054807801194 8.340060226014257 3.8799984769929887
Rh 7.452002128575053 7.488267162775089 6.277667894690261
Rh 8.591490632862321 7.534580314042168 8.55587042941667
Rh 8.439227239244621 3.309416239852834 5.98324876974452
Rh 8.514605472518333 3.239302582458169 8.770194346804187
Rh 4.862337929451028 4.220643664492449 3.22327401750555
Rh 5.287847094757866 6.696010100412872 2.401561767926139
Rh 7.0080162977423575 9.610089590429183 7.841643792823854
Rh 5.327653697195991 9.089604210658571 5.924365374477529
Rh 6.863177554906713 5.0138332049027365 7.07782334421436
Rh 4.182518040908094 8.6080521478953 3.752292547495526
Rh 6.222708285336296 5.839826698291995 4.636118609390771
Rh 6.3962248007972295 2.5409594006136795 7.766606680109996
Rh 5.96321188175159 7.532559547644703 8.889055241715408
Rh 5.850948472149844 3.276057857411649 5.402763618606277
Rh 4.981813848722629 6.692533889761667 6.758964290385797
Rh 7.431531202935136 5.460962014163015 9.45607819877693
Rh 3.6871191175770077 6.261017282269795 4.562463853274821
Rh 4.96713987559925 5.435825883004914 9.870119296895231
Rh 4.488711268456937 9.569957458904415 8.236113981576935
Rh 3.3344648801127192 3.8274746343533796 5.263076981778437
Rh 4.475720308236845 4.267245658737947 7.742269214061973
Rh 2.944232018548766 8.177433247731141 6.122020298319243
Rh 3.3978746400866813 7.350184606319479 8.609681022496838
Rh 2.4609909354643125 5.721995891157122 6.770882854323712
Rh 4.158987986375554 1.890025811469048 6.789965565822559
Rh 2.536187915773847 5.075150576787261 9.281530363393887
Rh 2.0529136365766893 3.3017382535114077 7.418564868380071
