34
Energy = -197.47360452 eV
Rh 3.8522650872746165 8.69263784417 7.631528987163866
Rh 5.150173246876156 7.300639185506947 9.49175637463766
Rh 3.2308359886880775 6.164094843004997 8.163401242287568
Rh 6.135554379479539 9.133580496744766 6.063652864759486
Rh 2.096957779386215 7.170567420977228 6.153339586660491
Rh 6.810998444549091 8.933482974447953 8.496447890301317
Rh 4.0140718619252445 8.3920153236772 5.012802605156715
Rh 5.261527112720071 6.813188895545446 6.919450970914112
Rh 5.588489034613828 4.944129995595232 8.812410485318894
Rh 7.603968752814114 6.48378685948999 9.399928254094222
Rh 3.541089526510396 3.5117068854816713 8.31059124680833
Rh 2.433530455247426 4.539759723639644 6.26495118611879
Rh 5.970828614791475 9.077345534823243 3.5042969330206946
Rh 8.535228220133602 9.757627312150554 6.631302077266655
Rh 7.764008203894415 7.079405691073636 7.007410982690123
Rh 9.395714904543217 8.36460448350984 8.570937787113483
Rh 3.8160680694645372 5.939791531506084 4.719900838998782
Rh 3.1103668328812 3.6719944214576405 3.8772026744950163
Rh 3.4975524948696903 2.2023187139474096 6.0639059964535535
Rh 5.015800531475535 4.2339361728350555 6.290963226341293
Rh 8.028791005368197 8.160167786155515 4.657906124627476
Rh 7.011626146151599 6.820817787059238 2.7471335778403696
Rh 6.636413601433445 5.786130346195476 5.013975651962907
Rh 6.0653835203651445 2.619609148313618 7.897487452643241
Rh 4.481629277248765 7.207796354419128 2.679400773037212
Rh 7.8890609966196745 4.428105497824951 7.838105045639372
Rh 9.909498100960148 5.900676213661746 8.045824693956424
Rh 5.4025118330069555 4.765732885658739 3.0684858974250213
Rh 5.360965169822747 2.58681098444423 4.348377410099074
Rh 10.091590135372497 7.661420312750515 6.034385778653393
Rh 7.34929803048867 3.2972126299118893 5.618267477899717
Rh 8.073020365749814 4.470439674795992 3.412735199105853
Rh 9.569892808163603 6.546859692516311 3.5259170466833343
Rh 9.12209328354596 5.203834618250673 5.6685838056586455
