33
Energy = -191.75682239 eV
Rh 3.6207765938871077 1.8486161107482115 7.225725257185399
Rh 2.5853326515163 3.986688402458018 6.340681355823235
Rh 3.6783477620464815 3.9073464293410325 8.671313930074163
Rh 4.7886654841226095 3.0876330853237266 5.303700455274842
Rh 3.7236617540402404 6.466360507870144 8.848276641377817
Rh 2.7601630461244655 6.528683560256743 6.450332106369276
Rh 5.860854516133146 2.917100773663048 7.773968151425849
Rh 3.7955858795332813 5.320969040525294 4.37062498343076
Rh 5.956424281280184 5.106695178506592 9.220533069228251
Rh 4.923063505660033 5.1778582680017315 6.800267724271914
Rh 6.050121350524765 4.396791999366711 3.4330167007202035
Rh 3.9508070799200663 7.878510048741048 4.690444263258752
Rh 7.132228421957761 3.9697079413410887 5.827643795030378
Rh 5.840243580163379 7.6374362962311455 9.486287650742002
Rh 5.105258912102161 7.792765660530714 7.033853105822295
Rh 8.146588603448247 4.082699997036819 8.33164755913771
Rh 6.554321482355909 9.660787818112869 8.044998499112445
Rh 5.131128226198753 9.996994520492493 5.823147771432359
Rh 7.435624640486803 6.253162275496354 7.112010798789139
Rh 5.104505325200985 6.70061014007449 2.5570193059583244
Rh 6.184169006941869 6.535784090465338 4.837656916132446
Rh 7.826790021660291 8.987073990400624 10.171500826836976
Rh 8.13147954176885 6.458995693823679 9.623941753789655
Rh 9.533053220790881 4.695970936786647 6.2389620123720775
Rh 8.71587266112833 8.330394754243235 7.921706275112887
Rh 8.398693241485189 5.378802327120495 4.096729349392346
Rh 7.455211296400259 5.942428702238706 1.8585174813439715
Rh 10.174357098965297 6.221279301866783 8.137038837343905
Rh 7.338320709692238 8.671936878751469 5.753825505544586
Rh 5.91233590018908 9.037005720841801 3.6086283991606347
Rh 9.467626963405515 7.206064017518728 5.697936443446396
Rh 6.735193139791283 8.315086767850035 1.3980722409694133
Rh 8.196349408552143 7.826741075867463 3.4615588800476225
