33
Energy = -187.67664415 eV
Rh 1.6439193388137123 7.5176451476352515 5.795848854890436
Rh 8.957675594988496 5.444288376430109 8.703316245203686
Rh 6.884148054721465 6.227925653650992 1.590218208503642
Rh 7.72178499822744 4.183614588151539 5.595506159616431
Rh 3.9871572986003443 8.432610862003008 6.060653827754579
Rh 7.3325615656652445 7.305583861971945 8.017269486205391
Rh 4.525599891068154 6.535697375177144 7.934780975229103
Rh 4.125453042096911 4.1291741160181745 7.335405768430581
Rh 5.873576888253105 8.65229025714224 4.428717329644198
Rh 6.31051071100028 10.024214009395632 9.443761441288917
Rh 8.412912157082504 9.529052927451605 8.367523501536493
Rh 4.1602081666716915 8.946138025437618 8.560151644432517
Rh 8.19825218241522 8.739468259644946 5.457413807624517
Rh 6.200861648016037 9.345706690465304 6.970892120921731
Rh 6.515142316905488 4.902471027980297 7.914437840828501
Rh 5.176747827657528 6.218703519763641 3.436575809890135
Rh 11.434601044414178 5.617136178575182 8.198024272544
Rh 2.8528038124957416 3.4867869375093616 5.327109346893789
Rh 8.251630871129137 3.054435337552122 7.927883361715826
Rh 10.134552128298992 7.575056044402834 7.80500899030001
Rh 6.114255393386954 6.499679593265161 5.867404469730787
Rh 7.691319563228523 6.874233152052742 3.8277924986291785
Rh 6.107329611905021 2.5344875296370666 6.828694506762358
Rh 3.497375553835358 5.900716580400894 5.54106976091964
Rh 6.987932228148728 4.422549962717211 3.232311709046338
Rh 2.0804369378058163 9.32219467130208 7.429134300720471
Rh 5.228880751960247 4.067557830004655 4.957009147599907
Rh 10.110150964929032 4.217539198649911 6.598378290223388
Rh 8.850041909690926 6.391303710184146 6.069724658637376
Rh 3.2591288143115844 7.7657881547588365 3.804671362822255
Rh 10.082407053736551 9.691998714673394 6.61216947095388
Rh 5.808569216521686 7.6073121380149376 9.897516744286271
Rh 10.49413834088992 3.3570914939712697 8.96551404783587
