39
Energy = -228.47883178 eV
Rh 8.485964564220742 5.838439161048163 8.405325960874157
Rh 9.629721389604326 7.4121477713079855 6.877790737245498
Rh 6.180970865322437 6.128150239263235 9.673443481435397
Rh 7.103456026500684 8.123131912902876 8.139028872268703
Rh 10.240951983211513 4.860444605926836 6.635069695495843
Rh 5.238288080711773 8.527159121753973 10.155383584261244
Rh 6.42574763931844 3.822714706733354 8.545396762793535
Rh 3.587101229535948 6.556513798185235 10.365756503348415
Rh 8.835544466703455 3.3079742155066287 8.143562609864977
Rh 7.673582079716367 7.821556179038885 5.470633813214546
Rh 9.27641420014544 6.144960595830156 4.5780626056469265
Rh 4.098993993280974 4.7761624534495315 8.733414721406987
Rh 6.468097959386269 5.842724011727065 7.022453068241096
Rh 6.807656557051222 9.97420790114552 6.384797613856178
Rh 10.04326628426239 3.7544103896645997 4.097640621097506
Rh 2.8129116267415175 8.835729760595274 9.168543128153333
Rh 4.494495956654381 7.25746110996628 8.04461513209467
Rh 9.625502935560561 2.158845595338855 6.05774135067794
Rh 4.928971744687057 9.79205896279689 7.9912588677807666
Rh 4.585219071696547 2.766428145543771 7.21260785801129
Rh 7.973591017494377 4.24325868298094 5.745179740512745
Rh 7.068468914252938 2.055063416478584 6.696392631125857
Rh 2.2566647883200406 6.500074354069924 7.425054251633366
Rh 4.556310567397945 10.860773766551533 5.680037238818637
Rh 5.116820323325536 7.847428904685041 5.690466252412596
Rh 2.896099098154519 8.927952119441606 6.5981521815844335
Rh 6.172076208584181 9.372641913438398 3.9453105636278267
Rh 7.874862748696198 2.2974779283538442 4.099064388839937
Rh 4.089210234932269 5.037306143255995 6.163392187155892
Rh 7.44725039329794 7.327818666550807 2.907671588737561
Rh 7.963553756697085 4.663924078744743 2.8934869152843943
Rh 6.215704317537871 5.752866204731128 4.481596835553142
Rh 5.590180241365664 3.267162628117683 4.955202753522561
Rh 2.9014231417419865 6.831634404984781 4.916026821054048
Rh 3.4940053939706504 9.235194757530751 4.0980012148211475
Rh 4.690307984298927 7.3367946541798466 3.012351602556581
Rh 5.909323251421223 3.104290514917653 2.5105827350063237
Rh 5.890788165850536 5.548824427944798 1.7751670130630102
Rh 4.051618126485513 4.814071201637219 3.535039053110774
