33
Energy = -189.29506698 eV
Rh 9.253328220874971 11.762583305278646 9.958411827816944
Rh 9.623895472730043 10.729332331714497 7.648617930444097
Rh 8.427782079991912 5.741430346398467 7.177584911774719
Rh 7.791921008189618 3.2536109927230212 6.8101665853382505
Rh 6.119690677256701 5.806870789872737 9.929525284817194
Rh 5.097291900622458 6.558378146361771 5.977541302195073
Rh 6.661276442605453 9.156251502174428 12.409357950290971
Rh 4.276422730508991 7.608847710331925 8.155780940808501
Rh 6.137566922606205 6.697717075990167 12.330494398215286
Rh 9.331155638642878 4.42119577969508 5.120143063062373
Rh 6.812790396008426 7.596833585589401 8.151496077109293
Rh 9.497695670865582 6.418688790640733 9.377208904859193
Rh 7.322623284808666 11.773996944397346 8.34218798331651
Rh 7.463951375295584 7.618096550106207 5.53280592291764
Rh 5.5745314973407165 11.522708674587125 6.483786017551357
Rh 10.151644889595515 6.833391121586595 5.509349708470152
Rh 5.494333303833447 9.893536341138194 8.452065201526505
Rh 5.965397171518354 6.839135542617209 3.6499270406805002
Rh 5.994978768570982 4.936310692035311 7.6265860785265405
Rh 7.331361503614825 10.179265769594561 10.306004005554659
Rh 8.032521311832555 4.249700329166718 9.19548574931985
Rh 5.366367017327237 8.299776518313358 10.380942765842711
Rh 5.197441075987901 9.027606199386476 6.040464836572392
Rh 9.27967446978156 8.141385535925343 7.4949826185553325
Rh 10.13769390091476 8.027207591700298 3.2636821278169648
Rh 7.468650914497759 9.87574320280361 6.699567974224021
Rh 10.75095145382208 5.504723361532776 3.4287383147480908
Rh 6.830709146233876 4.895957754566896 5.119185017841723
Rh 7.873838059583932 7.68661176877296 10.662384586125262
Rh 9.610852772692363 9.242936214834813 9.739953069954108
Rh 8.118563192134706 5.296840985294559 11.455110424516192
Rh 8.383115920552735 6.299502408308794 3.4956495913379015
Rh 9.465519328607973 9.332665345017869 5.251023420193457
