36
Energy = -210.0194919 eV
Rh 3.8688905691537734 3.7571742505304644 0.48201524074557817
Rh 6.099696691528931 3.6723356874600754 1.9624393564948033
Rh 6.001713888933715 6.237050194462164 1.3536882482171415
Rh 4.496253727888873 1.68276525779386 1.894839256083906
Rh 2.013303261224432 2.213236409980191 1.5776807971427231
Rh 3.12716011079963 6.692598817956715 0.9325620147142415
Rh 8.324966969562906 3.7392302410784723 3.1089248850311457
Rh 4.099267587278799 5.1235271902443795 2.5416010012706916
Rh 1.7132643291063432 4.693338435907455 1.8625907373400916
Rh 7.036784810327314 8.105707983208159 2.7434744559881614
Rh 7.002350597366204 1.476586686116721 2.753918842635591
Rh 4.534067238341472 7.729471416700432 2.895786303164412
Rh 0.9020253506582435 2.0986172605003577 4.270841056592744
Rh 2.7501185183955306 0.42640669377588897 3.4477349061603206
Rh 3.2008538562023214 3.006482764580549 3.6810933769994794
Rh 2.1695231196857576 6.789229783057267 3.4268990068985437
Rh 8.49899519600021 4.744859726882455 5.470565926464776
Rh 6.956541627395224 5.810197991535828 3.7171038400208154
Rh 3.3837707583895957 8.445420991578994 5.156902619133847
Rh 6.009818707693123 7.935333782336702 5.109484849464957
Rh 4.287266575693382 6.097116810034946 4.8674601572762475
Rh 1.3373652584265863 4.584299483062596 4.424240545160663
Rh 5.5020215952041305 3.7939751173138148 4.5483649594615585
Rh 5.087583977242928 1.2237757653592074 4.390240126177081
Rh 7.411868326074176 2.439790385357766 5.1510345770374615
Rh 1.9958021417436638 6.479775163030296 6.06722801105103
Rh 6.341559564720842 5.601750614844382 6.334362160877053
Rh 2.884905072068059 1.4159576068231652 5.855572619111208
Rh 4.357031241696266 6.9865651092351095 7.231431846794879
Rh 3.3545561014465797 4.0800386216573585 6.049104947861141
Rh 1.0459899519666902 3.2835056912460776 6.6129081675315415
Rh 5.20489715526014 2.3183426036723565 6.722133747153065
Rh 7.26162358604482 3.569477158735878 7.493786331240088
Rh 2.425269222472697 5.19538585374893 8.194087432554065
Rh 4.882874060596648 4.534307120403568 8.108787964719196
Rh 3.057201037211622 2.6435471135883244 8.186291469231538
