37
Energy = -216.66137304 eV
Rh 9.607483813961037 5.896464114113276 3.3374887493618983
Rh 9.260392450922414 5.3273453719260875 5.799489102178019
Rh 7.672270001735388 4.140809504294904 4.127399741530894
Rh 10.513392263368761 7.482165358429045 5.206483667434254
Rh 8.579401391245863 8.270372902754985 3.758494993745103
Rh 5.362532692942396 4.5040736975647215 3.1217911405176757
Rh 7.188640991507003 6.208774757203268 2.6583893925860034
Rh 7.465941957475981 3.594326800956907 6.625538832266452
Rh 9.961897227765148 6.9589332038040554 7.71108092712433
Rh 8.44575962549169 8.537503975384642 6.364384126945051
Rh 9.127685897301205 4.648614671945552 8.330503282827863
Rh 7.266303539829199 6.694817632061122 5.213655082298306
Rh 6.946107010470419 5.935026347485324 7.673802430051734
Rh 5.7506744317142005 2.5631843756270754 4.936651631955281
Rh 6.387399761730878 8.632969399863727 2.38739351385689
Rh 6.4226681535199255 9.232325483831282 4.84977300963647
Rh 8.50628641116213 4.134403543081779 10.870993182560028
Rh 7.863929230205134 7.989648947532679 8.788230169455026
Rh 5.007947010267791 7.025100817973583 3.8047080641969515
Rh 9.335282523541052 6.39523444971551 10.127070102039323
Rh 4.1658286833289075 9.423047997523502 3.66206676656249
Rh 5.339301832655101 4.961311032622261 5.732953718740259
Rh 5.060866246657476 7.537676863070054 6.433817110488977
Rh 3.2358539418516887 4.045003951317055 4.289512648127817
Rh 3.3617956469496266 2.0265098938096595 5.754629594467251
Rh 6.819712005949864 3.6812759482539863 9.124410444929882
Rh 5.079781439642953 2.8499270649360455 7.41499886815908
Rh 3.050721527328193 6.342056354324581 5.212986255813082
Rh 2.8614652026696614 8.74955285596516 5.695315067319689
Rh 6.308423351968466 9.499781433518391 7.461850677077439
Rh 6.776997260655931 5.992326825615341 10.282928456595453
Rh 4.566730896916476 10.643993319351875 5.915761651498436
Rh 3.0543071613782544 4.3797881176286415 6.888279377120245
Rh 4.708785049501931 5.074316668995859 8.717244187322644
Rh 3.0621577621991984 6.822214648726597 7.823008257907252
Rh 3.765677132352768 9.37601051827517 8.032756696103418
Rh 5.281204934521936 7.594717613200334 9.035765541882737
