33
Energy = -191.54678076 eV
Rh 3.464763518083945 5.698379033580994 2.964876928256003
Rh 2.206799024721944 5.019024271488103 5.0673786721251455
Rh 4.7058123208046565 6.390274517470467 0.880042207768135
Rh 3.0462607552291243 2.85358153293922 6.1622919892016945
Rh 4.559040633373296 3.907845633498546 4.425824534456755
Rh 1.6652296300182587 4.331047050827732 7.71330712219963
Rh 5.925965098908978 4.8832449307728405 2.4901412266436633
Rh 5.698730799075052 2.9992179433632464 6.57736249943312
Rh 7.071354457458113 3.5011599891755787 4.353155296259645
Rh 5.255752981825393 7.556982471067945 3.036696296158228
Rh 3.7736111637622782 7.1512133253914065 5.060464792920488
Rh 2.208958492114089 6.703458181128774 7.048104675034077
Rh 4.3366369390188515 5.199197392620827 6.663036801802689
Rh 6.308868514257681 5.945128221649471 4.838820580709578
Rh 3.8525713697291892 3.292172584040518 8.519919773890182
Rh 7.20287394000239 6.895177853821915 1.5055285398019884
Rh 8.343813262087401 5.4638424962170005 3.218149274105934
Rh 9.572002609415284 4.198153470496646 4.9992013122590455
Rh 3.641680565334008 5.853228140056853 9.085750886362591
Rh 7.74937989875908 4.437376959858997 6.750025270401328
Rh 5.954357409210142 4.652600889296512 8.609878479781305
Rh 7.730787434711369 7.985152653380992 3.729581455135417
Rh 5.863813522827682 8.55031103950869 5.442178736127599
Rh 4.429946356403858 7.806623688075687 7.481118939949887
Rh 8.975275276925204 6.59561317465279 5.535646353124379
Rh 6.91872415355672 6.851488233547222 7.116670358054793
Rh 10.066956509533723 5.257596585793668 7.379765663211663
Rh 5.917377671247858 7.069034828756976 9.510115867322964
Rh 8.170429871353209 5.808633611253197 9.061605875461986
Rh 8.29448556310015 9.039917910741229 5.972541591220665
Rh 6.633526826824262 9.143857040293465 8.035005411051968
Rh 9.386923218945117 7.720533398812341 7.860690934488916
Rh 8.135100701590238 8.271235180281666 9.93151020085068
