33
Energy = -189.85941598 eV
Rh 1.9986575181788406 10.298384623313346 6.581882049374046
Rh 8.554335754843448 5.015755872946274 5.315294684484334
Rh 6.907681895704556 10.739205120439548 7.75582008798552
Rh 8.781473220542706 8.067558371691279 9.211312657657876
Rh 11.034069504970955 5.026507328990348 4.939393596159529
Rh 4.946619693073963 10.731061587605948 9.418807318929
Rh 3.6823149383618254 9.681812747698348 4.799215071359239
Rh 4.501761100029104 10.837792844164982 6.8428915876957355
Rh 9.396450352598652 10.415435350169508 8.741816475602139
Rh 5.368635670784733 8.20763737532963 9.769395799915792
Rh 9.256567984327782 9.484857911322395 11.354939798585992
Rh 10.156163658629232 7.42241378864279 5.218743946309186
Rh 4.973602061362715 7.563288653230457 5.428255988001401
Rh 3.5200066372998635 9.003462279601656 8.163576395319147
Rh 8.85862109979765 6.649973314226003 7.169640407343916
Rh 6.3363604739788615 5.700643942514422 6.424197420102541
Rh 7.5177972192923965 7.480413566824954 4.999319104550112
Rh 7.963818353701643 4.154101502465339 7.727698597767413
Rh 7.477575504047081 7.388751188291754 11.200038042506266
Rh 10.457909607702634 4.7446077453754825 7.428314937507821
Rh 6.582287443533695 8.213741821812642 7.483066268123722
Rh 10.166149566683279 7.098348919298752 11.273491299837197
Rh 4.444773514777718 6.699173734320031 7.834076604510341
Rh 6.283768266821705 9.726512105744364 5.397212418721834
Rh 12.08336643904102 6.5399117896379275 6.661402304563562
Rh 8.635860896558713 9.340068708799398 6.417659588717371
Rh 10.81345090842006 8.643887437758522 7.481198846499637
Rh 2.585813934772979 7.831543381968126 6.18753827856603
Rh 6.754530343834309 6.124728040261266 8.97359880647073
Rh 7.180182604745233 9.930701985269476 10.161991359237392
Rh 11.165688260251905 6.675613164161699 9.005888365134242
Rh 9.094067257886664 5.389576545742311 9.682945303500379
Rh 11.383053682936985 9.06570797109271 9.94822335629213
