30
Energy = -171.75522209 eV
Rh 9.556843462947407 8.276635601402422 6.5295811156332055
Rh 7.041933517506342 8.696522915332915 6.828981094914402
Rh 8.983179987182176 6.530354436679916 2.8268909509642017
Rh 6.362522469264471 6.864420605397472 2.8109881964999084
Rh 8.049746772045536 4.543163907370346 3.8111965571950073
Rh 7.91726037880851 7.907438424579001 4.602115815876554
Rh 5.398326539052772 8.201713306817767 4.912015190215419
Rh 8.95269563763959 5.928097595277925 5.918809667791193
Rh 8.29879475799506 7.606858723493375 8.665602735148061
Rh 4.564311992384015 8.52021645157705 7.36621932935248
Rh 3.8130491742521513 7.134120687005727 3.2417874463139373
Rh 2.925320880018096 8.501175375982939 5.387823342169663
Rh 4.74860133896184 4.8162348408000355 3.605150924341522
Rh 6.110897419691318 8.97770099329915 9.319706309941962
Rh 6.590847548294581 6.7075182884157805 10.329496934846619
Rh 7.758645716991528 6.184315592095263 0.7670937338626487
Rh 6.525529753735081 4.427665297700863 1.8801702450736955
Rh 6.070943476761414 6.389037616769892 7.753620317753275
Rh 8.269369349382918 5.146794281223535 8.196329982117932
Rh 6.46715872875851 5.820107301241861 5.259918536007278
Rh 3.8533330354180046 6.181260395533286 5.692843973640554
Rh 4.15991366542987 7.164608506198672 9.512639991964733
Rh 7.416510680124658 4.361033487680065 10.436053930805828
Rh 2.420365400650072 7.099573230599948 7.592752361088042
Rh 7.631477968429087 3.693525516014228 6.175997887381631
Rh 3.8435295978602646 5.030135673339856 7.971078163344003
Rh 4.887347098763182 4.7965105211661 10.333115064131052
Rh 6.090776294010959 3.8600741402707324 8.287704175612816
Rh 5.027084349474972 3.8205197861795326 5.972081674864181
Rh 6.243205213652633 2.7921887060418453 3.99175655663553
