35
Energy = -203.26931228 eV
Rh 9.723281263796572 6.81309688282079 6.796933127989278
Rh 7.831234282333393 8.521967396076382 7.209088725322832
Rh 8.3887041610563 6.474548574465561 8.99554969407708
Rh 9.632072027803142 4.502001445042797 7.869855729161377
Rh 8.283650117121182 7.523658664344644 4.908943716626496
Rh 8.369322398245476 5.0296844168843675 5.63021363208708
Rh 6.895573539619964 9.70869161458945 5.147249136732539
Rh 8.031004169892666 9.00516835323201 2.9792598813121116
Rh 6.245284661928957 8.09341016091371 9.08967809729672
Rh 6.701513508079618 6.209720551801243 7.294708846811562
Rh 8.006151552900267 4.10310839744939 9.829747642770833
Rh 7.819244186999072 6.325060053402073 2.6894767267448096
Rh 7.612819887119715 3.1231407206329735 7.531725023173168
Rh 5.175543437066039 8.271920051557121 6.722076125217851
Rh 5.960065494422412 10.475484145180744 2.8787221148174975
Rh 6.305391409425918 6.0479797176458305 10.51492550404817
Rh 4.648279948751456 8.957170492460225 4.359910105095367
Rh 5.845560011959106 7.973781941974653 2.295777104651475
Rh 5.916826516246894 4.108260946886473 5.946257757264237
Rh 5.9637244121028 6.565863055168834 4.586521324852376
Rh 7.6661531750975165 2.3110410888074706 5.229645330350691
Rh 5.737441683061677 4.3575466714749105 8.798442557405636
Rh 6.9263090249488455 4.095987722462599 3.5771661104730996
Rh 4.293206727803422 6.565924098343024 8.744556126455882
Rh 5.498343204953153 5.496711739923163 1.959713753098304
Rh 2.782699203333113 7.835628620217879 5.540823370299604
Rh 4.124880516686678 5.836197267553827 6.33078344802868
Rh 3.6632616997568412 6.823123975431144 3.32297581292282
Rh 5.017055140032823 2.291862143756882 7.4345385942905144
Rh 5.188699777197631 2.1236406250806 4.538593043918689
Rh 3.350066734732978 4.164979828040017 8.111845147238846
Rh 4.302014441697862 4.4442913381642795 3.8957547500205063
Rh 1.9912958268122343 6.2898471729956125 7.54924790760583
Rh 2.0102844359596572 5.398041805102762 4.959822795119403
Rh 3.2170877679379264 3.257069114564931 5.789248712337511
