35
Energy = -203.44935142 eV
Rh 7.1265077921965005 6.664968154803347 10.209932597508375
Rh 9.020694250807425 6.091445267806359 8.604717606862945
Rh 5.631086348809898 4.5225532841204865 10.032720810980297
Rh 8.537641909176342 8.568290588510537 9.273861982615507
Rh 4.570590597669195 6.884713119452604 10.138514407224132
Rh 10.191868678638777 4.055499891084454 7.850851965658824
Rh 7.6638520654191336 3.9278290585250533 8.293305730074295
Rh 3.4873764551545654 5.145665557518395 8.58408657353343
Rh 5.181528111736031 3.5621364116359953 7.699465945802778
Rh 6.047646549252807 8.478637668467965 8.704540352798574
Rh 8.189168189277133 7.798416243278618 6.889043286028125
Rh 6.170207018177015 6.021037669718298 7.939475753348156
Rh 7.339193824348642 10.18331356186922 7.375922927935985
Rh 8.88144808178805 3.034901643156069 5.936441277894822
Rh 6.768952129875118 1.8671459848038454 6.7724183350985045
Rh 3.842724478958072 7.481856377290107 7.716617723836171
Rh 9.267324886422955 5.600162015815305 6.013243613375961
Rh 6.221780213671603 11.429858640198251 5.513936043883303
Rh 7.6253493167430975 9.37654422876891 4.9610256512266355
Rh 7.652268100149011 6.820869924322496 4.4792797423728725
Rh 5.813154713557561 7.7826043985223246 6.041249333973782
Rh 4.690542332178879 9.826936414614396 6.834889186520666
Rh 6.848308209125667 4.614504681065999 5.885896559839444
Rh 7.0080731260432785 2.361240334478395 4.267612710298068
Rh 2.76933015133282 3.6322390045587003 6.715544986106801
Rh 3.3743496984284156 8.034546332510114 5.291595846139657
Rh 4.306340039537692 5.5395115839508 5.92261494143964
Rh 4.705922943890324 2.851802323494182 5.333219325049719
Rh 6.845284818135989 10.964553621992346 3.0750653347230443
Rh 8.332548205376401 4.480064548391832 3.751551499662884
Rh 5.042744435398066 9.58788838666005 4.159631453200822
Rh 6.883615467110717 8.508672424729882 2.67363315511177
Rh 5.085447124373873 6.95348937510723 3.716882036929227
Rh 5.590596274296664 4.473107702713029 3.68513995802679
Rh 6.883990599823183 6.0023396996570995 2.134028330905115
