31
Energy = -178.53796855 eV
Rh 9.184141667944104 5.721834332041785 9.050772787718246
Rh 7.983472216605131 7.853100721280615 9.640307327747648
Rh 6.940844015970688 4.685168638901485 9.676535327786759
Rh 5.68585907953621 6.863082489180374 9.309163987528729
Rh 9.690217120567128 5.267337293688475 6.567574280126142
Rh 5.895985703223292 9.384251981162096 9.569864588723187
Rh 4.403607753044868 6.232087347955829 7.196360597202504
Rh 7.152046842700121 5.859868631863851 7.320063808316106
Rh 8.960981690949787 7.608330385440127 7.273677254089274
Rh 4.389514983570586 4.598142507081043 9.054412731689993
Rh 7.876574593682745 9.757298671765522 7.9567003143373976
Rh 6.120840385291746 3.535035313662374 7.58159460879258
Rh 8.62176247188611 3.4199395099043657 8.016721270245592
Rh 5.874614254600499 8.544434905737363 7.063672449930687
Rh 3.7452621407062803 8.35365888315147 8.477150083515626
Rh 5.722499885301022 2.290220553593068 5.401151175071077
Rh 7.801734066091942 3.8644163261962343 5.551369005216251
Rh 3.8640940100371037 3.820396089025137 6.456233870057626
Rh 8.106816962904897 6.464037651873848 4.976204979064602
Rh 3.620514990034884 8.24232599031908 5.912098766434952
Rh 7.856608598246656 9.010353308739058 5.480083971909321
Rh 5.660558994775234 5.262682188802334 5.155234078510032
Rh 4.116377269309641 3.5728882417246663 3.874769149528283
Rh 5.764645897868063 7.920538021412439 4.497124244362892
Rh 3.23921319580188 5.871882224134947 4.903724371188132
Rh 6.6633069765412465 3.528249776012711 3.2906567270458287
Rh 6.79930031259326 5.906477605266335 2.857289471053799
Rh 7.8974035785826775 8.185236201044143 3.1008984445897383
Rh 3.497313069179813 7.919929021131744 3.4030840714113917
Rh 4.293755541663825 5.692624840769708 2.537247706822118
Rh 5.551510176593854 7.832479715119134 1.8558951719438657
