33
Energy = -191.23902257 eV
Rh 4.8053685335207685 5.360133067108875 2.9764988241575834
Rh 2.310807177753973 6.1668834648335435 3.080825841820965
Rh 4.1290324734614625 7.835318455934113 2.549496818038982
Rh 7.330793997637486 4.891827167267773 3.5652828538613397
Rh 6.563898606081891 7.31944858419819 2.79078462788201
Rh 9.808943998951033 4.636342932782846 4.166132291581122
Rh 8.964721165265267 6.921010873576675 3.25565520815125
Rh 5.57588977300609 3.885372023237682 5.150745123583448
Rh 3.3112670276855067 5.14491670755099 5.106034471802775
Rh 8.063779688428001 3.626360468491935 5.763377693863865
Rh 3.2614986561890142 7.710894353790789 4.963112696944197
Rh 5.663721605902633 6.523572152102937 5.052860619448017
Rh 5.388170866891381 8.99780950222464 4.370421473537398
Rh 8.252890556666648 6.197175833117509 5.610012047469679
Rh 7.967341657203629 8.590172302610556 4.850927477665595
Rh 3.9951915202434183 3.920881021620988 7.1979483082898525
Rh 10.136832112026108 4.892175493777412 6.7621060460804285
Rh 8.398829302065907 4.128620716898541 8.355521657121491
Rh 6.715721747515118 7.818330015445178 7.058415594952531
Rh 6.640390621039491 10.33028919813107 6.086016277835287
Rh 6.308723528879306 2.7332377280305202 7.515074047439629
Rh 6.356201113699738 5.236010341344215 7.268495524296667
Rh 4.699251650393063 5.181283615649872 9.346179903544554
Rh 4.505910650893583 9.062064258060538 6.859006606082578
Rh 4.064324648687002 6.5469302222219055 7.181649457089515
Rh 4.355766102350965 2.582411981960399 9.244586487913505
Rh 7.746598037434436 8.38816655503895 9.455724233461595
Rh 8.780460341605021 9.315188063958047 7.230454148864263
Rh 8.982345459227195 6.788317410073877 7.9445860867556535
Rh 7.111805665969371 5.962648018614899 9.63951745946175
Rh 6.572858147339331 3.5371905659208904 9.973203825340482
Rh 6.161987168846967 10.174989295657968 8.583423821124681
Rh 5.241447564225352 7.745772042183079 9.136111916843507
