34
Energy = -197.09433954 eV
Rh 4.569272131525753 10.055523252250719 8.51412318191534
Rh 6.679665916969244 8.614447072705826 8.595063623689242
Rh 3.6550304489895478 9.552953234811369 6.103162177485072
Rh 9.92461080180553 7.258236398474565 11.15321038736715
Rh 9.61683778127408 8.131190440718576 6.166376581408187
Rh 5.297119134183522 9.98628609338526 4.024574827953412
Rh 7.174603718774438 4.037367704822003 7.964517847853476
Rh 5.708618803501102 5.639072082384924 6.409880157823415
Rh 4.74504318927236 7.962435034171006 10.14341654311498
Rh 10.941743673016227 9.48933439139546 8.329735653032674
Rh 8.4554279982268 10.052500538645445 7.215483090312434
Rh 6.411534773899262 9.942546871325549 10.766314246324152
Rh 4.4597264575061075 7.587145890747764 7.515126019726539
Rh 8.475919005154285 5.468338964510997 9.79344554561222
Rh 6.73978938309779 8.124447097597878 6.093696726023015
Rh 8.221290342930907 6.9368139257017845 4.482920553740039
Rh 4.743699596972559 7.569725233402688 4.842740430249838
Rh 6.777606767642717 11.399128298895628 8.661338998226997
Rh 10.934914271132099 6.77350749722632 7.783822169976183
Rh 5.996863717850172 10.47811917116688 6.40037645675677
Rh 9.117380768276833 7.9813550840995555 8.987870524207286
Rh 12.118331434559305 7.703657139843075 9.827911128503922
Rh 8.570185931939253 9.248556231560764 12.098720992581258
Rh 9.72373619026045 4.521901545801127 7.666045439299469
Rh 8.791749337365179 10.306377931759876 9.808314589820919
Rh 6.50573264902012 8.051805634258601 2.976599300390949
Rh 7.9763371954532 4.6225853294998505 5.549302124365509
Rh 6.14551348603202 5.593730283781525 3.896535989331618
Rh 6.003387774554079 6.063877366225362 9.020186060725795
Rh 11.019554614464786 5.291572437230699 9.847298038388605
Rh 8.072969990924058 6.370477691896378 7.339598325689237
Rh 7.248431672612774 7.422352207534867 10.909148808833317
Rh 7.828276631815551 9.680395465889776 4.534224722472306
Rh 10.95878902121895 9.642990600869032 10.924456680111614
