31
Energy = -178.49280931 eV
Rh 7.388001079644978 4.143437558658464 8.727132352485281
Rh 5.6834829772694215 5.631029095570638 9.951279280866205
Rh 8.65928430306757 2.7796340073510977 6.960030586668561
Rh 4.886000850149266 3.3665249678005433 9.221387519223041
Rh 7.5816702982015265 6.690675049233001 8.534541912167183
Rh 6.119097279460708 2.7889958625908537 6.915943662498659
Rh 7.4840726396706465 3.025146984652988 4.733322922213097
Rh 8.697702886083409 5.342766993142597 6.743046000514617
Rh 5.666666524514197 5.293802713136626 7.244663986444734
Rh 9.89229804617746 3.894432194949159 5.019811084101308
Rh 5.244224210153855 7.683229625503672 8.543655826064496
Rh 3.448101424909202 5.799281503677708 8.457061177678941
Rh 3.665219451057274 3.546773625888271 7.017647444530505
Rh 6.989429502312541 5.451224100592645 4.978510558326993
Rh 8.470304523600005 7.94794554996952 6.542391332010077
Rh 4.911978688262487 3.934351642778426 4.855201479624663
Rh 8.73266115061797 4.329389654729085 2.8103148182768822
Rh 7.241527199189426 9.220464805285431 8.453400326527523
Rh 9.254338267202444 6.410075546634348 4.478920608930599
Rh 6.1718156702678115 4.197883544565462 2.7501742410168117
Rh 3.382269344185896 5.7397735899727405 5.825175650944781
Rh 5.315934608925231 7.489928638702149 5.943775579797062
Rh 4.721970063933081 10.047844146679186 8.004057247297022
Rh 7.286168675561961 8.025909639165096 4.357589891915454
Rh 7.328639911764184 6.430287669025427 2.476529929740119
Rh 3.157826747401291 8.084742262571268 7.134177705229233
Rh 4.892666288792468 6.360504083859625 3.6076213226115534
Rh 6.352673971571715 9.688440915979397 6.122471546468165
Rh 2.966418561119218 7.867870684268314 4.565158786155177
Rh 5.068523311660443 9.033602525279692 3.818919396825219
Rh 3.7247881005564007 10.141877668653315 5.642077867253258
