39
Energy = -229.05384271 eV
Rh 5.281073089478777 2.8001448196288083 3.5069298463376253
Rh 7.669114524379187 3.7905643261368542 4.203329379188064
Rh 6.263982000611501 7.672569382538845 2.4073051479470506
Rh 5.803402717507488 5.213271063208875 3.048422758351425
Rh 8.515804399108925 8.738137092303464 2.962647008459914
Rh 10.21126291183455 7.444872679696006 4.5562917484875545
Rh 11.690203316111296 6.158058523977561 6.174052986039288
Rh 9.716962058329008 4.947169046666708 5.148042681005061
Rh 8.026712875614118 6.316287006951343 3.728536751490708
Rh 6.147338199321545 2.265282205686363 5.804821066734533
Rh 3.5589372202796503 4.560628414978101 4.238549085043832
Rh 3.9339816922114785 6.978067919801766 3.344266382980716
Rh 4.352379201617235 9.35428604820269 2.4735583175429334
Rh 6.306740469609458 9.818469959758986 4.027808458760841
Rh 8.007243738092455 3.6988520814621206 6.830103423738314
Rh 5.7604058748418 4.812073212885374 5.663484872835458
Rh 8.149286948492131 8.687680072158328 5.434069812636888
Rh 5.952685315666474 7.362290236043514 4.947627727938309
Rh 9.876409450508264 5.280375484555645 7.723495125092797
Rh 3.5832548858691347 6.581216756137088 5.8702495734241085
Rh 5.956293144470572 9.57712651756859 6.559982459140512
Rh 5.70841832839643 3.6567162881524404 7.985880497007564
Rh 9.927388735973748 7.782522845888044 7.080217517145403
Rh 5.602690850892801 6.806004321403067 7.67714800553598
Rh 3.6713687000912625 2.1172670517416767 5.364919829017417
Rh 7.503568784049904 5.361090069141151 8.794867739269028
Rh 7.86721569076946 6.2535894575183635 6.387189284253215
Rh 3.9825660078814216 9.02916203876701 4.966617234587359
Rh 3.5004948547550945 4.135811344496978 6.7789256704270295
Rh 5.766948442177903 9.706164301730864 9.066944203546432
Rh 9.332098978631047 7.070685565693974 9.476568689357748
Rh 3.3769238166761415 3.635092231258219 9.197382141016437
Rh 7.611930051104853 8.363372387342487 8.026597342565884
Rh 3.7156910441246143 8.555850532193991 7.550440754616629
Rh 3.1752864390611033 6.100114270671085 8.365359699810519
Rh 6.987733089747293 7.372992685353213 10.343769119696367
Rh 4.5044233847068655 7.768469310960205 9.899344844894285
Rh 5.407988359175258 6.503148901052752 11.98473172407167
Rh 5.118947750198205 5.24968088865494 9.924678432372849
