36
Energy = -209.43715684 eV
Rh 7.509256137308284 5.426668687405419 10.1404166405859
Rh 9.521931771462034 6.3269448418527245 8.914476873864588
Rh 8.608145993875084 3.7298522052270857 8.521617354674575
Rh 3.5243604445877237 3.2182144615327464 6.747405453297146
Rh 6.060055175687864 4.313682678468642 8.428508637752554
Rh 6.696893074207452 2.610263363350619 6.594533702538034
Rh 7.77666127503602 7.9089787516541445 10.344171058497412
Rh 5.351060234829353 6.9674143467151435 9.629424483150183
Rh 4.91577653053287 2.615524030342948 4.588818582692855
Rh 2.869130465813889 4.205850005472098 4.421445924721764
Rh 7.20086872974246 6.874087603149948 7.951493745613907
Rh 3.913499739345576 5.517938004067733 8.136105195993855
Rh 10.412170878633065 4.876626158147712 6.956754711709712
Rh 9.228291857377775 2.9415330017668433 5.890656636930221
Rh 8.79611966970971 8.914579013410245 8.134001822892687
Rh 5.337469812030742 4.737276879383208 6.0019590878276645
Rh 7.828386998712674 4.954163998542656 6.484396069321667
Rh 6.293371072706847 9.218839157581163 8.583835886354848
Rh 9.318183279875793 7.075757646678946 6.43896896755191
Rh 2.0761865737238083 5.405116957026069 6.572273377762047
Rh 2.4071522658697773 8.166672115963694 6.046682209954761
Rh 4.879267409825658 7.582021769528686 7.097798117486605
Rh 9.344038146525188 5.268379882592131 4.499937524755655
Rh 7.214890640473039 3.778092729427005 4.253670663594357
Rh 5.152154521030986 4.890325251696375 3.2943961045450636
Rh 8.761731696216101 7.77984931449487 4.165508882783374
Rh 6.542193175806905 6.792359744861185 5.01528099513139
Rh 7.153385047995763 8.987011907426192 6.134710599336828
Rh 3.865308672366763 6.474185703529062 4.942869020989977
Rh 2.959429481611595 5.971786027236566 2.4325561041967463
Rh 7.453457629583791 5.930691100751906 2.8148081746026783
Rh 1.2996731622511446 6.385099476116706 4.395748205016006
Rh 4.670756903205552 8.941687936916605 4.971159046236503
Rh 6.750589486039589 9.079558759809366 3.541147605654085
Rh 5.043543447881677 7.421034390892325 2.7925556213265565
Rh 2.6815372819920897 8.358128145638371 3.424117453003344
