31
Energy = -178.8613631 eV
Rh 5.341422316485176 6.99397718226788 1.5957936861774522
Rh 4.65224970366015 4.790175707766966 2.6210674787280137
Rh 7.036395753486719 4.833320717237836 1.9042328571674318
Rh 6.2953785907131845 3.4773783237012053 4.1618967507499995
Rh 3.5516218912823945 6.8709122419001645 3.5314934413923207
Rh 3.9668565436181757 4.591199152510078 5.047459246743626
Rh 7.578359811302597 7.183383892199952 2.8929025096857743
Rh 4.0861154276163845 6.9494389343772305 6.080855987032665
Rh 6.003408809252441 5.996318749617056 4.460601622142285
Rh 9.577458447150793 7.042702953015008 4.611911430521725
Rh 3.220431827331045 9.068251441948954 4.768691268467301
Rh 8.44897236179081 4.925196214291416 3.944036118048183
Rh 5.401633473877772 3.1395664314097593 6.564217490540253
Rh 3.657803657484985 4.829705409256597 7.6024183579148445
Rh 5.516858051320925 8.467803958880651 3.731140479602522
Rh 3.0316949615269846 8.955318730019613 7.3283500090647
Rh 5.35866653590098 9.19759900256731 6.225318143794487
Rh 7.377441187916581 7.912133169350433 5.444164763196181
Rh 6.121531315264382 5.548548206357901 7.21821079890405
Rh 7.885166993588763 3.8030402899741373 6.184942874548807
Rh 4.241759555011792 7.134907745232064 8.641801574537476
Rh 10.217492111124592 4.716304629472493 5.700981070593986
Rh 4.540922659298654 2.8261845057502564 8.916245345430655
Rh 8.679314123811297 6.344490285746037 6.946799520085743
Rh 6.976378500754923 3.4456119825020632 8.616181593698373
Rh 5.0469616364132115 9.538932297409804 8.817711783628624
Rh 5.279938748054576 5.099793143097787 9.716383287960152
Rh 6.797062081083005 7.933111251227137 7.932958866811213
Rh 9.387510690174317 4.218539711278568 8.18861511564076
Rh 7.76423023503717 5.8633225933154645 9.278725684230562
Rh 6.08408857950714 7.474995296213684 10.334283795893771
