32
Energy = -184.72979213 eV
Rh 3.8674184012428996 5.222664761643414 4.7020344970887935
Rh 5.196224320156943 3.0664594682575372 4.936900066388908
Rh 2.5032044472665147 7.337339742342395 4.5201417797846455
Rh 4.654409651905412 7.079369319846299 3.0861642660080575
Rh 2.7702383693297468 6.200108365936531 6.777330684683285
Rh 5.339398999893384 4.625667316374076 2.7057084646148586
Rh 3.979143443341611 9.374208776330647 3.925030852247181
Rh 3.043879408017035 3.621700468777451 6.4490556016729785
Rh 5.81473810060659 6.553187380661324 5.325694321734078
Rh 6.285110151777903 8.99102911285325 2.879001617585773
Rh 7.150031420423923 4.591463340842401 4.40088435197162
Rh 7.228663430125953 6.47605989595442 2.7029590499923817
Rh 4.273635156693443 8.226324076695324 6.182072670819372
Rh 6.054360513938396 9.876489906240742 5.297686949765847
Rh 3.361693709554579 4.705798220626196 8.739321482304627
Rh 7.6655242958946195 8.004513927885839 4.699861164082893
Rh 5.376491815527965 3.954826739485591 7.316973095802326
Rh 4.566564847696803 6.99815626535588 8.405047874373519
Rh 7.431546854450109 2.8009133234228467 6.337810958189894
Rh 9.321599494121797 6.076000389510879 4.45052378746883
Rh 6.528330321573914 8.59216182462833 7.528882114316164
Rh 9.336185759576807 3.447303024235342 4.708322002820129
Rh 6.769963377968076 6.031598401797779 7.562338004103368
Rh 8.386683752455482 9.895914529578762 6.370244675564719
Rh 9.00881276363339 7.4270169445776695 6.706718970953919
Rh 5.607383929750228 5.022004641079948 9.759863383004573
Rh 8.934424184329117 4.886344909002176 6.684069481303994
Rh 7.665103702424699 3.8631305575706345 8.696055081578654
Rh 6.796952254061399 7.356876190526297 9.816256056970749
Rh 8.709477269737059 8.746819136335416 8.803746384294595
Rh 8.94160849934597 6.142407597801119 8.936933045419487
Rh 7.76635678308095 5.141300873726351 10.921526692992378
