33
Energy = -188.46354128 eV
Rh 4.1605026272239405 4.898198680572357 9.964657657362185
Rh 8.092771542522083 6.708588308934057 9.026833378774521
Rh 8.12351316542935 6.138706865038684 3.1666263372795176
Rh 7.80743179935836 9.339275500434304 9.347003918154867
Rh 6.655024555875404 2.7001133539694466 6.024507939362897
Rh 4.0830153975800645 7.06215741477474 11.003414940125824
Rh 5.833744265633252 7.876623145300597 9.598103594866606
Rh 5.75779366964757 5.757950490004352 8.315549151537962
Rh 9.440665353109836 5.824411281537631 5.7403073348329
Rh 8.800644851388494 8.085621522803363 4.450103411604532
Rh 4.888854491761003 4.457930249853254 6.123629065678487
Rh 10.250262043113977 5.838802791493124 8.099386120843283
Rh 7.418009341247629 7.146678207686564 6.658283443468449
Rh 6.19592746523475 5.256794279108257 1.930122673267191
Rh 7.955061933874296 4.567039973958909 7.5134959591260015
Rh 2.286004782473248 7.413652282367427 6.3600623036656545
Rh 11.15573840579246 8.956856806939708 4.4174390232795
Rh 4.7709605624442215 7.368988028686631 6.276375446304986
Rh 2.7686443083762278 5.080387305343859 7.064150970473353
Rh 7.285809973453105 4.839610814156075 5.055940584085895
Rh 3.1732407622795504 3.2249944349723294 8.542726098921412
Rh 8.871032081449087 9.236945448802661 7.056135146026679
Rh 6.078638903472645 9.174456269185097 7.460119318474705
Rh 5.658913758849773 3.266014789809614 8.227470156367469
Rh 3.479230653296945 7.019401552199698 8.544401950680118
Rh 5.463911690533065 3.824391188087703 3.715074773453923
Rh 6.455459883811335 8.754676433621285 4.89540656025077
Rh 7.194662976390351 10.903449648904619 5.909323787879439
Rh 10.788338768464401 7.772219243078947 6.467789848071692
Rh 3.439142516629614 5.8253879315988275 4.607199299405672
Rh 10.123277412196671 8.25908256468972 8.971189511755894
Rh 5.736318610159593 6.540683696829834 4.024528165220732
Rh 9.470195793571122 10.54265384189955 5.105386476040048
