32
Energy = -185.23331032 eV
Rh 8.204082103551073 8.921778160780123 5.909116389347524
Rh 8.525738712773732 6.540912849639337 7.055762686617639
Rh 4.5286771298227 8.387745602132584 2.756820170674107
Rh 8.173352242082595 6.386429524538042 9.655051738667522
Rh 8.45892473107861 8.94048358815212 3.377250484290383
Rh 8.16126235909364 8.636145864259289 8.458610222545909
Rh 8.695743781797859 6.64009656108112 4.474052791559145
Rh 6.547950120305705 9.468391559252026 1.7751326222510062
Rh 6.348262796147275 7.157992911366157 5.418819185182974
Rh 8.87676185547304 2.122685092345166 6.957307131119342
Rh 6.116443764732003 6.987029817056869 8.068007732839742
Rh 6.738344000872061 7.117895173223998 2.8300191391594924
Rh 6.1804919702350105 9.527063726561558 4.331817398021204
Rh 6.833053679164013 4.860122053465705 4.041857012839925
Rh 4.019454857821945 8.304873579192993 5.256066138760135
Rh 8.852257383707164 4.364171257541106 5.669246908871333
Rh 6.939914876296422 2.5437061862686985 5.42403690618649
Rh 8.550862552313907 4.242420590274071 8.290182192314411
Rh 5.729615933395807 9.404230417714727 6.7995322224215045
Rh 4.8389775990831625 1.653561599079001 6.4758179175196044
Rh 6.525687275311506 4.7333565365850445 6.739372919822353
Rh 7.481395707243559 10.858987040623461 7.674331264239197
Rh 4.537293417430762 6.094201448727473 3.9383974040374046
Rh 5.852943645515718 9.209835802259592 9.385351427407697
Rh 6.6175974740579395 2.48770418912115 8.06225685981125
Rh 4.674091555419361 3.8568136674440496 5.1782290673128095
Rh 4.1335622837364925 6.032579101801322 6.538531793428759
Rh 4.348692248795455 3.769570124418747 7.800942553952297
Rh 3.7973753588364776 8.24135661171609 7.908317419343736
Rh 5.840855034977915 7.015552407627612 10.639247833191739
Rh 3.967942674884727 5.9706487986279955 9.138315127675408
Rh 6.201334599754402 4.6627869454836315 9.431930254442259
