30
Energy = -170.85300247 eV
Rh 5.206548050528148 2.3825535168738123 3.3631599063701643
Rh 7.234829838548922 3.6147945763745764 3.881732229956459
Rh 4.955252532412027 4.640104012017925 4.3183312832491785
Rh 6.171612198954717 11.17585192107519 4.776432612335753
Rh 8.700523186489315 7.3294799517237825 3.5878450436886706
Rh 9.253674893717436 4.920018204456164 4.263402913842217
Rh 6.707368040566737 8.656098677909387 4.6569990469852955
Rh 7.049484515194278 5.956076398374671 5.022357585579757
Rh 4.3690461477555145 9.454256240245064 5.254778404630491
Rh 5.23869565049042 1.4487812218744183 5.551692191127917
Rh 4.746753530311591 6.942053362263649 5.3069076956304855
Rh 7.253229215469745 2.75585768906492 6.085934945648532
Rh 4.865695542084567 3.653445674915732 6.499050977832747
Rh 9.204886740350203 9.144591858728308 5.326603014656548
Rh 7.4120060576851055 10.199591464333478 6.682985850524131
Rh 9.162247495435134 6.7682892357262165 6.085098104094702
Rh 5.102079558871557 10.870511244891675 7.194690183298968
Rh 2.8275986047596455 3.818830818357956 7.866282744619107
Rh 9.266286637836645 4.215953184529248 6.689210624987396
Rh 6.650998674497176 7.6112207471214814 6.997956636841431
Rh 4.433950680895588 8.538454146486066 7.663994861016769
Rh 7.003308620568421 4.906061969427861 7.359237875723478
Rh 8.943430779197799 8.607949110140678 7.89291019547306
Rh 3.6972121579822197 5.985136877453695 7.23229932960332
Rh 5.036232877759642 4.574663822078904 8.896551535836029
Rh 6.590668414588596 9.27775586951792 8.948495327193132
Rh 8.944248208822499 6.102123968842104 8.570199868803321
Rh 6.537628303137855 6.593148243115768 9.328226267256122
Rh 4.123488726408078 6.994913804294993 9.516319218518557
Rh 8.383644701404867 7.934062770509671 10.25294410740025
