34
Energy = -196.3916952 eV
Rh 7.122885598562965 6.8022066345446826 4.384781943097451
Rh 5.262283892999777 8.641248658245868 3.960648033081422
Rh 8.777385418131724 4.159709810884129 5.259886762319063
Rh 4.431970166233418 3.7250850611829884 5.644980596511724
Rh 8.672214954527115 5.335523836305178 2.968596976202407
Rh 3.8300325305365335 8.118291932615483 5.951680033370352
Rh 7.662864087854313 9.354762392455127 4.409839159310535
Rh 9.042454724384761 8.852545655150825 6.378814971096756
Rh 7.842452234761288 9.064861286373281 8.43792607639703
Rh 2.2992301342624937 7.723183433179188 7.974583551009158
Rh 4.806851032129763 7.322723037532096 8.173608445901252
Rh 10.426119279491896 6.150359784143912 4.705510406329508
Rh 4.376961692034248 3.7272881309761905 10.281948642809988
Rh 10.904362950813534 8.570383225636464 4.872891254674054
Rh 5.263143535821291 6.094677836588853 10.415977619749976
Rh 6.800505467246741 2.7205522603226395 6.143972455372876
Rh 7.295064506232885 6.559989006103315 8.72844723160441
Rh 5.464292334166712 3.686816041414521 8.056388633121323
Rh 6.432568519661261 4.251347229330084 4.161302379464359
Rh 8.044972190211439 4.310837578147765 7.697723333750966
Rh 6.366956888011774 8.328287455569155 6.456377842841056
Rh 3.5073325273807794 7.934900423291573 10.31082634402784
Rh 8.639283075361025 6.461014797635938 6.378213982019915
Rh 4.615590466131641 6.108096730659611 4.4215642853063315
Rh 2.993175648892983 3.5178602987951426 7.920187469232898
Rh 3.0734754031983966 5.620489698605742 9.26648442858183
Rh 3.3442600460322045 5.738579416936105 6.700526629157143
Rh 6.945440702321342 4.303888864170818 10.018837033596746
Rh 6.062058831404245 8.470490736378062 10.011546821367034
Rh 9.182541959586407 7.783052498113832 3.2355273238958553
Rh 6.0841867400666585 5.654402719999491 6.577326044166687
Rh 5.902912937036134 6.871165132457647 2.231724776151823
Rh 6.663903504939254 4.665328058977604 1.7547327425522217
Rh 7.208272431746312 8.935965939686955 1.9883437599687743
