38
Energy = -221.1131918 eV
Rh 5.130495894144954 8.78503005504934 9.899844939596855
Rh 7.612546349579777 8.232504163954212 9.118974340177253
Rh 5.945895691319664 6.44079173170965 10.277458818909444
Rh 8.435021914016827 5.853855563512086 9.795993211550126
Rh 6.171977057281732 10.134026193169214 7.960480668965387
Rh 3.6381108732304512 6.8160348822352415 8.872818942870522
Rh 3.656626286673005 9.217469034873792 7.8320778502624036
Rh 8.774753698208242 6.5543132659479735 7.406489589189533
Rh 6.5271536879114835 5.2503053534480975 8.06937819162622
Rh 4.426373185671654 4.485152620964342 9.669329700250842
Rh 5.681103676897179 7.543755737504577 7.639757398446628
Rh 7.695849910779359 8.73060084093882 6.431035708233121
Rh 6.859450373005286 3.919340674635985 10.280384622672457
Rh 8.562120418765627 3.8736211482629903 7.958598965683855
Rh 5.19441883113679 9.153465481578724 5.705025544451999
Rh 2.093440373212492 4.918711349958126 5.83393204576781
Rh 4.187402507979337 4.784333878021522 7.199289914936703
Rh 3.3780491208833303 7.147594924812274 6.272085953391043
Rh 5.621887677911135 2.832788575158985 8.129177819152183
Rh 1.9613862985614443 6.7870150931304 4.13801081138913
Rh 6.880611100983633 6.394175897511642 5.6359274374297454
Rh 6.612993152638902 3.715142434616972 5.9338186901922425
Rh 4.69357855020781 5.504561842155962 4.690287366418518
Rh 9.051528870992753 4.736029721893702 5.64789293000814
Rh 4.270222310156165 7.814971437569172 3.817946053748715
Rh 4.013356353764361 3.108560290722559 5.2718602253902445
Rh 2.6815827662247704 4.3963044151903805 3.419652723226893
Rh 7.166915114913577 4.792515868701323 3.5859420964664634
Rh 9.161902816623751 7.212897814530232 4.833599276822138
Rh 8.375247927799101 2.6834273170024967 4.297640759005262
Rh 5.851073570960358 2.5421153543485815 3.712289070007815
Rh 6.8675662382550104 8.26199203820659 3.9530314845385224
Rh 3.3209277462278357 6.369573002809556 1.906124583044523
Rh 4.892864674531412 4.347961594216007 2.290670510853828
Rh 9.702837925385312 4.846899845889151 3.2667151113129815
Rh 5.852768319770049 6.689903798304054 2.1883852393998766
Rh 7.178400261429981 4.802148813191247 1.1092350672186515
Rh 8.33067188875051 6.7866803576095585 2.418817155553208
