31
Energy = -178.85520118 eV
Rh 8.815835089752206 4.953572637327674 10.364051834109777
Rh 6.47287656822095 5.828575207743117 10.268001278102773
Rh 8.39585369674604 7.310537204318727 9.461795011213024
Rh 7.144366307665008 3.9696608126451554 8.586079779719228
Rh 9.262121594037186 5.410966552183396 7.959986527279706
Rh 8.831264991432482 7.788612959483094 6.922661823288643
Rh 4.739850121995419 4.964341341024988 8.541216224429176
Rh 4.930785727129983 7.557987486035536 9.242272713664939
Rh 6.7488094352249774 6.372988972098823 7.66113400507372
Rh 5.4857901354317535 3.30069456101307 6.663965323009431
Rh 6.879794688008937 8.957936273829535 8.154495607194375
Rh 7.861315314708441 4.253794003536355 6.1322889726479035
Rh 2.9370060967200917 4.247809473793814 6.753007299002477
Rh 3.0961069617253196 6.714748508215217 7.731646911243222
Rh 9.84947365988035 5.865265811803121 5.520828520414278
Rh 9.219479359815171 8.12539605933345 4.408354773609303
Rh 6.983381075507093 9.097707058532045 5.5107130134365265
Rh 7.273959707186404 6.572911496650653 5.088220768794997
Rh 8.50333895523363 4.808866736639264 3.6159434149686454
Rh 4.886880313001554 5.695661892244598 5.933546872396326
Rh 1.86323537181204 4.901369860077599 4.530822160807367
Rh 6.147920892049295 4.078461041972972 4.227583725860741
Rh 4.9201645723007115 8.183974139687665 6.699802173775136
Rh 1.042576500921804 6.068480533682687 6.626028994010118
Rh 8.989113807781706 6.884023141270268 2.246634067979081
Rh 3.8163568602401554 3.210856462877577 4.597013777776078
Rh 7.22809183002795 8.662594452965077 2.9547402874134354
Rh 6.507230463351764 6.179508514497668 2.6637107393896984
Rh 5.113331328048486 7.827568767901999 4.128966187588171
Rh 2.9096371155885206 7.146297606115898 5.149428997689382
Rh 4.123157797535356 5.496344080537289 3.464687749885575
