30
Energy = -171.56642464 eV
Rh 5.443713716006506 5.051136882993683 1.704821399447698
Rh 9.524322995117824 6.984862068696471 2.3353935695923527
Rh 7.273357897395249 6.223921853417002 2.7880469057473323
Rh 9.016707276946633 9.050845359636325 3.3913787506272417
Rh 5.97537794210147 4.1737768411154725 3.9641579687126463
Rh 6.714613229141352 8.402283126836654 3.870725609218855
Rh 4.732042598398519 6.534907854329715 3.5633520955729634
Rh 9.113189676036715 5.765398367566467 4.415168794637595
Rh 6.553544101334426 6.222005129666579 5.5181280174490075
Rh 4.100381810367239 5.074619881114021 5.446479873604362
Rh 5.214420550897066 2.9220530498160633 6.082760417267635
Rh 4.372796117190774 8.664585234749795 4.753737500536106
Rh 7.928754032316663 3.7791331909904313 5.411779812954333
Rh 8.648078622007917 7.923671182107665 5.48635162506126
Rh 4.153293768491087 7.289694252065871 6.780192242711179
Rh 6.221425587991897 8.85484856492494 6.517191095037614
Rh 2.230123158657691 5.682413956595006 7.028489640862049
Rh 8.511328101130395 8.33054774166798 7.8171722714187455
Rh 6.509715666538441 6.692963970403439 8.03493803479967
Rh 3.2099494859514657 6.804568067040911 9.133872205904561
Rh 8.787468782286753 5.681565682906195 7.079545109207031
Rh 4.393025411911831 4.862209795264761 8.00344020512727
Rh 6.972359438679278 10.029426166454304 8.74510286094502
Rh 6.752817985209968 4.11457020376531 7.546913066896567
Rh 9.711328842322157 6.787199845444907 9.313185545821904
Rh 5.034398905558598 8.5390409720756 8.955057636060998
Rh 7.469212802679139 7.8525817887133575 10.102727720890808
Rh 5.354529966797456 6.217857926138155 10.259807732518693
Rh 7.8309451241273695 5.208939924809224 9.615298733284463
Rh 5.7468064319284755 3.7784011442135874 9.834813583604257
