36
Energy = -210.57649865 eV
Rh 2.8273886896643146 7.160000192436706 4.847650717288258
Rh 3.178111866505068 4.6732611975213505 5.5826795333422545
Rh 2.865740235487537 9.727430952580796 4.343434625751642
Rh 4.286626266713122 2.322659120134167 6.111888124634442
Rh 4.633897627617486 8.287989256618644 3.281030951275728
Rh 4.6156152915313475 5.7578645036229785 3.656452415605285
Rh 4.483618203796829 3.223595528269465 3.666518760208985
Rh 3.483696666776523 6.473221467328674 7.401990048333612
Rh 4.559888013561636 0.7804901747343529 4.226138940431016
Rh 4.425173956236235 4.072476336290561 7.887599690559129
Rh 3.314851944876233 8.973765603551811 6.669131728747227
Rh 5.26686135510283 7.33041135866506 5.641152031398638
Rh 5.746926896940948 4.606003480917159 5.707203814502159
Rh 4.340006393531087 5.9122589099950025 9.793293300167267
Rh 5.228709277100491 9.972294019299332 5.272312996531807
Rh 6.647813918058775 2.8190117293771486 7.284020876008997
Rh 6.961086819902325 6.991170925742994 3.531849522624126
Rh 3.7479987518359272 8.327400745418881 9.138132698940783
Rh 6.064492148008143 6.149809747684842 7.902827903272443
Rh 6.827098454353897 9.555405000984344 3.2753733001621415
Rh 7.993334073317316 6.104494204507836 9.983386172620063
Rh 7.754780593176168 6.245547106728942 5.913173611833344
Rh 6.5348383951998175 2.1200048008484758 4.752675325984427
Rh 5.7513733186994305 8.989276474503756 7.62570638203554
Rh 8.033635614382035 7.886129607446069 8.004073322671996
Rh 6.401188445916087 4.148372875718585 9.508254661656622
Rh 6.821179949257181 4.38885263820325 3.3902305465844518
Rh 6.152870296827038 7.8165518467773625 9.857309806162855
Rh 9.151597641830271 8.2743668806045 3.7362592428377748
Rh 8.307418775379647 3.7428202514414823 5.454751824278344
Rh 9.814452555257013 7.7815302823564725 6.156026126905788
Rh 8.387977344002396 4.701405415678099 7.851995363145587
Rh 9.087549021618553 5.6178514034684435 3.860095233654083
Rh 7.48770624319089 8.84543220493787 5.624507501020597
Rh 10.29646419525121 5.251823121856945 6.1772604950203664
Rh 10.13836056578239 6.5053180598227955 8.379582374133264
