37
Energy = -217.6064842 eV
Rh 9.580380844467417 3.956639322815077 4.158444819780986
Rh 7.353365767692382 2.6629261849587835 4.507768863932031
Rh 8.257174251382189 4.341937249472519 6.313178557615791
Rh 10.34215470615685 5.9664931330072255 5.737607570210602
Rh 7.567464851089971 4.524655698349519 2.67982682365092
Rh 5.9937656848022485 3.0112302044441672 6.6827185478344155
Rh 6.9445705468792776 4.723789585612759 8.454527461094585
Rh 9.233913322319168 6.3465443260642305 3.4070235855205397
Rh 4.686052061076429 2.9796180366828504 4.325502012028587
Rh 6.211722990450435 4.96123840614211 4.847139529558451
Rh 10.869441001607107 8.029482010285328 4.272333358127927
Rh 9.624722410200349 8.424467248079235 6.428800995565531
Rh 8.992109517147757 6.298337199875221 7.919466519227206
Rh 4.613321403505348 3.426259558929876 8.832893756976867
Rh 5.02664679298275 5.021868153825372 2.582490418349844
Rh 3.346893968847461 3.379235209515775 6.456411054058851
Rh 7.894403506534669 6.76788844360711 5.535887774813536
Rh 5.593765511588236 5.142217677693402 10.582890071243058
Rh 2.0822766043455476 3.80207720601373 8.591552548693766
Rh 8.276701121309669 8.838145188632753 8.562572027633426
Rh 6.465958246507305 7.194428683943139 7.808037894905655
Rh 6.68955142431736 6.9635932992726035 3.1219382757916336
Rh 8.414307222315626 8.778114459731166 4.061820012655584
Rh 3.497237647065952 5.745163264605338 9.286032205127208
Rh 3.603124862184291 5.386603523088993 4.71506456589553
Rh 2.307891511345559 5.79257372666648 6.95042074604436
Rh 5.352185850245593 7.324432601360706 5.471787544455144
Rh 7.6277803256292565 6.690394243727233 10.069781962834968
Rh 4.821266157107975 5.3481324122002825 7.128555574426194
Rh 5.705461190897064 9.561628203195308 8.438450194689953
Rh 5.142806311383486 7.586140728732406 9.986398003628814
Rh 7.061358485096211 9.266715464105767 6.249997138556508
Rh 5.89073175934192 9.316987068186208 3.900580439672318
Rh 4.130465364302392 7.4334199477299725 3.1677565394584657
Rh 2.7765007276220572 7.813188990949274 5.335359680528888
Rh 3.867200897357368 7.822022376521241 7.7020725528259675
Rh 4.4945151050720025 9.710600914153824 6.066100324762884
