38
Energy = -223.11259008 eV
Rh 5.8838025650939745 8.067154509997232 9.18636867240001
Rh 8.26590449435346 7.169743564187138 9.88323063635798
Rh 5.6553510652344015 8.906304796340178 6.710634641773897
Rh 6.210457482348626 5.9426179730397655 10.893085881410386
Rh 7.955292493666787 8.288682199943821 7.709842519805995
Rh 3.432886739172 9.690800213711658 5.752182814554778
Rh 5.807550783756938 10.337320013813589 4.537244051999166
Rh 3.535049523918966 8.140302486140198 7.9034797599394775
Rh 4.319460535760398 6.0047752481545995 9.20654118436258
Rh 10.121301744889642 8.815293958854667 6.618409410946677
Rh 9.150106556565186 5.883348812942287 7.715655269324731
Rh 7.962626232007793 9.582094875012308 5.559265044936486
Rh 8.27486283553821 4.651205492481185 9.858529829434776
Rh 4.747814810288005 6.454907266242455 6.384139115185228
Rh 6.631744544832119 5.9354539358453735 8.057752448781327
Rh 5.911853163091723 3.778106435793303 9.465112769530478
Rh 4.818496015442794 8.077775606637944 4.309134055436101
Rh 2.608966634146541 8.825625800474908 3.456343897458481
Rh 7.243131444650579 6.944340728486644 5.570476735641353
Rh 9.634709968106533 8.683667486922417 3.8642628883757495
Rh 7.727962149893586 3.621103351372157 7.613424372364663
Rh 2.459066342852491 7.309149797658689 5.442348884749138
Rh 4.38378722303459 4.06318041624535 7.470205205301678
Rh 9.826870199286637 6.736841213129443 5.390600846829736
Rh 2.4505578985342273 5.762317733847632 7.478770635259878
Rh 7.1906130356683295 8.333476283018395 3.3878018370032112
Rh 3.4767342648775057 6.303381169860072 3.187352895550581
Rh 8.585476590299558 6.128782925399435 3.274137029959258
Rh 6.134428684413249 4.482748861301374 5.524588246053325
Rh 8.718812972760071 4.539847710725056 5.424823906295706
Rh 3.2573432730565752 4.800094252887858 5.199973669997638
Rh 5.77398091266548 1.9669348234321153 7.590396419775973
Rh 6.051031531301549 6.03249875139721 3.3261302741393477
Rh 4.4794668882472966 2.5104900114859277 5.430902792829128
Rh 7.373239799315153 2.2508466287016033 5.518263415799486
Rh 7.293124680169589 3.7568373372202037 3.359590994510358
Rh 4.668432756091788 3.8901218830200115 3.276456698242584
Rh 5.91082481006227 1.6074211336365183 3.5759005278273874
