32
Energy = -184.4995249 eV
Rh 3.455915855670368 3.1558145742692534 10.197694014376646
Rh 6.696711761041183 4.328459239103135 4.459578536104177
Rh 7.373767910876067 6.490598575575721 3.1412777075206204
Rh 6.108467397377121 3.0048037207716107 6.542270597429445
Rh 4.8733599841371795 5.444657680720155 2.8634814179092154
Rh 5.9668606466169845 10.101445201458136 3.840616638024518
Rh 3.7710470048592493 3.5431805696388183 7.666336449920553
Rh 5.472019305379169 6.79590800215966 4.960148216932402
Rh 5.68412781326261 5.454976159427629 7.243756902399927
Rh 8.55855953601957 3.9439754796189734 6.367150900516017
Rh 7.862414205284819 8.900123312717309 2.5404069231418362
Rh 8.831297701479096 5.955870207147892 8.055840733584285
Rh 4.702129626673056 7.7260063275505955 8.210353223916115
Rh 3.189637213940574 5.990304198408146 6.973950874978739
Rh 7.832540801150508 6.2835338629444655 5.767163401771083
Rh 9.612811681459442 7.420246689206497 4.005682817673991
Rh 9.182453812731413 4.855218533978969 3.9525800416758683
Rh 3.561050872424372 9.14319098670223 3.993495776225418
Rh 6.583175174051354 6.335747971962783 9.41920182207114
Rh 2.8033601856976094 8.370660345437148 6.324303540471069
Rh 7.297987619800141 3.990471616488453 8.580154399442556
Rh 5.366084007437576 7.974240368720964 2.6362528040529067
Rh 3.0316213500867195 6.640131050706214 4.468942941842446
Rh 7.15964714499889 8.029563330381686 7.559329958693061
Rh 9.558377345287202 8.04225877451872 6.575933840007319
Rh 5.243943167220709 8.932994017007664 6.006495321948297
Rh 5.803888505616023 4.129284187454101 10.626342613146962
Rh 5.487338321110413 2.2501860057392036 8.979609438566966
Rh 7.727400599541176 8.83123387304179 5.080725058751326
Rh 4.261636404210879 4.390881502760451 5.247655094383905
Rh 10.473237298958953 5.704673616007351 5.987509847666007
Rh 4.080968735104544 5.4531990078787915 9.339597134359408
