35
Energy = -204.41404047 eV
Rh 8.980262343112994 8.594776061709064 6.980311750888335
Rh 8.289188253716942 6.309849737233804 8.085705685666822
Rh 9.563293776152886 6.441183929865629 5.832207866684246
Rh 6.868077731158941 8.50673667720608 8.292693925297336
Rh 8.938909141375497 8.555858462523755 4.413786114088422
Rh 6.785495729762496 9.430812819061897 5.762262179380365
Rh 6.336174110783827 6.350304129055034 9.702893246272245
Rh 8.762175411541337 4.125627357437919 6.691131524567178
Rh 4.847358057019382 8.499673434140307 9.792449004673797
Rh 6.913880370796682 6.905202371522856 6.010804690488344
Rh 6.319458513040188 4.662205072077455 7.611924585583038
Rh 8.28862891389436 6.114096932156399 3.6748543734223653
Rh 9.979079281345154 4.313767636101137 4.459863840766912
Rh 4.711534902588801 9.591067628749375 7.389028350711067
Rh 6.556510073063906 7.942366659058013 3.6700689340087074
Rh 4.798173771936489 6.964026856019392 7.665435556624216
Rh 2.7666131451378217 7.18845736511431 9.31551390421949
Rh 8.505490186820591 2.209276341823611 4.917160280499395
Rh 4.207588192203998 4.999072284396672 9.237265863604076
Rh 6.9556950907621715 4.514881100264022 5.069912561983004
Rh 7.942867158153653 3.706878963280708 2.884305779152477
Rh 6.224802802523589 2.450859692568556 6.1901295117585295
Rh 4.570217980539631 8.068280793823263 5.290246698641336
Rh 6.616462208473034 6.055980416347608 1.8390115259875335
Rh 2.570423844349536 8.211111052917598 6.932028605351454
Rh 4.588299088949323 5.369849438429152 5.5227543747585
Rh 4.0363312697418925 3.4857535491206493 7.210656952871731
Rh 2.548651134399933 5.650245014301874 7.325070227370191
Rh 6.254926740297614 1.8609996352912168 3.7072206913125196
Rh 4.433040268256744 6.558718066833317 3.2077426155446855
Rh 5.441341909358843 4.253654926727162 3.0783490210861952
Rh 2.449696486567806 6.590324928146315 4.830637795751183
Rh 4.101595694371222 2.8522077857119306 4.707422955343467
Rh 2.0510099140263414 4.016161039635374 5.553338182761257
Rh 2.834657458728616 4.530890706710517 3.160139827113447
