37
Energy = -217.04179801 eV
Rh 6.696978959431207 3.6107548351507766 4.025050251272496
Rh 7.03798776805858 1.6057869534937617 5.563954730847379
Rh 6.323057979486035 5.609555667036497 2.41017501914807
Rh 8.59199739906321 3.6663729137804397 5.879838346466311
Rh 5.896203713446777 7.827941865715806 1.0157310943052902
Rh 3.9997011599404124 6.6242686208477295 2.070470055598882
Rh 8.079769907470816 5.719316771793937 4.300758204142597
Rh 7.435483338304524 7.848108520419792 2.9488542948096237
Rh 4.926478992574505 8.587299953615137 3.3746123165513793
Rh 7.117970199866435 2.726595746092429 7.859829913475438
Rh 9.917615779681016 5.878523366044145 6.137703973453458
Rh 9.27740128874936 7.996129553370235 4.664390865861726
Rh 5.690512073663725 6.639287112927989 4.8473208113907456
Rh 4.33068880009455 4.732783526492092 3.7372275984105827
Rh 11.03401179584511 8.173199842630616 6.484646596091332
Rh 7.704917143876272 7.059646701875541 6.6218006978507855
Rh 8.825481967423116 9.37988443524256 6.800990475720651
Rh 4.737453109654959 2.712644761289802 5.369375509519003
Rh 6.311287855727245 4.6717157196001295 6.383487496556359
Rh 3.183809449569131 6.958578023836704 4.54335753468715
Rh 9.656689563698441 7.285682218797791 8.3712389431132
Rh 5.322254344271778 0.905653548893883 7.2263992514905535
Rh 4.438668365470504 8.81635049304409 5.949783002094139
Rh 8.38716093544768 5.021665025743741 8.104668180812562
Rh 6.843587392068462 9.000596302962283 5.106565261356892
Rh 3.7125630665235394 4.960989536314368 6.190890438201258
Rh 8.372803953451301 9.330690772319034 9.26728498934189
Rh 5.1645090745048385 6.80753238662801 7.503375820503474
Rh 4.493230809637315 3.1575187564109566 7.86517782091868
Rh 7.203512021276449 7.0950474633963 9.203404904880802
Rh 6.010537666578862 4.813362697755945 9.041535996965864
Rh 2.672084272742754 7.203784579074216 7.0642365842266415
Rh 3.9857452580787194 8.918274193853941 8.492633589343876
Rh 3.3800354031115054 5.277776402219133 8.747556531934931
Rh 6.375707061048148 9.140930026450507 7.700674339221471
Rh 4.821555898377844 6.919243059881395 10.074783766095713
Rh 2.391795508213364 7.418606304205317 9.661744926165882
