31
Energy = -178.05066263 eV
Rh 9.234349760012188 2.9244800831144775 7.145292502256259
Rh 6.867647015520675 3.665499222472583 7.798335315978371
Rh 8.82458824692421 4.628473113113636 9.132605219432433
Rh 4.633172630291861 4.9235947581358985 7.835837477536969
Rh 7.701376916369187 3.678283655241193 5.251504648893646
Rh 6.594576970926098 5.932350718058695 9.150271442176994
Rh 4.238925778616602 7.2750540843588665 8.537031292797137
Rh 2.351433710381552 5.489694412800119 8.667969216230405
Rh 5.271643838595705 3.603970316031386 5.7270311631838995
Rh 10.195969753546489 4.011024710363337 4.872360337586366
Rh 9.48710585837819 5.399056867068372 6.855348211972809
Rh 10.756889212451366 6.540808810957462 5.040997243784676
Rh 2.5001296593682003 4.515388433298108 6.379163410710788
Rh 8.79110206262689 7.170681204659216 8.468793529518289
Rh 6.870823412290459 5.9030674719096226 6.554446794892316
Rh 3.235580745260982 2.910362189904929 4.660937306405443
Rh 8.736149047305553 7.824864033569552 5.900355015356707
Rh 2.4128520926450014 7.110223562351785 6.66027528630344
Rh 6.493471862548932 8.135555023959892 7.905729331915233
Rh 4.3486883048193405 6.048820075014441 5.339232707102287
Rh 8.492272375846548 5.86108138782108 4.203373863747874
Rh 1.646305925804611 5.953296927900439 4.3841716550255985
Rh 8.599081477722345 9.56903181433266 7.7258905736791705
Rh 6.045630557397465 4.991034724153517 3.7093383690655535
Rh 4.597082124105162 8.430978633612709 6.251699547900525
Rh 6.537390296227617 7.4215903543214505 4.488790900899999
Rh 3.459645441423879 4.8431308221642615 3.1864904255405655
Rh 2.900995338314835 8.082075262746066 4.301481766811515
Rh 6.841122393736333 9.594381139513409 5.865614472518196
Rh 4.696233230430101 7.067321823807905 2.772590333571651
Rh 5.041060468342859 9.380784778549051 3.9125456788054302
