35
Energy = -201.58020184 eV
Rh 2.5288463992086236 5.40906034046586 6.705051410607297
Rh 4.606340058353531 9.756629315686158 4.99449458458785
Rh 3.458273395178294 7.587031752202698 5.702453843791164
Rh 5.28922248140289 7.485604373125055 4.001224103558865
Rh 9.33138576885841 9.712997620592992 5.5092294551444425
Rh 8.51240244762525 6.5434758006755835 8.347982068809042
Rh 8.655668897437645 11.385242654088508 7.189801593084105
Rh 8.357103510186484 8.946837029118482 7.786466156830332
Rh 7.946423789898327 2.184910786203803 9.89855808405409
Rh 4.423574765497509 6.631656210872772 7.987423808879024
Rh 7.535357365577113 1.406410341358915 5.480137804714269
Rh 6.577706932836491 10.540222288243829 8.489240225003837
Rh 10.11740672247603 8.07625784597461 3.79365223504312
Rh 7.617107185354499 8.478541206636534 4.061092878046064
Rh 2.8683752683948556 8.368383638162452 8.890802240688844
Rh 4.982054142166064 5.470599277721916 5.61414533487337
Rh 6.816272735531518 10.171433115558012 5.899873920263969
Rh 5.7973954360585385 3.0789967669651532 6.042570634987248
Rh 9.844524157478043 4.838359091397439 6.850905094978982
Rh 8.563149420890408 6.780331971428586 2.3540773437945313
Rh 6.506013224587793 7.561925551371574 6.387490639341363
Rh 9.110170746944766 7.129405752274981 5.927410428657426
Rh 7.286444571021525 5.9122311290418175 4.312521630614579
Rh 1.3680121561135798 7.509352824072132 7.1483879426051145
Rh 4.257443083912534 4.105907095711729 7.8212620484519455
Rh 8.291966416767043 2.757326993728037 7.447330916536461
Rh 6.411362859003114 7.808513338339926 9.096787677784775
Rh 2.567983102038713 9.812030304240002 6.726592441827433
Rh 6.382529729985114 5.128372630704728 8.983102040609612
Rh 6.007970720910407 2.564872293817078 8.533420214625108
Rh 7.267467056967109 5.0259865079459205 6.723716991220176
Rh 8.384106941494695 3.6141315049283707 4.959677400896388
Rh 4.833082266198962 9.172863102779397 7.5307910305083
Rh 8.850539857713933 4.33920535355017 9.41529825047492
Rh 9.850779759814303 5.458124452529205 4.183466538099562
