31
Energy = -176.32873409 eV
Rh 6.087805862253021 3.110684323629114 9.974581371471443
Rh 5.3778688561226256 5.277340188174623 10.84439565545977
Rh 8.067652664197688 4.001884605558116 9.00425118415652
Rh 6.6736441178938 6.2585040663398335 8.984633208813301
Rh 10.376495961110544 4.281635808526033 7.939722218736455
Rh 7.832812452021629 8.446795853671256 9.403603755185594
Rh 3.7687225402187994 7.016794556494457 10.736169529629818
Rh 4.783619754711019 4.618480791112386 8.491381558111817
Rh 9.16849835060617 6.3371861159849905 8.632519941164157
Rh 6.770665833411862 4.438746704767592 6.868367855095356
Rh 8.729361276208945 2.9178251053385043 6.6965863307560225
Rh 8.92698761500378 8.317957931902736 7.124367600093874
Rh 5.144325296257036 8.145300206589255 9.053858506333818
Rh 3.3323351883642025 6.619446516298865 8.298136296063879
Rh 9.02939340054397 5.521624914620545 6.16198522537241
Rh 4.598481376990968 5.669254390183404 6.203678669584482
Rh 6.581833608600378 9.519540393275811 7.470180429382913
Rh 6.779045129530687 7.0779616709721624 6.4202972039150215
Rh 4.479998136565333 8.23461048959382 6.619606397621044
Rh 6.368350510425658 4.1909865312936025 4.461894884655811
Rh 9.779522106848749 7.527122571473776 4.8192644557513376
Rh 8.80612337645962 3.5741883748475907 4.369580371526443
Rh 7.4080356197464745 8.398856464697321 4.334849940430491
Rh 8.026265489373525 5.956112771049084 3.8236916578035984
Rh 5.608289203329418 6.596002776371698 4.058229672777194
Rh 4.881542240980816 9.051288958128822 4.323819611357063
Rh 10.3880663441351 9.72033466056893 5.674421899011275
Rh 3.21204169560907 7.200405587700954 4.673047211592769
Rh 5.5367935954973 10.877135782367795 5.700789470476819
Rh 7.16337296904684 12.500763316100025 5.081963286030802
Rh 8.074842976335242 10.358021120768482 5.512918150040945
