31
Energy = -175.45948437 eV
Rh 6.7976321728620315 8.59016551337633 4.43322446649735
Rh 10.266514540039791 8.440599923590868 3.9702074822054425
Rh 10.374121299144804 5.73546437234915 7.666746558940998
Rh 5.214630709015758 7.932699983145153 10.124308065279603
Rh 7.9665276433687895 6.371249935475586 5.172770212218821
Rh 2.5796165724352624 8.435498736768944 6.093171711601312
Rh 5.550827691572316 7.017005696519057 5.979819662709259
Rh 6.8242058123444025 7.169269936951131 8.560947182009155
Rh 2.9079925832212856 8.59334188448378 9.767782842822406
Rh 9.646579511947538 3.564095229439398 8.37596215737573
Rh 6.875617489729267 5.272347388051076 3.1599999031882513
Rh 7.928675224598465 5.185978284424554 7.574161857699781
Rh 6.47624884704903 4.318949312013106 5.502488180914233
Rh 5.460200088165395 2.668249018283793 7.136782134324437
Rh 3.7278702750693693 3.911860742807633 5.592442044259557
Rh 3.1446108252098406 4.0739839821481 8.072818617797617
Rh 3.1874023059208394 6.1580263131680235 6.605691793462779
Rh 6.612611250774172 9.153161970274708 7.010727573280558
Rh 8.819577626044202 7.776739243423704 7.0795132173727735
Rh 4.516140029939778 5.814141401015151 4.060537539636058
Rh 5.370177490035079 5.220915768543957 7.83081169871359
Rh 5.193547876159727 3.3006332307315103 3.647936988952088
Rh 4.509669620780719 1.534240946241843 5.234207287935878
Rh 4.224305232699584 8.302784503056305 4.335978941900951
Rh 5.7287768033282775 7.421058857308214 2.4481770726971046
Rh 8.332754255930096 7.417430955545718 2.8718562004077657
Rh 10.386243302751549 6.5733950520193165 5.453165263583416
Rh 3.514363731186769 6.284569814060243 9.163428487740912
Rh 7.851319955625097 2.756526416890226 6.959777933136359
Rh 4.349705447381991 8.491761954831958 7.775869670979716
Rh 8.770276065618765 9.622595913010532 5.447429530305946
