34
Energy = -195.30461886 eV
Rh 9.782561398265031 8.53210624744795 5.049862976124412
Rh 4.586564215418595 6.431113652413523 8.769350134573486
Rh 6.481579531305438 6.057175861824729 3.450484290269367
Rh 7.476628690619491 10.672039600200941 7.946116309082585
Rh 9.769819419322149 6.180690605450877 7.46290813441464
Rh 6.142410728858578 8.27360262735722 7.4412155729006235
Rh 8.848451595804027 8.499944445691533 7.6010973856634925
Rh 9.76050335560384 10.358960227096931 9.092447813724286
Rh 8.349574502971995 2.2835964879061263 6.115155247020265
Rh 9.103467632102797 6.003690266745323 3.8704490191328413
Rh 7.764157702967976 8.285905181224047 3.439987769149853
Rh 3.8467395130939326 9.00221343753602 6.999097483216402
Rh 5.559240532197253 7.839494062729304 10.600394731943913
Rh 3.3686743251317695 8.488903912965368 9.384235150797343
Rh 5.979324536905458 3.0481501040477355 6.678424276555744
Rh 9.670804408972163 10.651860010112632 6.5011702299056875
Rh 6.028417557016417 5.627800396388518 6.931698256120916
Rh 3.795055321635871 6.657230637280102 6.214535207241487
Rh 3.8782133645541346 4.33860237860687 7.392936235891855
Rh 11.156719036651204 6.535687932000825 5.414005741096703
Rh 7.358262118039904 6.466054621074237 8.945336832337517
Rh 9.843497116501585 4.3390423217748495 5.7328827067004635
Rh 7.747867944571909 9.151648493433154 9.973552490181085
Rh 7.415501788232075 4.366946634470942 5.016350878502153
Rh 5.4128899641381265 9.931303768482184 9.22740748568877
Rh 4.831274973980878 4.600409798545536 4.898961687640124
Rh 3.9429174409913355 6.5984343493338375 3.6444178493618202
Rh 7.845641321975824 6.945371473419877 5.78483425687146
Rh 7.464060280384124 9.628436277657215 5.6004613864416735
Rh 8.069205449056456 4.283318865637746 7.627659293661908
Rh 7.958429929963381 6.766648032165848 11.353600326733389
Rh 7.098990323377121 8.778023923148494 12.326179026427651
Rh 9.692618098292684 7.35909952471159 9.687911893822283
Rh 5.598282319912273 7.959971762400854 4.924736608678846
