38
Energy = -222.60297476 eV
Rh 0.6725838988730423 4.343126696378526 6.1862703941685515
Rh 6.7311124111293035 6.965232270891194 1.6288468805812897
Rh 6.1506482187009315 1.0090982130372854 4.33667495653555
Rh 0.5109349997574585 5.853586603710756 3.8496054825483883
Rh 4.287495526523103 2.895564634719816 8.025378799834256
Rh 5.822021593347239 4.528398662320397 1.3110260422221682
Rh 7.985913411467908 4.15121149557324 7.202865010607428
Rh 4.268446862061377 0.9603171915759559 6.118084778187005
Rh 3.4507307605924686 4.316971199413069 2.7932589651262103
Rh 4.954650488484502 8.362856831214176 3.0657662505575196
Rh 1.3708016214151915 3.528279179572099 3.826926727302554
Rh 3.566362992560294 7.279854406405107 7.59644858139438
Rh 4.798130551691315 2.1772990801345387 1.5049338143508575
Rh 6.564653310699031 5.038794047902837 5.382737165091389
Rh 3.2629822102150254 0.6103878323467337 8.336664515711277
Rh 5.22038869945562 5.99826308169063 3.482417876832624
Rh 7.395332911616877 2.5317438176830764 2.1282766526985717
Rh 2.7696592362918415 6.850438369995866 3.277816175165238
Rh 7.539043278956224 6.801031242897492 6.858755683751174
Rh 4.006905702324784 4.712349012487925 5.406690639708919
Rh 3.5655436790051023 4.107118301980374 0.14424092082019702
Rh 7.376881025694544 7.289982972571918 4.180644361477479
Rh 4.157574203636293 6.4742497405225174 1.1136012155194834
Rh 2.7747505646046036 4.894630983243298 7.745973328498327
Rh 7.7224699975918725 4.964137740932368 3.003940595071481
Rh 3.567152893045546 1.7771568778344475 3.7385457679772016
Rh 5.287065688301438 7.270968961072641 5.7743596979018115
Rh 5.39995040269577 5.306323463720467 7.638880219386774
Rh 6.061176868819374 2.690097581238456 6.275043890261083
Rh 2.5490183655214382 2.7273486468162336 5.869019713315966
Rh 1.7315072453797518 2.559872168144065 8.194994492075459
Rh 9.075931884544776 5.456837985018308 5.2051817493705785
Rh 1.6589578058987327 5.336797077171797 1.4886618616110345
Rh 3.2845719787682888 8.506481044416692 5.117331267011959
Rh 2.1125585916049086 6.364278374623285 5.732176346408484
Rh 5.61399205696589 3.3382596982807495 3.693246667498126
Rh 8.089449787655017 3.0151103185086168 4.68810158116031
Rh 2.166093945518524 2.5289898653697325 1.600056603674318
