38
Energy = -222.09912767 eV
Rh 6.957199225879154 2.4493343875190625 7.576868282625362
Rh 7.090352571929373 4.93592281681219 1.9162613415631213
Rh 3.0024332810829986 6.706100767127191 1.1880198699402458
Rh 5.862047991035684 7.886896087979151 4.730082335773334
Rh 4.52967208138717 1.5700413972364715 3.065303143068656
Rh 9.355059082832922 2.9136501034474267 7.517109499232979
Rh 8.896104490857676 4.488262852771102 3.8935755919412385
Rh 2.0962915310531023 2.8055196556168998 3.2402463236586643
Rh 0.7479471061126732 7.029934032703929 2.949299236119281
Rh 4.7081716074350854 4.007033960008581 3.3092589710155016
Rh 4.2971754693315685 5.944722589410275 5.014266865704139
Rh 2.7711967773236696 3.9924264375046654 5.4145003219810945
Rh 4.608606634039025 1.5964084520318427 7.488004733582919
Rh 2.556768673702367 5.39026364408981 3.2246642969265364
Rh 1.6993381704128647 6.632717513658516 5.365210571280539
Rh 8.133813043849454 6.946438573867823 5.637015342623423
Rh 7.885389585369755 4.6509367653312275 6.6039760431921435
Rh 3.216935131885327 5.646091641882079 7.359280650043301
Rh 5.303091028606492 3.6445814091889788 5.91716928119088
Rh 6.975066654092851 2.7608836642603616 3.2877023286826903
Rh 8.348881092315073 2.3611573979676774 5.332702553622408
Rh 5.1262388576332025 5.497184233731566 0.2675476977977747
Rh 3.782859437927247 7.988509329503014 6.352311285057738
Rh 0.6910809871388136 4.772105093573814 6.855273229714748
Rh 5.854144886201583 6.192848617569453 6.999971360652442
Rh 3.2470864584787025 1.5770276021908487 5.296894328744122
Rh 0.7804049168946061 2.4727373211612997 5.624363825106436
Rh 2.554014019544647 3.1456434852493524 7.703611194754138
Rh 4.944407709182964 3.988284300899649 8.369232863596439
Rh 5.175409820398309 6.582019631168161 2.5349060907067726
Rh 3.255351617108018 7.9240061070755505 3.699862341040071
Rh 0.7552713592450181 4.626611139959189 1.6796567507864952
Rh 0.32081151651996775 4.669445200129522 4.269663768877987
Rh 5.588829636414052 3.0624997526270756 1.0541010313710863
Rh 6.686400992368371 5.240937903418034 4.466202523703384
Rh 5.905346917566278 1.3604323873307809 5.194846912072913
Rh 7.699237916566552 7.139600746085884 3.070731553594419
Rh 3.2259552426154965 4.035176520250019 1.164699180991943
