39
Energy = -228.04039565 eV
Rh 8.487490459294314 9.470584742761641 6.622085748502942
Rh 9.015461213961862 6.670928010782211 6.881118274017057
Rh 8.421993856919665 7.768817712356862 4.7214107633016456
Rh 6.759877746414581 8.736120155586478 3.199503704564571
Rh 10.96045778663444 5.81675714927338 8.240576834411971
Rh 8.694595228744095 5.188001387895826 4.786016789197526
Rh 10.218079007952777 8.370471762350048 8.278026474342134
Rh 7.916249238214473 6.411507270459554 2.5184219849908467
Rh 9.431766682380887 4.13371656100231 7.023394020809381
Rh 9.803269219653307 3.9990835186073954 9.583504788773567
Rh 6.626137296980934 7.865775501786776 0.8437106321251955
Rh 7.665347460391267 2.9356297244243157 5.609214064340458
Rh 7.857852575079322 8.840324119370603 9.0087356138205
Rh 8.32148483165958 2.2173516836718385 8.191855740629656
Rh 6.791407471980305 4.110821918624423 3.4259349996081268
Rh 6.227504044471722 6.396455560551864 4.4641619536392065
Rh 5.870156446936788 5.488503207120704 1.3626842712971843
Rh 8.886669156045498 6.510622198393573 9.534378138321145
Rh 4.658096680605866 7.444238710983255 2.497567206626157
Rh 6.883944013305675 5.1256519224463695 6.726265228248549
Rh 4.33422264956111 5.048787870400589 3.30491786449947
Rh 5.952581258821436 2.79182994407077 7.62023503504928
Rh 6.613479421579374 7.707461197501239 6.908332788652
Rh 6.3420316522416655 6.787491391856147 9.279473678109431
Rh 7.401610580470084 4.458308235122213 9.12395951125893
Rh 4.8811685437060115 8.558388940929413 4.965777344840396
Rh 6.754174799739219 10.801693592302785 7.868269888512083
Rh 5.113370612923723 3.7322631502639454 5.3692926449119724
Rh 4.431938901454248 6.255979125181846 6.307654656915173
Rh 4.818386602050151 4.943137701370737 8.473701658527514
Rh 5.502114308870029 9.200581772061778 9.737055723115148
Rh 4.7927788307244725 9.391511035092602 7.349017383689803
Rh 2.8837559983553422 6.980718016696683 4.2865458285762275
Rh 3.445233655193923 3.1891991100920936 7.258189312475584
Rh 3.9187638032495213 7.393537322841542 8.719910739557616
Rh 2.6656836834532354 8.110768174940567 6.562880395547539
Rh 2.7152157479440797 4.58881249358839 5.2615770024967485
Rh 2.3656496110041476 5.604233677905171 7.697367028824827
Rh 0.9378142800588174 6.3217497883613785 5.755089641900598
