31
Energy = -179.45761779 eV
Rh 8.00443854956403 7.9137382689023275 8.824663174417077
Rh 6.5729103635040085 7.832222371084689 10.852350369295928
Rh 8.570273105106505 5.822822299761785 7.471543702407979
Rh 7.532319988671067 10.182461742176384 7.69652438907664
Rh 5.635576700325629 8.702533103297597 8.615854613433322
Rh 7.336130830013603 5.6334252871065535 9.726524809899983
Rh 9.189475777370655 8.335858225022259 6.6268044461785784
Rh 10.157934800185725 6.181999638746089 5.549516781975881
Rh 4.913819727585351 6.4508346727558585 9.581885051145703
Rh 9.247153128484591 3.7737357639782334 6.13467571672388
Rh 6.767167725224106 7.3966778291471496 6.593998629307699
Rh 7.854268739311704 3.4778297578373523 8.253152556284263
Rh 5.09037228366831 9.2896357226165 6.132341584481335
Rh 4.189961837722111 7.096469150581708 7.178126732181457
Rh 7.49664924309054 9.643120347828637 5.242808377167723
Rh 5.888680646567857 4.941897760488716 7.742535990977454
Rh 3.3634075282603564 4.90282034177271 8.241669785404767
Rh 7.837890294084021 5.44649824736235 4.7692380378848105
Rh 8.720288029552693 7.734580196647643 4.113137790436465
Rh 6.1266739738866525 7.8048721215087165 4.1201542076394535
Rh 6.796025759184773 3.2672834457840896 5.899294509121951
Rh 5.246237984811484 5.535593267952553 5.286881659638799
Rh 3.6085304289383258 7.635870616288564 4.738420492049481
Rh 4.238544488054177 3.4068886151295388 6.387209194133092
Rh 2.664837041235727 5.475678815336059 5.846151622427448
Rh 7.157472237721911 6.1885800635015 2.433558295966071
Rh 6.192913776851547 4.023094048634242 3.4196377353955554
Rh 3.5838649429332006 3.9455170396628407 3.8713192964823318
Rh 5.112688063864162 2.043190599665363 4.494979204585264
Rh 4.648353904095008 6.154430012731169 2.8325369917897087
Rh 2.2086427017334564 5.979146790749856 3.4051992573858167
