37
Energy = -215.87881276 eV
Rh 5.67505113309103 3.8681876629354335 2.0944875574131014
Rh 7.2938792865781155 7.987408421453056 2.830001120199511
Rh 6.9940317228799485 5.526673675765585 3.468089547373624
Rh 5.3739169085056755 6.699397741753798 1.924802305565078
Rh 9.346717001920547 9.144995037818349 3.4806087759005764
Rh 5.954128961843851 3.441030775955164 4.563193746289589
Rh 4.0314032017378265 5.134111840780987 3.4929651356330007
Rh 8.815400180286717 6.891438800152538 4.608734778893086
Rh 6.292484172770095 8.492237632062992 4.940124087596494
Rh 7.968511773483055 4.6726093035710745 5.743780933430796
Rh 5.4470539290546105 6.0414117989815175 5.485094274681278
Rh 4.06597499222903 7.670858622451338 3.8175683222959624
Rh 4.770801659757209 1.4779219508604104 5.861570256681437
Rh 10.864264022220667 8.115952611332599 5.43116743669633
Rh 8.603143301467707 9.227357386677761 5.887021025373049
Rh 6.858596979783081 2.5611877257122364 6.795842837318607
Rh 3.6921293069592847 3.7553958466843746 5.688433947998973
Rh 2.6469896656160103 6.093435261300051 5.377768011261684
Rh 9.955751518777337 6.001195028412365 6.776805482222193
Rh 2.753733532728391 7.867934617583643 7.163421560402714
Rh 7.5609511929956765 6.990348859414383 6.867463435196528
Rh 1.8634175450759147 8.452866143548968 4.811417260071174
Rh 8.631536484650097 4.1535268797925164 8.215061561573588
Rh 4.5398559066158715 2.9325593023114345 7.94161575113083
Rh 6.401570432826358 10.308218835593943 6.671527576716183
Rh 6.288683219228545 4.907515991214843 7.710925659891387
Rh 5.271163866589748 8.091826322129009 7.426514906773893
Rh 6.674366523253294 2.809048870219709 9.403509058502786
Rh 10.199018554752286 8.378902232800284 7.79799080997037
Rh 4.039904414143417 9.467453030387508 5.630088396488354
Rh 3.793440851900382 5.499720623943247 7.5875326006515245
Rh 8.944945535995446 6.629684695209614 9.091610306333754
Rh 3.9066126291271352 7.190187454394429 9.450640845619885
Rh 7.699574992716102 8.941295755984648 8.415084633724343
Rh 7.6082770910483495 4.91760459905674 10.458942900311031
Rh 6.432116534894516 6.90416328877106 9.364761881417317
Rh 4.969950950688335 4.800657540979247 9.819786695801985
