34
Energy = -197.41801484 eV
Rh 8.546124887374512 9.569862632465929 6.34895120964653
Rh 6.877777717348514 8.349589407067315 7.96040415244566
Rh 10.734155920871611 8.459238524533754 5.739987901051722
Rh 7.218331371607031 10.304668807781644 4.204781105464348
Rh 5.791339423788092 7.090036320027766 9.773578346189721
Rh 9.343583417962408 4.569360546804084 6.859329019725983
Rh 4.324208322399096 8.723998571690284 7.170894463287028
Rh 7.599387429613399 5.77843557050857 8.424903621436064
Rh 6.429228236003858 7.802331239436677 5.463245137744778
Rh 8.707171651141786 8.231563618279607 4.183320173995654
Rh 6.155054640946149 10.381665242329431 6.5718444174749155
Rh 6.018148140587047 4.571571114890033 10.060718101956551
Rh 4.04866454124317 5.907882256580525 11.099623296432325
Rh 8.780324052877466 7.068760657417777 6.629302956709461
Rh 5.153596721261535 6.266634377266181 7.37332148125619
Rh 10.123936734748458 6.154790628933549 4.727220806015112
Rh 3.3430830279554047 7.299745054910257 8.912891599408317
Rh 7.946957703803081 3.30351911852148 8.714303792604385
Rh 7.596117971792403 2.7319038608587958 6.171367085648192
Rh 4.72048670606594 9.52732765733119 4.664512637219257
Rh 9.027255514790063 3.853821428713966 4.379134666149675
Rh 5.703037882313533 3.682208786684171 7.657997031091435
Rh 2.6411730183601976 5.767745581324104 6.8537586071663705
Rh 7.0506392843746175 5.233182380163135 5.8465206518386585
Rh 3.659743801136316 4.720363555713692 8.981462553685523
Rh 3.935937165828676 7.101493286725233 5.129467795675573
Rh 6.4416487083670075 8.156007011586793 2.962997103191556
Rh 5.184272850432804 2.166166403317075 5.591921178882551
Rh 3.887799086612967 8.063341683590766 2.792516982070995
Rh 7.748455163195574 5.951515588794007 3.548148701972578
Rh 3.2797797130388155 3.233838208361463 7.037056170829561
Rh 5.182341688211273 5.913975194934652 3.2101519777783754
Rh 4.5651032119607 4.6290475815344045 5.324016305248194
Rh 6.4708421860151635 3.6731724110676436 3.88664151309207
