34
Energy = -196.33760346 eV
Rh 2.9198198339293255 9.45601591561081 7.423382418386917
Rh 7.657995540205838 6.190658762839659 2.8782392647680095
Rh 5.880843244789168 4.596265435092475 3.971469760473401
Rh 6.23795110223475 4.612871007686212 6.531919595649852
Rh 3.79678650851279 8.073859190608854 9.28876078631169
Rh 7.000279118171231 4.4158683784443955 8.957182350571443
Rh 9.58382174559178 4.268224541342409 9.219978758584206
Rh 6.938015939588153 9.986078104377684 7.853218399656353
Rh 8.312807229535798 8.661979377185677 6.25803730949471
Rh 9.770310524505241 5.651776800377144 7.071282663701208
Rh 3.824689712837037 6.838142017383677 11.285990413267111
Rh 2.501323045691444 6.789292033584641 7.518796464050759
Rh 10.681804230050059 6.69096513439089 9.19832463850413
Rh 8.355954353796703 4.967997645066052 5.03329147012903
Rh 6.130148305006647 8.022092961590852 2.0092202641820633
Rh 9.714625036247947 7.0429106776140555 4.780801320161527
Rh 5.423082447330838 8.07648153199667 7.23165692671033
Rh 4.018090771967545 5.397954604686881 5.7490720861667235
Rh 10.633309017795133 8.01692478299103 7.01421247479083
Rh 8.463163658083468 3.403521448006943 7.1137868215716855
Rh 8.839075829486315 8.485631288543225 8.833240272156804
Rh 4.783885228195664 5.8388769723967195 8.28487960340039
Rh 7.590762983802561 6.586733349055662 7.667971713294157
Rh 5.880980484631067 5.78364966688034 10.700737502420555
Rh 8.315852786365244 6.297231769990361 10.13367075441628
Rh 6.660637697468851 7.028520200192874 5.2195548645610845
Rh 7.992541296928122 8.572402230052868 3.6889310036563785
Rh 5.540019077354118 9.13649523617436 4.251328532905829
Rh 7.22198884497526 2.6835992001931253 5.029675621786104
Rh 6.364570480723187 8.003090840065202 9.56111561745929
Rh 5.013967728248727 10.360882991094083 6.284636837290784
Rh 4.7114457700912995 6.770086331764452 3.6248227061311127
Rh 3.630613941376741 7.8778081947738805 5.5876072823636145
Rh 7.99154823556305 3.7358149785188814 2.823608778508301
