34
Energy = -194.28225159 eV
Rh 9.695123007231564 5.618837749512629 9.570346030730613
Rh 7.243622843562127 9.134689613733961 3.3835345203344884
Rh 4.786254747769179 2.630042037120398 8.188533039972917
Rh 10.624124651747039 6.599338497507523 5.274546288922133
Rh 5.241089837941486 6.383607882152877 7.282780480554706
Rh 7.55970918290144 6.207302726594465 8.509529982126487
Rh 4.01122882705643 5.510237433229176 4.0801426260034654
Rh 9.563034293649515 7.586762300685598 7.504261006875559
Rh 6.9160206127294614 7.421379892829863 5.500300269589115
Rh 5.938315809585225 6.877206321360802 3.1217069842693705
Rh 2.058903455433741 4.002428505135676 5.196966794276084
Rh 6.05004280587712 2.5180425991582656 10.27604282310604
Rh 5.914474389804659 9.801299848212894 5.681291784332752
Rh 4.368861571330971 8.765790362975368 7.424084181957779
Rh 4.3829238621367175 7.772797853520179 5.12060745665606
Rh 2.2861611632446928 7.762199108794493 8.036025307084143
Rh 9.844551661323155 8.559914706436647 4.097863442111648
Rh 7.680628898981524 11.194482808936026 4.638469139415983
Rh 3.218433535231045 5.669640643780411 8.748993494666106
Rh 10.751419686434858 5.283097156466046 7.4211368503034345
Rh 6.720990417035205 4.1098133914332395 7.238814478910745
Rh 8.477262140567886 6.485102638122801 3.7529928224120632
Rh 8.53035077308558 9.300431938467769 5.990417980951934
Rh 8.54965798313032 5.542142568583223 6.23857692974053
Rh 5.5069781634530885 4.867550666876179 9.427093423173137
Rh 6.433839886712895 5.01452084357835 4.829184862852504
Rh 3.3724249914948596 3.582510275201618 10.082960922947853
Rh 6.8700737386342015 8.473447764401122 7.803207609380897
Rh 2.6982661458148374 6.163613297641411 6.194820050963379
Rh 9.32056792196635 9.357155142453967 1.938655561345629
Rh 7.916103863736018 3.874839595297589 9.470698504372645
Rh 2.5092240632618434 3.5606308316835458 7.641766872061545
Rh 4.446738361749961 4.083772651639764 6.115667163635308
Rh 7.829979624145292 7.480423798678363 1.5515463093363497
