38
Energy = -223.44535322 eV
Rh 9.643000889478401 5.9503161246719385 4.526264753580142
Rh 9.72394103330275 4.320561637253834 6.5318896367583115
Rh 8.423421806798466 7.542877286662632 2.7004445181299275
Rh 9.02375775260114 3.478729340649146 4.105813414209059
Rh 9.35736456001441 6.935615969581159 7.003241287943611
Rh 9.033516525553955 8.477663213201525 4.99869789814084
Rh 7.505612400012735 5.175974784333514 3.064795824388386
Rh 9.46725029303938 5.31713561574331 8.981376696896513
Rh 7.572275738803218 3.0062823219234436 6.0448970340372306
Rh 8.301230737057077 3.043309683570768 8.523753271418643
Rh 7.47388762412815 5.2587858538978685 7.297211717299055
Rh 6.181688106370966 8.32317056007492 3.592544872417581
Rh 7.285516598461368 6.567501244188151 5.084566950210203
Rh 6.040133857225481 6.738252491619484 1.7290308025931114
Rh 5.517600136887035 4.636490341317401 5.602939111917349
Rh 7.7405421282887 7.257717502602676 9.117484762353895
Rh 6.933279428422164 4.830932279884056 9.834645381337712
Rh 7.084841815300077 10.171208359278824 4.918374169957206
Rh 6.375385360715454 2.959715548631173 3.788494067642323
Rh 4.891451970294541 7.291279320835818 5.598988684703558
Rh 5.783094079386513 3.4547455259624873 8.004878037271675
Rh 7.223871411174369 8.510277204905604 6.874206451356122
Rh 5.652310526315912 6.863385458383699 10.655749787124135
Rh 5.755415774049645 9.01344875064242 9.087405200982131
Rh 4.908602802109359 5.0309599476395706 3.130156022654453
Rh 4.394600717582193 9.674854489001739 4.912977073786228
Rh 5.531706695066305 6.742421820405322 7.98496561088032
Rh 5.683271540888834 10.55477092072715 6.983352516245209
Rh 3.843747841791641 7.395596228987994 3.2168211637033184
Rh 5.234954072641204 1.9574515231761713 6.0507586413312735
Rh 3.7493126649113604 3.125164919068953 4.296788721201962
Rh 3.471016868604791 3.8257280743214173 6.937086955723815
Rh 3.792518395230929 8.916042240348583 7.325190357438313
Rh 4.236666798526751 5.044078093428953 9.256297721126078
Rh 3.060075888779683 5.501454958832775 4.894935268479413
Rh 3.474758605870108 7.607602112540472 9.518171960492337
Rh 2.357849168355157 7.9517270688830255 5.325937674279819
Rh 3.0830635774387734 6.359307374300527 7.31140217146713
