38
Energy = -225.02842592 eV
Rh 6.641152866787241 8.492639512188594 6.641152866787241
Rh 8.555391009909075 8.555391009909075 8.555391009909075
Rh 6.641152866787241 10.338683850000148 8.475567727800426
Rh 6.641152866787241 6.641152866787241 8.492639512188594
Rh 6.641152866787241 4.789666221385888 6.641152866787241
Rh 6.641152866787241 6.641152866787241 4.789666221385888
Rh 8.492639512188594 6.641152866787241 6.641152866787241
Rh 4.789666221385888 6.641152866787241 6.641152866787241
Rh 8.555391009909075 4.726914723665407 8.555391009909075
Rh 8.555391009909075 4.726914723665407 4.726914723665407
Rh 8.555391009909075 8.555391009909075 4.726914723665407
Rh 4.726914723665407 8.555391009909075 4.726914723665407
Rh 4.726914723665407 8.555391009909075 8.555391009909075
Rh 4.726914723665407 4.726914723665407 8.555391009909075
Rh 4.726914723665407 4.726914723665407 4.726914723665407
Rh 6.641152866787241 4.8067380057740605 10.338683850000148
Rh 6.641152866787241 2.9436218835746275 4.8067380057740605
Rh 6.641152866787241 8.475567727800426 2.9436218835746275
Rh 8.475567727800426 6.641152866787241 10.338683850000148
Rh 10.338683850000148 6.641152866787241 4.8067380057740605
Rh 4.8067380057740605 6.641152866787241 2.9436218835746275
Rh 2.9436218835746275 6.641152866787241 8.475567727800426
Rh 8.475567727800426 2.9436218835746275 6.641152866787241
Rh 10.338683850000148 8.475567727800426 6.641152866787241
Rh 4.8067380057740605 10.338683850000148 6.641152866787241
Rh 2.9436218835746275 4.8067380057740605 6.641152866787241
Rh 8.475567727800426 6.641152866787241 2.9436218835746275
Rh 10.338683850000148 6.641152866787241 8.475567727800426
Rh 4.8067380057740605 6.641152866787241 10.338683850000148
Rh 2.9436218835746275 6.641152866787241 4.8067380057740605
Rh 8.475567727800426 10.338683850000148 6.641152866787241
Rh 10.338683850000148 4.8067380057740605 6.641152866787241
Rh 4.8067380057740605 2.9436218835746275 6.641152866787241
Rh 2.9436218835746275 8.475567727800426 6.641152866787241
Rh 6.641152866787241 8.475567727800426 10.338683850000148
Rh 6.641152866787241 10.338683850000148 4.8067380057740605
Rh 6.641152866787241 4.8067380057740605 2.9436218835746275
Rh 6.641152866787241 2.9436218835746275 8.475567727800426
