35
Energy = -201.19031614 eV
Rh 8.009912744144737 9.166898058767263 4.91432394887846
Rh 7.894995552350784 7.1043134739829865 11.450245758960216
Rh 6.910168686383255 5.593054071955312 9.551590656234458
Rh 2.9066359916232365 8.585411714842186 7.567611690325651
Rh 7.664970349630484 5.377411452218067 5.1484191275934466
Rh 7.470427999389701 3.8633915949811666 7.351237508039014
Rh 7.766698286136076 7.058828460346098 3.338994209638901
Rh 11.300737393376599 5.417412199223338 5.653647917226564
Rh 5.767134731580821 8.54737590073728 3.754300558718457
Rh 9.564914382777909 7.167664125555575 5.174794616876353
Rh 3.500448873116976 7.852413775665785 3.004212536080742
Rh 6.705044872623345 6.387662855544769 7.284339984225206
Rh 2.914021424308117 7.424182018787994 5.301693812132989
Rh 5.363055251071942 8.495949058450979 8.27266302556632
Rh 8.490667870044685 1.649332833351001 6.4436401622262425
Rh 6.051021940666368 10.85301715298719 4.648790844554159
Rh 7.53416045033267 8.910211982793788 9.467835757733631
Rh 5.652648294361949 7.508392171636907 10.525317806675206
Rh 5.082855236502687 4.347384087205704 6.770781267337204
Rh 3.9731935232898636 6.334022922343005 7.74563890210559
Rh 8.382782979300258 8.145874915898043 7.1820844725854345
Rh 9.519240537146354 3.644529900703892 5.656833792046972
Rh 6.786061692533753 10.085219715980609 6.965612918251479
Rh 6.203676451404767 2.232369612802963 5.926077986793787
Rh 9.113081761486985 6.933868460214631 9.304483199468999
Rh 3.4043251927150666 8.766217117601311 9.985475985079129
Rh 9.406642217158025 5.610559803699888 7.323867593635209
Rh 4.6918815703968875 9.134586036224531 5.904796569482939
Rh 3.5159496906639074 6.324361663697998 10.20098174092246
Rh 5.221487151793934 6.491010075283525 5.297749420409391
Rh 5.734480236713588 4.006373130053678 4.33095631839434
Rh 7.388748221760821 4.627564805801783 2.5745355743384377
Rh 4.8288856150116635 4.429627892020065 9.28348750764661
Rh 5.3410431992956005 6.18078548846398 2.8312192593314984
Rh 9.683033655117285 5.121390718361732 3.627310059451524
