31
Energy = -175.83420513 eV
Rh 3.7031426730225996 9.517209607737222 5.9689537575149
Rh 4.724019340241983 3.506178213680084 4.681031340602852
Rh 6.36186247099885 9.814243481932005 5.634262226375307
Rh 6.296402835324181 4.275823081984564 2.9004313670869313
Rh 9.048268027607895 9.506752586925513 6.075749779653075
Rh 3.266395202750125 7.525554746589061 7.552488591097373
Rh 7.7248815399996165 7.713923053088376 4.984650778453287
Rh 7.978794147287772 5.444835553006423 7.570565566938396
Rh 1.4107573802884188 8.870204955287052 6.523883794931275
Rh 7.438942143129298 6.632447240279901 9.618243140665117
Rh 5.558922992679381 6.535906110903128 8.016966771819197
Rh 9.047193330234558 3.783376818927479 5.8836204009535935
Rh 9.768979263822477 7.038544216603122 6.438872790240123
Rh 4.757521667001773 1.1848510494501854 5.453036340744465
Rh 6.413749278043741 6.816491589574018 3.0678132561339653
Rh 5.838058036651969 4.080104465928729 7.517150297582918
Rh 2.651088014887538 7.28649025065776 5.043703831858995
Rh 8.32334819183178 5.4991179090408675 2.181049570974753
Rh 4.142188677423721 5.7855398058079555 3.688331964733136
Rh 6.652013740419912 5.323887028955082 5.24285050413393
Rh 9.07550569591367 5.664960880066944 4.414393406027961
Rh 5.198601015439374 7.584667176659708 5.2324963872305785
Rh 10.381884918613236 4.943596825632273 7.547863213188535
Rh 5.682000217829397 1.6081735192201623 7.721320700801114
Rh 3.9264074826754487 5.400081228632195 6.205366603512434
Rh 3.665208113381324 4.987147114662379 8.653684034701623
Rh 5.338474711779497 9.09161016115286 7.799590243209272
Rh 7.653074821576959 8.085226544632421 7.658907139267133
Rh 3.6117358096063015 2.9522135854143188 6.998790039478611
Rh 6.905250492770128 2.641809668018943 5.730662732833886
Rh 7.366967751719261 10.558090272429226 7.796503053024096
