35
Energy = -201.52774661 eV
Rh 7.0232521395818885 6.697668614781786 2.0946613088324573
Rh 5.438383354718753 4.793842349519849 2.13128090947824
Rh 6.095138112469274 0.6112944523251048 4.876531509105625
Rh 3.694305297435388 6.45819494089155 2.7121292434147026
Rh 7.097254754630678 4.9014328553619615 4.108320054080144
Rh 5.76200644905492 2.7023351919931278 3.501954512526414
Rh 4.54380286824483 4.8232482576955515 4.571168090336438
Rh 5.33305442114769 8.331249677765387 2.8174652685592405
Rh 9.143876677518909 6.346558081234844 3.5094172398935064
Rh 7.816357037910499 2.420562110718706 4.930386975898061
Rh 2.2127007844946798 6.099537000926398 4.642612232882831
Rh 7.016732898253162 7.447852731561301 4.600996852218922
Rh 9.503413774873826 4.291101913623062 4.825979682375447
Rh 6.360315074894806 2.1529929231909994 6.9610258982297015
Rh 4.48574213274712 7.333242514169293 5.065519391849951
Rh 4.30986705955815 2.3365805366227383 5.516580745619758
Rh 2.514079864979194 3.9471657925227492 5.930142544041192
Rh 5.665573543769891 9.730953185364601 4.922189228927062
Rh 9.4634327027795 7.753978363200262 5.497882185390468
Rh 9.869598046402585 5.708201973625871 6.783651778360168
Rh 2.4843446433124456 7.526028120392115 6.7188639410374345
Rh 2.6719611768774385 5.3762264673901035 8.008142169405502
Rh 4.925404418203117 4.327827254499238 7.044986667474497
Rh 6.036915328457266 11.044383538635103 7.061202350957531
Rh 7.545808020094744 4.43322418621641 6.604564604996289
Rh 7.74005988296564 9.389716335153459 6.293379131037218
Rh 4.250607202235549 9.207745804239758 6.924981491306693
Rh 6.610528029906083 3.8137793620700347 8.93981965219235
Rh 7.548078681237786 6.876187105022141 7.055115500513759
Rh 4.913944245701216 6.772466001564343 7.528232631889554
Rh 6.339866876330674 8.791091503684715 8.301681566329105
Rh 4.506376330436257 5.11984931008891 9.533258748404002
Rh 8.706574473731617 5.178554428291137 8.907477338814159
Rh 6.637269770987359 6.537896771356454 9.437840888647568
Rh 0.6838752807587194 5.658903192174556 6.558441459550685
