37
Energy = -215.52651097 eV
Rh 4.076369546418702 4.155356097575249 0.4930150067443902
Rh 2.6695639542274563 2.109331789592874 8.943214122114018
Rh 1.440859933982224 4.061324855333421 0.9274790480016656
Rh 6.391059183930413 3.544765699057017 1.5425902174070654
Rh 2.8116445710943596 6.035654392410014 1.8748922703578859
Rh 5.6052665658780265 6.038063450070725 1.6692809111398494
Rh 4.2430873327410765 1.9883159194350792 1.8858739844988535
Rh 0.23583982846494256 5.79225522482997 2.4146096274801137
Rh 1.675584676549319 1.8197417570573684 2.2501701183029925
Rh 8.587967970152972 3.334592848576523 2.6002044424270263
Rh 4.808220252823069 0.15596867686472948 3.752936032429338
Rh 6.915775417591844 7.310590548878813 3.823291885030296
Rh 7.774196881964356 5.107871629247499 2.9039111550168184
Rh 1.9353860510060188 4.069582962552894 3.5273564956316807
Rh 4.367845729733669 6.957133641988307 3.7031719579264726
Rh 8.295515019999488 2.6381140825725446 3.3546233833679047
Rh 5.9194577067022385 2.4251319977732804 3.8258390138636096
Rh 4.343668335699247 4.317527996167365 3.074378929060332
Rh 6.205489614539537 0.9489759834332121 5.746526994233796
Rh 6.163586186940402 4.926268331189222 4.750412396220297
Rh 8.251652169413754 3.8707083951567736 5.537716574803942
Rh 1.7516799317783758 6.596742146034926 4.229055444228297
Rh 0.615528526324362 2.0929433426173776 4.590892489077853
Rh 8.587967970152972 1.358505190781734 5.47225360447895
Rh 7.875883447450286 6.226048936676631 6.145279480322069
Rh 4.76503693337846 3.0149047077518 6.1449971452129555
Rh 0.08240430139381688 4.777630406087695 5.1014335944612155
Rh 5.5517938236474595 7.2769654218333875 6.032303506189401
Rh 1.5743442676935049 5.97513085218421 6.824304306945968
Rh 2.0611868471152035 3.4011774277744804 6.161272467664251
Rh 3.2101111484385765 1.8809179383970696 4.4025678131533414
Rh 3.1202167411577575 7.962117863107812 5.793448063790214
Rh 3.696873869083103 5.3324117070560515 5.58285154261422
Rh 5.809641100882242 5.116572078953075 7.390628935661022
Rh 6.96584418302477 2.866449952855356 7.3525620842326695
Rh 3.9334661059265366 6.85422132049229 7.946407382683289
Rh 3.42974284798794 4.389450266337643 7.978006548513957
