35
Energy = -203.41369938 eV
Rh 6.474631574596801 3.4939769314437705 1.7043446700316438
Rh 7.816546159030118 5.79950178496006 1.9314220130680435
Rh 8.092583594767323 3.8645419219311 3.6640610984468673
Rh 5.311375838482775 5.7189203729684595 1.8744119068273812
Rh 8.446855052740585 6.741730945404171 4.162365969399555
Rh 6.3551791741147685 7.788306609928974 3.1159313564301403
Rh 6.3668344364140905 2.050561649526203 3.8560112644392097
Rh 4.477770975981486 3.773373333823165 3.476730615277076
Rh 6.250232519654955 5.308011148622848 4.288973785228669
Rh 7.92451765398681 2.668115722455962 5.92118144203897
Rh 4.077737512440636 6.62492326944376 3.825233211880358
Rh 6.4937383010406355 7.456769194925594 5.772364017962862
Rh 9.854411005162248 7.678251207569264 5.964478608677839
Rh 7.936895626351397 9.276045648602935 4.866032295314913
Rh 5.405658604616121 3.2116850186796575 5.864164744648369
Rh 9.3978991079747 5.006114901780724 5.683760225629262
Rh 4.650930026703971 8.963610481006583 4.778984294282354
Rh 7.130279842591454 4.932136107191071 6.726230787633426
Rh 6.111809210768172 10.095398896236079 6.634360395924311
Rh 2.7899273823104145 4.760175296874967 5.135871288543443
Rh 8.91841659621789 6.2857722073603775 7.8806024083697395
Rh 8.039882745942057 8.680695698873837 7.4491626863949145
Rh 6.29701222883975 6.82507745452126 8.217983110998226
Rh 2.633317628681017 7.484770929735203 5.6412629121583215
Rh 4.638840058117439 5.819054082821259 6.348022732355794
Rh 3.629202597930976 3.793889724821185 7.526102326397211
Rh 6.054434967064814 3.369240650669421 8.391902157039949
Rh 4.359138569441689 8.34609037974537 7.306893246185632
Rh 7.377158633114444 5.133084396916158 9.66020570729099
Rh 6.0072443306382235 9.16426450061892 9.115065764559821
Rh 2.6255150601829884 6.258993051418611 7.834669413463971
Rh 8.196898492019985 7.747014894888787 9.87460649414321
Rh 3.702146154579558 7.7457723303565915 9.67768700964567
Rh 4.612850875384958 5.361643544767519 9.2601714587388
Rh 5.865677431749797 7.066853923651635 10.769489499883292
