33
Energy = -189.81622534 eV
Rh 6.000749151493968 4.671470224577751 11.786980412078359
Rh 9.89453925583275 10.084769331312216 10.751133333210463
Rh 9.579936981860154 8.013377369088595 5.153247043358452
Rh 7.913618997438836 8.655591333292232 11.524588873331465
Rh 7.581931766011806 10.148880390748529 9.477362657416636
Rh 6.076262630742635 9.16405880052175 7.63565952412338
Rh 8.073808899469402 6.048336722474479 11.100017317087287
Rh 6.262284345148413 5.174980492204194 9.342114920575234
Rh 7.244773200347603 9.231001051902185 5.35380493408789
Rh 7.573193629261462 11.242130227252623 7.044869974326019
Rh 4.396517630160853 6.349961877355313 10.656375588683062
Rh 11.922051024407018 11.47489202138503 7.486828089035922
Rh 7.311229631113335 4.516450409425236 7.14607310358905
Rh 6.42987010538931 4.861685534466568 4.8631865774985075
Rh 9.664009020927388 11.429858767785984 8.62861328877534
Rh 9.0967617670685 5.482262794579768 5.538419631851022
Rh 4.898501780973523 4.949503766848883 7.034339915836917
Rh 8.946873343899636 5.509134028775249 8.73253590034561
Rh 10.472611580846312 7.090841202933664 7.395050022835182
Rh 7.625743584709046 7.069808262259203 6.766631616762601
Rh 9.921693885168613 12.695982365548868 6.498578557095714
Rh 5.458638361034108 8.722416199004272 10.261995180721277
Rh 9.760138980960884 7.699015106084463 9.881044795655566
Rh 11.481158984616119 9.336709911501922 6.219216363631987
Rh 9.082765117079003 9.196634323642984 7.536530537560635
Rh 5.41123710262228 7.088176886794179 5.737701975227612
Rh 11.397683239333087 9.275645922488154 8.773544887636822
Rh 11.687143256542656 11.548834763447106 4.947833913336723
Rh 9.369223414790248 10.612135063351005 5.271642003663828
Rh 4.832867067460187 7.098391132775419 8.303266459097244
Rh 7.496534231554258 6.9951026617033225 4.107424792391504
Rh 6.079460202901914 7.150793414375238 12.313575193720029
Rh 7.308852700207799 7.5309617415055925 9.206175161718129
