30
Energy = -171.1224124 eV
Rh 7.08149855535724 8.161955788171156 2.9464598224810157
Rh 5.335731867095998 6.432084820252769 3.2894965339807607
Rh 3.6049174492533766 4.695285139927529 3.527983462506216
Rh 9.661172451755705 7.79651464276311 4.015548781721549
Rh 5.288713589960656 8.66810811336094 4.715980232481365
Rh 7.732374432050214 6.15868112075139 4.408116313365072
Rh 3.246736583494543 6.928590177834677 4.748826120992972
Rh 5.888566233737874 4.2321376254926815 4.72709342931726
Rh 7.757255788466064 8.860763938508141 5.2382084927298065
Rh 3.24801587483533 9.163401857409726 6.000220085715911
Rh 9.985847264641793 5.887383460788574 5.639472697447101
Rh 5.523199509933994 6.3848550582602295 5.955238790643487
Rh 8.179319577656651 3.9925986767687323 5.682575140422103
Rh 3.5440795272447616 4.626055401547454 5.962565647328917
Rh 9.914861699795257 8.35188879476328 6.519087637039278
Rh 7.9075808988085035 6.881555705110874 6.890810656349255
Rh 6.6944695018166644 10.010103427839002 7.068860290196041
Rh 9.108415631407205 3.531300102469825 7.88298211397234
Rh 5.0713907366109305 8.226037236422954 7.543240128463338
Rh 2.7611646701812895 7.074652410733174 7.2613403098216525
Rh 10.937651990215121 5.263681111756114 7.710933784793496
Rh 1.6803965734532782 4.906440091785016 7.469360308601284
Rh 6.77293680287692 4.742580859870538 7.714782042287992
Rh 4.749245574643611 3.3495440234723 7.5553640045772585
Rh 10.600480607699252 7.634886790416114 8.722893731095592
Rh 8.83050173911304 5.855944350050312 8.902081534309144
Rh 8.238670318540075 8.857376268301081 8.534875967277351
Rh 4.580746595007907 5.867484129976391 8.57272509491813
Rh 6.64566259813552 7.078419114839018 9.256639171709713
Rh 3.0845579367442166 4.035852340890578 9.192400253986985
