30
Energy = -171.83672882 eV
Rh 5.250621176433178 4.291202138764478 1.146685241279246
Rh 7.207308983263741 5.954957735378281 1.8816440089138422
Rh 4.627988853317054 6.336009067947961 2.41297158635602
Rh 6.21479581219254 8.442743084085699 2.535989147395411
Rh 6.193776598907145 4.052102914930925 3.4386745090195543
Rh 3.6164560930056253 3.8957628208785535 3.165312650163695
Rh 8.602130871101187 7.672578288073199 3.395548269110266
Rh 8.548815050890985 5.0871959378803835 4.089123641278532
Rh 6.5238287052902235 6.588652343016898 4.227973849330593
Rh 2.315061277030374 6.186234355308176 3.7526880651234342
Rh 7.599590366554207 2.928991549246203 5.248532659667732
Rh 4.258953173222311 8.048446788483833 4.3368529265950935
Rh 4.404657777131388 5.507330378563767 4.914830326296116
Rh 4.856345104097945 3.036954171838683 5.525776263464821
Rh 6.732142077354249 8.878993456260371 5.178299124840604
Rh 2.6775692245988547 6.745535004547216 6.3244750076205865
Rh 8.304443112512907 6.94385910405335 6.013146586566854
Rh 5.145355761584547 7.404374595319602 6.644870696229225
Rh 7.1908750558689745 3.221557685101681 7.848248407236718
Rh 6.529772139904197 4.9827713976296355 6.21201109326168
Rh 7.134482133897871 8.309340378557847 7.796030536245584
Rh 4.642677942682378 2.443837709266351 7.977164192805067
Rh 4.33205126426398 4.932279340235183 7.459384517359033
Rh 2.3704880686230316 4.2170063433684275 5.6108115127543465
Rh 9.089998395053579 4.531034812287024 6.63054606436125
Rh 2.5383787071914607 6.0868977831296185 8.706309999827676
Rh 7.438843262421586 5.860185614142887 8.354364072774006
Rh 5.0583277638031126 6.851897352225837 9.038996734044007
Rh 5.650649616352822 4.3167547467951515 9.481149367856101
Rh 2.3066838384670363 3.607581309701954 8.014657149241403
