31
Energy = -175.12518813 eV
Rh 9.432858432056623 5.626035434200378 9.902005355257357
Rh 9.656345982985425 8.131347451578916 9.654746287365663
Rh 8.90969533649505 9.15915757135109 7.609254252225109
Rh 9.950321684517702 6.569260216762631 7.581275128190194
Rh 9.187221682177578 9.995992710450437 5.351695417049492
Rh 9.622386135010313 4.036660921351854 7.93809664642539
Rh 8.866482516934465 7.503528043536079 5.222521854423345
Rh 8.42633011834009 5.069593165527947 5.973737357343561
Rh 7.345143519703496 7.094481908512203 9.872863067560141
Rh 6.8914958186993145 9.187011865888714 5.89515121158599
Rh 7.636001125875695 2.8269082035872453 7.018863058218203
Rh 7.90181108863726 5.773401864291058 3.6147830937712575
Rh 7.289429626933274 4.811542290846427 8.675357576271493
Rh 7.544917328704419 7.028482605498791 7.39245989075702
Rh 6.273601636985242 4.304085878002659 2.21280615559475
Rh 5.263309019590151 6.538811782893762 8.296625578564079
Rh 6.8542434322479515 3.5817473077601254 4.510900472448593
Rh 6.254596434827743 8.957931884996258 8.4888298872656
Rh 5.692913826858381 4.5215842597531255 6.718259902301992
Rh 4.711807314892642 4.858978389583066 4.186691965480975
Rh 6.172942295574992 6.826265313935745 5.181173110850471
Rh 4.615386936484057 8.392788043068899 6.652975691352827
Rh 3.5376200289891906 5.994486048010049 6.403741016386197
Rh 5.64829819823923 6.67128119477972 2.7079150441209547
Rh 5.516308432959897 2.045505468340009 5.973506979649232
Rh 3.494757690213822 3.4467219399459403 5.95185899543471
Rh 3.8017950643645566 7.349483617723319 4.218490915119413
Rh 2.2009073616788974 4.922227611477934 4.490454589614528
Rh 2.236237223082364 8.163185651743655 6.002639854456172
Rh 1.184445765593717 7.267413597645624 4.050761437928224
Rh 9.950321684517704 5.325745344012547 4.231205794043191
