34
Energy = -196.65854438 eV
Rh 9.54684234255068 6.88853092181513 6.4106830615354635
Rh 7.943290999084048 5.875765421339255 8.19085966522627
Rh 9.073757719119982 9.411983733446824 5.763792629252837
Rh 8.716448895308941 7.683770381558812 3.994850179775028
Rh 8.194262949464202 10.057211524867364 3.3670892183563708
Rh 9.47828247739728 5.348749960583504 4.235822454890719
Rh 7.418897426393195 8.273372755564036 7.263412946027311
Rh 7.297875348973892 6.141256550479726 5.5587912973351985
Rh 6.960915105293659 7.721918965521283 9.71212869700695
Rh 8.704385967936384 3.925128177625117 2.3014120076035853
Rh 7.182352570182597 5.877205339430518 2.8750691769166066
Rh 6.1383251435104516 9.854251047289662 8.753509317893432
Rh 6.447773091651613 8.277273662597688 2.998089544423091
Rh 6.600983297136932 9.565576963453834 5.233719103302257
Rh 7.9652549846391265 5.668128025227056 10.71597511105088
Rh 9.039676930538915 4.267733835547859 6.580800588818786
Rh 7.592981098690044 3.602153024294822 4.5771897871557385
Rh 4.72422891219759 9.205051034737156 6.789747278142687
Rh 6.178100409321365 3.6452445320793476 2.45146900958933
Rh 5.056566484062087 7.440919189084243 4.993763499357547
Rh 7.207230553229279 3.6880379551168265 9.26669578719278
Rh 4.673337033616308 6.4282994436611585 2.7277249785580016
Rh 4.413036992139165 7.9110058339305835 9.106999560734671
Rh 5.563027574462542 5.573152046961591 9.80968793158192
Rh 6.45624855257213 3.9660234823787626 6.852130221025886
Rh 5.4546584673762775 6.371601994696528 7.3828077864077555
Rh 5.2651762573777425 4.714502619199094 4.547611550227958
Rh 3.144166078313977 7.28922928470392 6.8298542783501075
Rh 2.9955099002816055 5.854533414703113 4.690295073458387
Rh 4.749757005443035 3.4149163798060935 8.728661298405912
Rh 3.2063012608997483 5.587042551619697 8.781335918672449
Rh 3.865095553696303 4.292914475969044 6.517256588793283
Rh 1.56370954274225 5.306470039219567 6.805640439723573
Rh 2.3145603354923585 3.2448768200815237 8.271805677020655
