31
Energy = -178.67273711 eV
Rh 7.605310653468976 4.57424420400175 8.581875520312263
Rh 5.2177318893453 3.882271106206185 7.8198353319966705
Rh 7.928122030782862 7.12471226206326 8.308801622241115
Rh 5.939988348954189 8.717951649202694 8.820417456009736
Rh 5.675072359264101 6.115535627189618 9.180710681374864
Rh 3.27396617358558 5.523787431392396 8.404340886919933
Rh 3.7708651691320956 7.666357883650579 9.668983977567727
Rh 9.011347107166134 5.353828999787949 6.605067028671561
Rh 8.34132615678833 9.568903320321292 8.032504185142624
Rh 7.272528747813393 3.4295995865260296 6.323465216791421
Rh 4.810384787115043 2.8003370691015137 5.530695087735411
Rh 2.813931237902968 3.397478212346707 7.076401989667666
Rh 6.009763971747604 10.697766622593717 7.323879391985898
Rh 6.397810347887728 5.978470516350929 6.623565015193334
Rh 4.309203512189691 7.562549364747837 7.223122161152321
Rh 4.560293635346171 9.49110217805521 5.736597300031525
Rh 3.915698893248761 5.341557391820002 5.891291270865663
Rh 2.967441250528981 7.515213274815699 4.941914889175062
Rh 9.377534403018336 7.927740009985984 6.272907362639879
Rh 6.083182748540239 4.817558181867902 4.3866061806466305
Rh 6.934096401471064 2.2885069358489574 4.104875106223834
Rh 10.334226824472156 6.180983007167524 4.660085145805442
Rh 2.6676879889764713 3.708889562376797 4.386139728694471
Rh 8.634247962812967 4.281494947152734 4.222662636605692
Rh 6.910502738879011 8.531509748308368 6.228369460960016
Rh 5.391714266099963 7.474867691737566 4.453328376261385
Rh 3.94616493865421 5.66722282891754 3.245146713518831
Rh 7.888870328049116 6.726891764688189 4.496845649084887
Rh 4.707785364437889 3.2162333616311907 2.9609894420516785
Rh 6.375396613957469 6.389166625724591 2.3665529880049507
Rh 7.0833374031733465 4.048880241917313 2.1187059500004257
