33
Energy = -191.24032168 eV
Rh 8.343291170304312 3.4683992839310105 8.120501625267941
Rh 10.237625261977131 4.179281470769622 6.37771687303576
Rh 10.638295225490037 6.707492092865958 5.843848267928355
Rh 8.856333221566938 5.973425213614199 7.5410698490326835
Rh 6.843640486185316 5.28427629124535 9.14555575174931
Rh 7.45876821407607 7.746145652870885 8.751475940507541
Rh 9.213207180112093 8.541847511013016 6.969189934888821
Rh 5.135751043567534 6.85606650833513 7.962069009972717
Rh 8.133736105309167 2.9925070214244887 5.564156045629316
Rh 6.190596669745315 2.3876228676755065 7.317166492607622
Rh 8.583271094976237 5.485981033460828 4.889399990213046
Rh 6.611087117832089 4.872809340227017 6.625604672387028
Rh 4.550609433903259 4.350150829069667 8.174505946980254
Rh 7.334989567644394 10.082477400983906 6.527048289945541
Rh 5.7801501758931275 9.537026483450198 8.319393541431213
Rh 6.056395744005541 1.7800594528142186 4.7364040471546565
Rh 4.365201577954565 3.05070243540283 3.155656271570672
Rh 7.033843203092826 7.427640389625916 6.125853185673252
Rh 8.92906858825829 7.99447979693276 4.408888616008386
Rh 4.485646708023737 3.4649192034387775 5.690788166841351
Rh 3.3839043316949597 8.815296044906638 8.276547735419827
Rh 4.745649990438899 8.728565514458118 6.038733442844725
Rh 6.464677604800398 4.273845008729325 4.050427142471829
Rh 2.7872357903276734 6.19719316684566 8.728794860045246
Rh 6.662824906727871 9.280868672015961 4.249925322579677
Rh 4.657771146799234 6.079546906784363 5.259838950845286
Rh 6.784900411621447 6.795592899435506 3.561344171233254
Rh 2.7412376350661347 4.796122182557179 4.061635790835723
Rh 2.679199760120898 7.28846469009088 6.459279233319902
Rh 4.490068737233149 8.006451565295961 3.524563431788008
Rh 2.5660589540332177 4.783437175732649 6.613071728815467
Rh 4.745500684059161 5.540109070196887 2.642617256238726
Rh 2.24091619284518 7.216947479212008 4.106344611230498
