36
Energy = -200.31746633 eV
Rh 7.278665674439609 9.621812497081459 2.4177311108480017
Rh 8.513016581830495 6.144466843378041 6.871773148460115
Rh 8.423951554600544 4.447226098034019 3.9259069343465374
Rh 7.501879016322417 10.317765450800126 4.937014087044299
Rh 9.794503059661986 7.637720730491586 8.507457272212886
Rh 6.234629025475436 5.403930404881962 9.967598983807225
Rh 7.44114813467004 6.929677534084547 4.601441020262956
Rh 5.487216592856901 8.880345918637317 4.1195719504307275
Rh 9.056913558316717 8.638246263642538 6.425448479454184
Rh 3.1963877619347 5.841806504954334 6.083225161524673
Rh 3.4123658118623 7.675185110128418 3.738574397173462
Rh 9.180241300025406 3.8662337270284906 6.3810137736346375
Rh 8.70870735900224 5.658341947560773 9.509471346741455
Rh 7.881275851966745 3.5790177981111846 10.379096159508011
Rh 4.91698633210534 8.252290398336227 1.7857016142619713
Rh 8.796467481436984 2.154980601723257 4.467113093372852
Rh 3.2520864244994 5.178968900389995 8.60509900677511
Rh 2.2364574251319844 3.779093074138333 6.990504864353943
Rh 6.91400725495754 7.021451606541546 2.2253164467123545
Rh 4.9314271131997796 8.898102607498442 8.276725379158076
Rh 4.031610283921917 9.305204481700324 10.463221875913518
Rh 5.369974407298305 6.3472711053364845 7.5842022329294085
Rh 4.87412609415338 1.671683841513862 6.2102928639057815
Rh 7.7661346806036295 4.884750509049662 1.62823815930969
Rh 9.40126528618704 6.564325723263383 2.8059688922004766
Rh 7.14184266796934 2.226514374859299 6.138947270719996
Rh 4.703864160124257 3.9298755385647817 7.0712434373050534
Rh 7.217306894049648 7.704964325103592 8.86584354566167
Rh 4.437960469783211 7.075611263730311 10.072476949203429
Rh 7.137663544276856 4.0265492349175585 8.032750828795237
Rh 3.9518840869759875 8.300014657851138 6.206216161339784
Rh 1.5817512447161763 7.5653089614198405 5.335944508282327
Rh 6.591986027813128 8.540380111359068 6.4580766388529325
Rh 9.132890318236763 8.760126432953165 3.8898182339901606
Rh 4.010154558288521 4.854654175303868 10.902433861004432
Rh 6.63272261040031 4.693847552064998 5.588467132066427
