49
Energy = -293.55964109 eV
Rh 9.637501280793808 8.77196126942262 5.376940790481922
Rh 10.467506252093187 6.3788801107036 5.670166099972189
Rh 10.39922208400965 5.1563988706405155 3.4023316540488233
Rh 8.846673524156573 11.20541299506061 5.0814161800066735
Rh 9.839853119312158 5.052566580008436 7.896990981937257
Rh 8.584364526211155 6.92306179095168 3.861544219692895
Rh 9.778104947805177 3.794917510679899 5.510496995110199
Rh 9.231123086453797 7.554962722847193 7.624681719098861
Rh 7.9294686079069425 9.4353716636953 3.5723385948612605
Rh 8.178038183174614 9.996130196065007 7.187663354395032
Rh 8.728954542659196 6.460773847778149 9.926801697787278
Rh 8.91061375551871 2.5692617117128314 7.595473303249221
Rh 8.6477975160096 5.785967872003682 1.559708090790192
Rh 7.943556600015623 4.43195213764228 3.6281480909325015
Rh 7.806743445669903 8.833041824386598 9.348811870985708
Rh 8.052598376303669 5.565858397866376 6.147483322679004
Rh 7.039620685917116 7.774893806443968 1.8978159447979863
Rh 5.954297115307298 6.073230261763117 4.478854432105938
Rh 7.143139449691956 7.974740926156661 5.831936544225387
Rh 6.360001993625016 10.448840824165776 5.403728467620079
Rh 7.598737486285987 4.297244562177869 8.872080650350334
Rh 6.962989000882461 7.9562210121562575 11.481177411122205
Rh 7.30108639505145 2.9551444072140227 5.65843365250956
Rh 6.764623914326583 6.734399706135893 8.202507702094884
Rh 5.487209935806933 8.58148062206186 3.8231229134437537
Rh 6.097063658668945 5.35720326693678 2.0100493514736524
Rh 4.458239406570528 7.301765216695733 1.9194743301112558
Rh 6.350153811602818 5.752583475531566 10.640357488655381
Rh 5.581581622915914 3.536727884577056 3.8009171219238485
Rh 3.8071320886366484 4.728262170633022 5.3800887553991235
Rh 5.826246551649328 4.592997035678156 6.942169821738493
Rh 6.266048359743242 2.235579821485227 7.935033070240498
Rh 3.638718323935101 5.052408701990538 2.8210448852834418
Rh 5.009151938519082 7.886514260924256 9.823840998883115
Rh 5.777832024287039 9.268773422229376 7.717910966080688
Rh 4.719792120041578 6.985462720582326 6.6559202843031215
Rh 4.005523461240666 9.334114308227473 5.748528187752017
Rh 3.435005595048213 7.131934259308874 4.33393210050262
Rh 5.474208157886212 3.463463098859831 10.076120689978534
Rh 4.7066394323110465 2.2944136057091633 5.834202764044907
Rh 3.1237029103953464 2.7338551607030737 3.8086241202932216
Rh 4.414657060299417 5.444495705938882 8.909541286982916
Rh 1.4665061186710404 5.548711735615186 5.127624927424175
Rh 2.5623750423652516 7.047754929593785 9.135796428564268
Rh 3.8330112454929735 3.0806867843453247 8.155249597655853
Rh 2.2494358305851105 7.561267380321603 6.625170529710018
Rh 3.3669315730790212 9.240252970582837 8.273427643711827
Rh 2.2836885793990063 5.110843521679261 7.490152870526318
Rh 2.1574353807302815 2.9628887192045124 6.2100119935778535
