41
Energy = -241.47988963 eV
Rh 6.7159129294298765 10.685310626144483 3.9232433925973376
Rh 7.98424439284518 8.511323487962484 3.9482239905083016
Rh 5.69956502188948 8.819030012511943 2.5633247392432423
Rh 6.878123358680557 9.389706686132685 6.058149766144872
Rh 9.279764770291766 6.403669732984411 3.794935953868981
Rh 10.426498218591474 7.039179719632878 6.165816653342977
Rh 11.292309394703526 5.109314394388938 7.502106047747648
Rh 8.87583229744097 8.65143846641132 7.387222369235761
Rh 4.478600786522747 9.736191718612595 4.690103064113714
Rh 7.0344815453356135 6.5578335652985755 2.4589736103730058
Rh 6.921014761259931 10.058957460636636 8.462901199033407
Rh 7.3900953121048065 4.799397445343791 4.291218012166551
Rh 9.293219320266054 6.32309025050502 8.497311868446223
Rh 9.474721939473524 4.678387513307657 5.763448340272751
Rh 5.732596740080609 7.388863027795269 4.689690419958615
Rh 7.857732776178117 6.701617237620732 6.03210697570938
Rh 4.652370472848555 9.761763308551565 7.303322835390999
Rh 7.279747882322409 7.7323845837760725 9.198148364442186
Rh 4.731155055620613 6.831175731147079 1.3502624587950183
Rh 9.269514414696667 3.739516022665334 8.133613637925526
Rh 6.65886601172355 6.532474195248035 11.246162731091129
Rh 4.984206097292728 5.213811136289288 3.3094048949405157
Rh 7.000184403300954 5.230568096409106 8.073506410322297
Rh 5.677198990209681 7.4055036145360855 7.321031081529927
Rh 7.3887435352203 3.278200634272268 6.371468115631549
Rh 3.463827146454202 7.66795174265112 3.4408660173641743
Rh 5.325951972769813 5.153728472184921 5.974954103889293
Rh 2.6171809031068967 5.532256450217765 2.3319246450027666
Rh 5.576325259625707 2.962807651817234 4.585229805354391
Rh 8.226283691267623 4.80921442168054 10.292390583698761
Rh 3.471631403398965 7.784781889934761 6.03361464655104
Rh 5.783680632798757 4.2484998933024425 10.61753342464742
Rh 2.8711384291648145 5.574111334773613 4.890167650010259
Rh 3.339918945934414 7.973173891410877 8.592923593210964
Rh 7.060066513335468 2.7086615822547326 8.916759345363277
Rh 4.831546344414402 6.225180524626052 9.415550636802415
Rh 3.2304505549011413 3.3675344461358403 3.6392678920938053
Rh 4.812145542527456 3.83184239003953 8.289107066680048
Rh 3.1318508070103874 5.61752504662346 7.443496570947041
Rh 5.424453554089114 1.8126161103689709 6.906053734188978
Rh 3.444073824396883 3.3602172707890428 6.187210885973871
