40
Energy = -234.43060174 eV
Rh 7.110159602775153 2.8884699119178956 10.856869965207546
Rh 8.274879887830387 3.6478880240417104 8.764156015132864
Rh 7.192812369372657 5.411596965231945 10.217352677758013
Rh 5.8746959229005045 2.6803855675240182 8.572704530593233
Rh 9.671607503847023 4.40757180484462 6.719729042596093
Rh 4.989832504056087 4.140081532770052 10.521242123216625
Rh 11.201886614999259 4.970979615251683 4.805952433702865
Rh 8.448144109562726 6.189574752515967 8.060845751312154
Rh 7.401582633967345 3.120370836626271 6.432905166728304
Rh 7.12554540589919 7.806129952159311 9.449446934957685
Rh 9.988739741481547 6.91988808512334 6.170320511090901
Rh 6.167378839500146 5.047427173023474 7.632943526768086
Rh 8.942207249904135 3.736850242275958 4.338244534008595
Rh 8.331656851091557 8.86467315638191 7.28338011145736
Rh 4.945156255350457 6.472554891372329 9.472818877945215
Rh 7.378281575909217 10.232547470079425 9.326847402212838
Rh 4.786422192831803 3.160716446662975 6.269342638721386
Rh 7.679334340272678 5.76535801434661 5.405034226827665
Rh 3.814014494773362 4.510033646098302 8.297319346412484
Rh 9.491661157391173 6.356297852193442 3.641608609120856
Rh 6.437256717499924 7.253490901171479 3.524624465015634
Rh 4.991069621323318 8.931995142900552 8.609746617930977
Rh 6.285890139578868 7.532713119982832 6.895484606253148
Rh 8.402569066291003 8.326347512348068 4.8015690122533465
Rh 6.264919379380568 10.609659198294345 7.202759174277429
Rh 2.7325404207449826 4.934890833116456 6.083771345823702
Rh 7.64188202379213 5.114065943020514 2.5593212085689845
Rh 3.7518972145709615 7.053934782605478 7.287414848530693
Rh 5.032215322360913 5.704207344335632 5.280006256101623
Rh 6.091133780492476 9.28151679381407 5.110115470915419
Rh 6.297976219977915 3.6343382788252416 4.208953043924669
Rh 3.67869140579725 3.6079716920095595 4.014288327164699
Rh 3.861212709730763 9.561079711617563 6.444606534756157
Rh 6.3587379137159665 6.7037746657746515 1.054274084647036
Rh 2.8043060518936733 5.912923561617828 3.6298429946421873
Rh 4.095330315282832 8.003226918423831 4.532108306986907
Rh 5.050612425239571 5.1083466057979185 2.5119467363812404
Rh 1.9051952415576043 7.3913056820528515 5.623257971534894
Rh 4.219725868639338 7.4934946356499506 2.070066756524161
Rh 2.050080489495153 8.253575128070487 3.168188203629709
