42
Energy = -248.36627446 eV
Rh 6.681079178511593 2.213255470422322 7.704182331745021
Rh 8.99634360225197 3.2094278455364122 7.612718525226754
Rh 11.339272956177242 4.19042022831894 7.479698727475213
Rh 4.627750294569447 3.5794097650682675 8.407221022411637
Rh 2.6339779721058543 3.0077567935569225 6.95206370931975
Rh 7.294130428955151 3.6736005658301476 5.720667992803433
Rh 6.969523143478798 4.526207594317707 8.759574827447222
Rh 9.82438082340346 4.325238826185561 5.447076136761929
Rh 9.614031826767055 5.2694183801900545 8.930917947184449
Rh 4.731135433536109 5.861557765539361 9.602063410820097
Rh 4.910428916299917 2.851338882419353 5.909053431265564
Rh 8.265941001799773 4.380153603969591 3.403130098367257
Rh 5.660874785336646 3.935666838809491 3.73582458846424
Rh 2.8341122311585036 5.347462523075736 7.908716766561257
Rh 6.347759343516077 4.858827313849118 1.5170315179706513
Rh 5.313903342081052 5.394372221297476 6.665630717597528
Rh 10.567374568217327 6.537170261036677 6.766286275546845
Rh 7.888128082077555 6.245710402580835 10.429469119492731
Rh 0.9708543327982658 4.798708300493246 6.291166919195233
Rh 8.109398349852754 5.945891192578737 6.75775574491415
Rh 6.553094657080051 7.0588987715863185 8.476272560036815
Rh 3.205151777705785 4.660422520611106 5.06324755440825
Rh 9.184217428996366 7.762338125268514 8.64280469907012
Rh 7.6681766081858145 8.786920953774516 10.51180558327315
Rh 3.9110231134355686 5.3173561425668305 2.714706532836934
Rh 6.721571503152356 6.042641177039507 4.503601910062544
Rh 9.39896136195869 6.62991546652748 4.423006695591602
Rh 4.065605733213848 7.599011084844586 7.776380687447558
Rh 2.235337477709549 6.978871657475865 6.05834593527395
Rh 5.2914747446531925 8.891328215239682 9.64260777659209
Rh 6.128147027068652 7.99508497283633 6.105360049150155
Rh 8.149929031289167 6.6240614153806385 2.1235231396306626
Rh 4.251945252571438 6.972516815579557 4.5598904926533725
Rh 8.828981742960977 8.454048674935084 6.178127694584873
Rh 7.398676786216452 9.504604043141766 8.064495299497258
Rh 5.702792435376184 7.161951549421084 2.4561773314293003
Rh 7.676061221233519 8.480034080754614 3.8865280015517745
Rh 4.987427655687509 10.085422676768783 7.443348276508095
Rh 3.4291651521012834 9.118570793658046 5.696690611872079
Rh 5.248653219724072 9.295083802704482 3.903388172599939
Rh 7.026155369050003 10.319233516267671 5.612223773956143
Rh 4.67352257707439 11.34224651524948 5.315801300254472
