43
Energy = -253.79803646 eV
Rh 9.270721269799585 9.852606219454886 7.898023490855363
Rh 7.786658738403024 8.793010602917157 9.649322248988163
Rh 9.23173919413355 7.345198426413366 8.213983037228738
Rh 10.41518113055577 8.314998475145634 6.111293406388175
Rh 10.331634147951137 5.614959721685951 6.679943758358508
Rh 9.324496973362868 4.888024876945779 8.982410650160443
Rh 6.41679924474482 10.231737758658758 7.73435801088463
Rh 7.955217559136593 9.527945492656103 5.784493102155218
Rh 6.905388103613479 6.216289005037666 9.356893309252877
Rh 10.635993279313432 6.4603251906491055 4.210786887046643
Rh 9.271123258572088 8.650032116926628 3.6277113639808714
Rh 6.8656564523454335 7.794232190076372 7.261731349711183
Rh 5.355423937314861 8.385664236251838 9.401599785422071
Rh 8.390932313298649 7.040099530981887 5.369880018090962
Rh 8.881206992524369 3.0650450159266462 7.0153011704385495
Rh 7.679379523628013 5.29172690358162 7.047498394584267
Rh 7.146301015535663 3.598960213154337 8.94259189875288
Rh 8.977299535769347 4.552377585915355 4.791082983185675
Rh 4.164010529571538 9.033041729948643 7.26439041695873
Rh 5.491632941205559 10.063744785357308 5.227571313340674
Rh 6.762974342049335 8.375233937022193 3.6123140815300387
Rh 8.246572971159535 6.353377266337507 2.9023162523344466
Rh 5.054923681364426 7.594258529906897 5.3604434513186145
Rh 4.837933509950113 4.553997591769868 9.4091425837137
Rh 6.540006940476263 5.418697899637766 4.671519965735196
Rh 4.638377598495251 6.516868446871505 7.8479218613517645
Rh 7.027959534628314 2.9304698160523137 5.119309335208361
Rh 6.558764851502325 1.6979801194754605 7.287601349779904
Rh 4.373348349303353 8.885787717903193 3.1433327989028794
Rh 2.841620806772794 9.294076954951867 5.160050258587405
Rh 5.47933489801979 4.088483629751011 6.852056130127584
Rh 4.194961087212602 2.344689148981519 8.225376975376925
Rh 4.961412951487185 6.3547507504095115 2.913154053599215
Rh 2.570226201754201 7.0108265597473025 6.418859102500136
Rh 4.611524056509795 2.0943333365430883 5.579213867389427
Rh 4.027758757095744 5.27941979408694 5.12304921387262
Rh 2.980615927897472 4.6094523625477475 7.445425276793591
Rh 5.007429831292962 3.6445937508644803 3.492332535045869
Rh 2.5959871000225228 7.109516871760669 3.8285820617556783
Rh 2.256279937405866 2.4183422057816393 6.500996419107178
Rh 2.8123640989188097 4.847332723836618 2.7587358574555854
Rh 1.6519793606337878 4.646310279725235 5.158726735490735
Rh 2.6983077749434727 2.6049871743275217 3.9740244358313137
