45
Energy = -267.33960517 eV
Rh 7.421284325224749 6.43685055928112 5.534466755744982
Rh 9.102606062331352 7.314956144225638 2.544812055425823
Rh 3.574461056294473 7.170036774104962 9.102121118279438
Rh 7.819299917083413 6.859752414997671 8.898659171415002
Rh 8.743108772102017 2.698062147142381 7.389092171815061
Rh 4.482428042256185 2.486477057164806 4.5486034623423315
Rh 9.503081474113591 6.8169132616071835 6.966181235842846
Rh 6.40455901772586 9.31627982887677 3.190122911871264
Rh 4.105078689679875 9.097415159273305 7.403557465626692
Rh 2.744495865641212 7.252471046269131 4.927091781804796
Rh 3.127594101984523 4.718802411095162 4.479475647301195
Rh 6.780283139558592 6.829174082184331 2.9566886237271808
Rh 5.1701026761932765 7.588895371114904 4.8327214078209035
Rh 6.945451944404686 1.1940397933891211 8.376804289031469
Rh 5.221351243528942 8.165980725832581 1.329567519244634
Rh 7.010494196872011 4.7407790853122265 7.645339151421293
Rh 8.990623238758293 8.358852880017343 4.906614346242134
Rh 3.8120560085783595 9.096591360630404 3.266307606109602
Rh 5.8474613824747195 8.513418444571474 9.218473196830606
Rh 4.078045963052631 6.494418012296177 2.804136554346458
Rh 5.312567007760722 3.0688681144355514 8.799348107710056
Rh 7.792572381446554 5.380039779986075 10.953971544266043
Rh 3.379106925595278 4.555998237068348 9.224355701293115
Rh 9.40933745990065 4.886159734519133 8.754122474993247
Rh 2.581304185117671 9.759358227875326 5.436689368294748
Rh 6.29992377503389 2.4852684569159553 6.335591633940587
Rh 8.755389187856279 9.812742667089339 2.871634273240826
Rh 5.574261138800082 5.807317417874112 9.734422355462556
Rh 7.571757146355431 8.580632516343565 7.046271291147175
Rh 8.104046464698554 4.686557362616243 2.820551830400303
Rh 1.9262518344591568 7.910695715800426 7.2178390843878155
Rh 5.586956922474234 4.547900122904711 3.2639484099299896
Rh 7.685356437751195 3.2321489749994354 9.700732114379415
Rh 6.885481193779167 2.4486341113960766 3.7796214231814793
Rh 3.1887048726104656 5.747629991702931 6.972921912229402
Rh 5.314941038274968 4.889826836019313 5.66534666506221
Rh 7.5882707193000885 10.438895373693033 5.209713812183421
Rh 5.100941442490865 10.078059313128165 5.275089102458824
Rh 5.713730867435061 3.778702771152123 11.198846474514625
Rh 6.176112581429962 10.569584550113678 7.4875189950693475
Rh 5.494958354420694 6.944845242941674 7.262172360135715
Rh 3.7404276726823817 3.2925401800596736 6.9011672261031585
Rh 10.386434666604446 4.454789296681565 6.4271460824718964
Rh 9.739898446233955 5.913461738692189 4.494300814894243
Rh 8.208917048934152 3.9806935959092806 5.247357359310892
