45
Energy = -265.72593966 eV
Rh 7.675970061358192 9.65260088515523 6.451982295393923
Rh 9.462138213785888 7.782557446679811 6.615933339849449
Rh 9.335087696767289 9.508250033917884 8.502545719075616
Rh 7.087237782948048 7.418980777402658 2.0458155050027007
Rh 7.964594393407127 7.975736675345488 4.450187837138139
Rh 10.507159431254237 5.487387292273551 7.421049320839643
Rh 7.2264754900308 10.859356075283927 8.743241979083578
Rh 8.981074536829624 5.801239417909512 2.537618029370132
Rh 5.345142532867392 8.634620984294221 3.650106039425664
Rh 9.780607366317723 5.952908777703939 4.953321375465233
Rh 5.295122861459184 10.140523013873793 7.261842067708769
Rh 7.20399532740426 7.821916695449939 8.201644175690015
Rh 7.517336279343538 8.871026107141672 10.43118292674666
Rh 6.526798405173008 4.825330999627423 1.953519693454338
Rh 9.492972743817745 7.0620533436613755 9.110431091742063
Rh 5.693626422133288 7.829912022336611 6.029923724833256
Rh 10.418990546380188 3.884308892863376 3.628561745856157
Rh 7.5816872273909715 6.091307233486947 6.2978636578349345
Rh 4.606514088425037 6.592661296246449 2.0835716371063167
Rh 6.152651387923579 6.187611954632076 4.088025608114341
Rh 5.198732795833331 9.899569083499223 9.871991749459728
Rh 8.49115642174188 3.248804305857764 1.9937885617891085
Rh 3.2597010010698635 8.795626219030613 6.209288986399015
Rh 8.182102069415741 4.64538807360692 8.137568590235707
Rh 3.006200912311174 10.217984949094923 8.424126256679108
Rh 4.51818052125911 7.982167654763132 8.296585204410833
Rh 7.854656973441295 4.363210351730292 4.285295506236641
Rh 8.805617914500184 1.884118410955501 4.267356044567269
Rh 3.6976194040144432 6.771621617111336 4.560289364976381
Rh 7.480816639428931 6.13324517883993 10.19825840751272
Rh 5.600697527028801 5.54873913786944 8.606881536716394
Rh 9.491155675456802 3.560960963352863 6.1201783361484745
Rh 6.373033968191765 2.5758521392821128 3.3879913587541703
Rh 5.28758309308752 4.811169031300337 6.08748596275558
Rh 5.354803921802671 7.384435685842005 10.580974248578526
Rh 1.8068256718073856 7.93674063907329 8.272058564608965
Rh 3.066752006742434 8.58869725465383 10.465983424449256
Rh 4.462149318467171 4.348891497661051 3.4933712342179675
Rh 3.155036959028879 6.263458790520362 6.971672242224118
Rh 6.039621229633694 3.1373339361571904 7.9991494065499005
Rh 7.0550406350485595 2.5898601386039726 5.914145857510217
Rh 3.231222707361047 6.131166631194169 9.575303558953532
Rh 2.756036919593859 4.350381985646237 5.4086336656870735
Rh 3.5935454273580154 3.9475004919241568 7.929989111639799
Rh 4.545753731002595 2.4929858008109385 5.274715873412188
