41
Energy = -241.4041031 eV
Rh 3.880968188882652 6.5855876887166875 2.399207000060964
Rh 2.9923959440130954 7.348679811610413 4.694147533867265
Rh 6.67072981504178 8.187231388117098 1.977358078108861
Rh 5.382758651479716 4.491970916864462 2.554564972394186
Rh 7.657075292576276 5.756896290391046 2.159864383086808
Rh 4.695504039943858 8.875618334178707 3.348825645856702
Rh 3.351901522172776 4.810621327327745 4.257153222430714
Rh 2.976028107878568 9.898020707723097 4.923037487625284
Rh 5.471388228502485 10.580751852045493 5.148358023517069
Rh 2.4529708578364833 5.6690800241540815 6.640503276182281
Rh 6.001568820148972 6.559862294648688 3.82599471600504
Rh 2.0719553779931603 8.320055888240988 6.8216701876691825
Rh 9.030691328533976 7.75758498988671 2.9479536327539764
Rh 5.553540535421031 3.3777603106441174 4.774231189367414
Rh 3.5608002164440204 3.3071084479321575 6.408918561540971
Rh 7.680578199078484 3.4620996939946234 3.344548287780137
Rh 4.957406723159877 5.550218022972788 6.0609532342741
Rh 7.265266272753604 8.77577473738429 4.473868567938292
Rh 4.132957607972805 9.880649220036734 7.240816496244645
Rh 9.567784263221046 5.336266053067528 3.743827522112692
Rh 5.145526083435801 8.05024007103857 5.774647015365207
Rh 8.954199206142542 7.1644848432214205 5.444445720638933
Rh 6.511657234640571 4.119456190410475 7.55305219815612
Rh 4.0689450751392 7.270918483273913 7.918075225765249
Rh 5.6218575153864085 1.7737360351944418 6.70539030485764
Rh 7.467013149204974 5.1329971589096335 5.323370956329036
Rh 6.796418163950654 9.50712850592815 7.032430202630065
Rh 4.356288291127829 2.2077281911035453 8.801939869898193
Rh 9.04180660146051 8.718924474749612 7.393312923639531
Rh 6.958939130227752 6.738155534552427 7.362676406144517
Rh 7.906971619211317 2.623138448467613 5.862872048621285
Rh 4.127363166688098 4.733616537576145 8.497300112050903
Rh 9.82380125011324 4.368387574543406 6.011615537470182
Rh 5.662609035567007 6.487097864899654 9.703830960146407
Rh 7.040988676687688 1.951152873361948 8.825956493699787
Rh 5.840681385152053 3.8727418803007825 10.128068283224962
Rh 9.433805309059244 6.143381628632657 7.784115365206007
Rh 5.562431089484538 8.968012519541197 9.158833339617814
Rh 8.969253755050591 3.472615462678558 8.21474082357467
Rh 7.958722715077979 7.732872963434636 9.513797082069292
Rh 7.855245577014786 5.2180656554765905 9.597181509790428
