41
Energy = -242.1239933 eV
Rh 4.285422903404328 9.305908565300664 4.291849238148705
Rh 3.104075864320159 5.169141633722151 3.4967135516700485
Rh 3.579019877210206 2.910994125144303 2.5492145740589573
Rh 4.972726089721389 6.986817082174129 3.458374655362455
Rh 2.549101667904798 7.480261673336242 4.4555427304165445
Rh 5.520727590105259 4.652332136605913 2.5223053467955294
Rh 7.463073893148758 6.4758567976310015 2.798391011400564
Rh 6.7389965468705375 8.803570339931536 3.865638895570084
Rh 9.196444471275376 8.43014867112913 3.5154116868806025
Rh 5.794348994517492 9.734660720626664 6.207751276055795
Rh 3.259095964945787 3.1344080411170663 5.091711590412149
Rh 4.702310953697247 7.363704778474497 6.0886952032551545
Rh 2.765570043218299 5.509910968296115 6.110567549887844
Rh 2.350362212097791 7.89110941943936 7.023133929152558
Rh 7.525854291266626 4.197420863954527 4.135563251980541
Rh 5.171247813199889 4.884122300894318 5.076285648633592
Rh 5.572700964561976 2.5009270789249074 4.032100012425267
Rh 9.431178948698467 6.066866339399689 4.4570703263892355
Rh 7.136374069694196 6.702925020423778 5.343519759717753
Rh 8.326750500029647 9.077255780425908 5.878987816726387
Rh 10.64633365889113 8.126918796540831 5.577233696918478
Rh 6.773055052039983 7.878372678649045 7.717060713054192
Rh 8.549794254094982 4.531594308830551 6.363087899935636
Rh 7.401998329390348 10.385454587933419 8.000932472660832
Rh 9.684537267729398 9.196496191277014 8.07532318185515
Rh 9.124226473412264 6.830581489386923 7.147974686521352
Rh 4.377979158562708 8.845201793314251 8.253220220476868
Rh 6.460258234001862 2.9253713165638295 6.364049434900021
Rh 6.251594725123738 5.411207187114479 7.399106591884461
Rh 5.762030006848744 10.070333165344476 9.891594952597618
Rh 3.914207851847983 6.2401262797369705 8.335777955758239
Rh 11.530850190788437 7.335140574751395 7.802552987056181
Rh 9.818918641077616 4.894161877013335 8.596766188404656
Rh 7.832900370533105 8.630259461068517 9.92825181717068
Rh 4.188803641615607 3.7780306486248993 7.392412636229374
Rh 9.92406542167911 7.236219627308489 9.713797216638
Rh 5.515866120081061 7.379793759030824 10.055662663540193
Rh 7.636489961820018 3.60524793652389 8.652414139709023
Rh 7.677605530474538 6.0824183389823325 9.514683949098067
Rh 5.43143666581422 4.707351291200522 9.67512249088843
Rh 5.5908195856062015 2.193813003331071 8.686023234651884
