43
Energy = -253.73962058 eV
Rh 9.299383499680065 9.50734835960599 3.179913608730931
Rh 10.269591952372783 8.58138821823986 5.337157316978087
Rh 7.829095587807959 9.389816596148208 5.302495042971189
Rh 6.8103545399599055 10.288669392289346 3.1289022067261425
Rh 9.480712772223953 6.9256657731496185 3.631635897106447
Rh 7.196118377008157 7.1523276674695 4.6829844205503655
Rh 7.519058357409793 7.957365405367635 2.2731949686687303
Rh 8.858080214402944 8.584702965500437 7.492951361052678
Rh 5.357351263310309 9.994902104465964 5.254165316196766
Rh 11.042394899787205 7.009520950526347 7.075609892698529
Rh 5.189165637381564 8.330552491405856 3.29313085735499
Rh 8.162715869949164 5.595269823854317 1.754407838223892
Rh 4.9630741125524676 7.39540771065633 5.888498789578757
Rh 8.04541383766729 4.701942017770254 4.081021803498539
Rh 3.0697777376273074 9.040098578901462 4.533871769680053
Rh 10.406602961961964 5.1369792074799685 5.154982792872439
Rh 6.297637437975582 9.008848923810362 7.4442173596834555
Rh 5.911626094207472 5.792310987390392 2.9671742281448794
Rh 7.446939535761774 8.139962133857065 9.605020824176318
Rh 8.055096431034286 4.5646579715745546 8.615753418972579
Rh 8.581335366064241 3.5847654235741313 6.294719536126863
Rh 2.086121593801461 3.172534217347357 7.84270900743256
Rh 4.290647147146595 2.4105908885313543 9.069845721813042
Rh 3.213897346420676 4.678831763677991 9.631234917213794
Rh 1.5408170958276053 5.676142588226622 7.923503369660881
Rh 4.2905135949750965 3.044665543293816 6.610805853741806
Rh 4.112735065653451 5.447231965001312 7.384253312566077
Rh 2.435820319814142 4.714932788578301 5.637416258756387
Rh 5.72424239681183 4.399581870007322 9.528676397267544
Rh 5.149712147260302 6.82182655720251 10.16364709374855
Rh 6.5668177348088435 2.7470375226424144 7.7067454240097
Rh 2.33665179085192 7.265553214412249 6.159020326548989
Rh 4.495090752155608 4.119425388917119 4.269064117536627
Rh 3.673781079694546 9.33932896429124 7.078087732671805
Rh 6.22001805979234 5.00606856750198 5.921742406537248
Rh 3.3146725548360845 7.434107927430717 8.689935580424677
Rh 6.4905425296330135 2.6065011241649905 5.12638727524186
Rh 6.416310539255262 6.529554217395377 7.958862586164756
Rh 3.5829783001800677 6.443317804188631 3.9674370110243022
Rh 7.519973855288293 5.848117558871903 10.733927433529772
Rh 9.479419266465882 6.609016240181195 9.125173174294527
Rh 10.521086311747618 4.590481283955901 7.701964188284555
Rh 8.605374699932794 6.271399969641732 6.636502230036897
