47
Energy = -279.60868065 eV
Rh 1.4157185602630078 9.151074078597695 3.861659399371648
Rh 2.3702919146013026 6.93725240645589 2.8162854885735498
Rh 0.4151125776432907 6.872316063262581 4.583879919762511
Rh 3.6635181821393252 9.245083165519448 2.7384333007483566
Rh 1.959223784677629 8.1752135580252 6.102344572489052
Rh 3.7012331116182824 10.046179757701339 5.254558787572578
Rh 2.384824157683858 5.272670701372275 4.648127183293901
Rh 5.101084485752781 6.976285365614862 2.520886370006545
Rh 3.8930497223791103 7.527757669365689 4.707149893354588
Rh 1.0797318934474336 5.881656308882615 6.931516980149949
Rh 4.187455058124743 4.550937318660509 2.873938455359475
Rh 5.789360470772937 9.208773298819473 3.9481702587183065
Rh 2.5489887404049734 7.3488764561913875 8.462304229662545
Rh 2.1768015916781427 3.6510593066094934 6.658313035800927
Rh 3.7818784241014693 5.816297501134006 6.73792063562545
Rh 7.466831913038504 7.257649119682544 3.73674555405069
Rh 6.787364376397623 4.975266586311112 2.6297061313015937
Rh 4.46881730075423 8.370089158607744 7.143920635614185
Rh 5.644867168226615 5.719201641780848 4.7509493525065905
Rh 8.139658026507636 9.539388868545396 4.671329117412061
Rh 4.292396424552225 3.584686801939718 5.238983199964063
Rh 2.8876081357618815 4.774448347045473 8.896925808320887
Rh 6.29141231820441 9.92968910680538 6.473842855988071
Rh 4.362740001604767 2.966053809843457 7.722644757965218
Rh 4.886198048645859 6.541598845937662 9.007958613888135
Rh 6.837533168307025 7.4271660555211625 6.250961552091839
Rh 5.877163521233758 2.560815168556759 3.5621842375663197
Rh 8.732862171303465 9.020472541969195 7.115716556563304
Rh 6.647594429616411 8.33718453535109 8.606281749258674
Rh 9.618663908866806 7.495823718266601 5.172110963235379
Rh 9.022022630787193 5.18152678272048 3.985626422571021
Rh 6.097171134116261 4.993515156527568 7.233630595159573
Rh 8.402461757069922 2.8451898468119765 3.181345146464593
Rh 5.2424067866407995 1.347399906927241 5.886399230103437
Rh 7.032656473648097 6.30435689425573 10.248913436825378
Rh 7.2427378117089365 3.7929015176812686 5.287652915322672
Rh 8.617563880282896 5.5983489041907335 6.501038938151898
Rh 5.673881396924605 4.118525559849889 9.554565322736329
Rh 8.842160616437432 6.959797861549145 8.592329764304775
Rh 10.989918595571282 7.451510426044915 7.351425185440456
Rh 7.810510955828394 1.3521183371141356 5.296074146874074
Rh 11.052218577038486 5.465486608522985 5.681821388881736
Rh 10.441182899441054 3.1489005872266738 4.681157160812015
Rh 6.87107536140504 2.4361721846000792 7.486965543977204
Rh 8.092144028058085 4.392450539971542 8.829200345236996
Rh 9.24066600555571 3.109634989406042 6.808720656257421
Rh 10.533256178264736 5.007958383405708 8.189462680476547
