45
Energy = -266.25372715 eV
Rh 8.266634794140012 10.265094569801695 7.795028849418613
Rh 10.588762685443118 9.449648604698329 7.402911327442278
Rh 7.254504570065605 10.079184840565537 10.113781183671302
Rh 11.103826209486526 7.822123945457856 5.271032014078541
Rh 9.22123202086275 8.46015496402974 9.459702217870628
Rh 8.826800521798546 8.835200168616195 5.764556243643308
Rh 6.102459578230371 11.361280232585845 8.137513467268967
Rh 10.082877070161834 6.9685807137566 7.47838910545062
Rh 6.099773240500141 9.64991432145004 6.133976498387289
Rh 7.41302133273635 7.818370963979276 7.715784166319507
Rh 7.516295151471956 9.323750253746761 3.717923352947893
Rh 9.074299719296286 6.996180594333196 3.9724800813475833
Rh 9.759754932735797 4.525891391057417 4.645928337195009
Rh 8.687475782973282 5.934846183807969 9.35975543035749
Rh 8.223745262706037 5.599816308491782 6.330514075811399
Rh 5.27068896759494 8.97607040957103 8.837998097684128
Rh 6.899859222277298 7.560073404952834 10.284448053668811
Rh 11.506266011842001 5.479735598020326 5.94178266140445
Rh 3.8545797372137716 10.474380410411063 7.399615915237641
Rh 9.868077860508988 4.319875266674045 7.704987931108953
Rh 7.883912196123592 3.5271066730877454 9.217760929612735
Rh 6.698886381130102 7.302608794816197 5.11792183186281
Rh 5.05748215468577 8.703699453245603 3.678025485711504
Rh 6.347195002727436 5.086815856154203 10.854125697319011
Rh 6.8741197093949165 7.161573076759599 2.5127030121536635
Rh 6.393199494543373 5.480780768676691 8.365748140441061
Rh 3.485238055327387 8.88937840725878 5.662177254446354
Rh 4.953944744552479 7.165303477820559 6.923521994416802
Rh 2.9030545190612425 8.02510224751963 8.127255147615472
Rh 7.402250383705678 5.040277144527562 3.8331184207049587
Rh 4.479614022439027 6.6464263361100215 9.719705321060143
Rh 7.6661694892470456 3.1903480976426897 6.724053891804193
Rh 4.4473245945747495 5.941480060932134 4.037847764340635
Rh 5.7370073423049215 4.781719441254373 5.96453960477135
Rh 5.468225704498135 3.102034992045693 8.080413325504413
Rh 6.039700470430211 2.4950643951375873 10.525683222687793
Rh 4.413973328949788 7.130129364433722 1.7465588592355732
Rh 7.9732698681541185 2.6929486164178273 4.416440474730614
Rh 4.165604845490224 4.078016914626351 10.063086379113287
Rh 2.7011810293437324 7.721590783971869 3.609369769938897
Rh 5.6429016858449685 4.934741175912955 1.9945556686694932
Rh 2.6626999301843854 6.459098065216381 5.927035053694601
Rh 3.730671164629699 5.040799046198418 7.764567890333864
Rh 5.454476146950148 3.3016668986471354 3.9413323291639273
Rh 3.3587261355842424 4.047863586210553 5.366236866542479
