44
Energy = -261.91552313 eV
Rh 3.3286203215077257 6.172892910203334 8.312837807880417
Rh 2.6146780084066474 4.17372195116108 6.760951507495409
Rh 1.1660802919269477 6.188342114874549 6.955775251268721
Rh 2.2794593541145947 5.958811305144464 4.683584233517637
Rh 2.4219874303630067 3.435695212489496 4.309789076839115
Rh 4.190172119570715 8.081979975551814 9.912334176753228
Rh 4.8686719402734555 3.9770095157184286 7.993137853521605
Rh 4.6876405265762076 3.1777716143787123 5.504102202947601
Rh 5.599088100257161 5.92571344615626 9.576669687468874
Rh 3.009700135373464 7.846079163321387 6.316357707767518
Rh 4.576652319639923 5.765597109908585 6.009629903752607
Rh 6.942125905607398 2.94795061483443 6.78820432156027
Rh 5.403347896996749 7.707153804669598 7.629472291754516
Rh 4.274356087570864 7.525640674139271 4.002977498065764
Rh 4.355424581682094 4.949503189797785 3.497917521558998
Rh 7.148708450591413 3.86996308201215 9.210607899252377
Rh 4.576083733177118 2.4401735325910616 3.058214137005727
Rh 3.7828773044044453 9.710535815181222 7.925490378675027
Rh 6.51379675808696 7.861937319341666 10.994640389218516
Rh 9.228407760975603 3.005444089062229 7.9910401343721436
Rh 6.940857083334376 5.565941516994438 7.3001425370863045
Rh 5.048771539901531 9.43063252604832 5.632935902142779
Rh 7.964417902064296 5.75761395149001 10.68815792098573
Rh 6.145493859023854 9.649140453421209 9.171971715365753
Rh 6.717177511426299 4.751749506473439 4.780835478882501
Rh 5.76560210645355 11.264243861258535 7.221507856547548
Rh 9.324293094078785 5.48189669548513 8.48330180091636
Rh 6.251791842105477 9.094825727151115 3.30838764056669
Rh 6.358675203892979 6.542192227048581 2.790359058877834
Rh 6.47437237674383 3.9516507598143433 2.32406853719712
Rh 6.63985153984252 7.348758077607709 5.305551186439735
Rh 6.796788371839429 2.196402030522974 4.2832574549714755
Rh 9.820338180931847 7.270251642662775 10.111381970412031
Rh 7.771293380298318 7.658381789910623 8.77167328087367
Rh 9.06775454823248 4.6597526158603655 6.033382356069267
Rh 9.010462140785311 7.252515864118685 6.538639767688988
Rh 7.46091962071738 9.357289696009428 6.872951810308037
Rh 8.754332094683873 6.356395005484406 4.07955258244081
Rh 7.030420323376709 10.924113245277109 4.894864786077282
Rh 8.420848576649243 5.470557618836358 1.7046064544146715
Rh 8.326865780771987 8.099286278441285 2.1930974299830317
Rh 8.819577244891638 3.779852781021745 3.5671529958848645
Rh 9.020058786891205 2.146930344957801 5.504185570812451
Rh 8.613036190979233 8.926561401651327 4.5801669897110395
