43
Energy = -253.46281577 eV
Rh 7.358211133469714 1.5250935459301862 4.083031447679437
Rh 8.901680266955996 3.2982749072178934 4.916885038608567
Rh 8.817350329683169 5.384833645072564 3.379610716928838
Rh 10.78942935411977 4.827158041120332 5.073175235669679
Rh 6.333176147895067 5.920805513357451 2.292580757194723
Rh 6.683972635233497 3.915649081034007 3.715738508185546
Rh 5.807192183610864 0.37844832285251157 5.778976624269747
Rh 6.896294344916981 2.726890748171792 6.287940054315798
Rh 9.570134807838206 6.984264025172036 5.2713049218320664
Rh 7.839396864196792 3.206261157810078 8.537609399526605
Rh 7.638867264020063 7.657792307174291 3.681891398008884
Rh 4.8343284523995536 2.280315043146914 4.166536108382562
Rh 7.351407163183735 5.690986881186248 5.5332601400115
Rh 4.181226753815914 4.678201377321875 3.291836283908712
Rh 8.734607984069868 9.398255146376178 5.4308568196786
Rh 5.212158609839567 6.731398678932287 4.516057012614586
Rh 5.468657556593862 8.394707487622025 2.5123768642039517
Rh 9.100380325601753 4.927155601047498 7.074932556509034
Rh 4.235170063563245 2.139741572249242 6.587823866029968
Rh 5.009429725458127 4.475296739490229 5.767232356238155
Rh 5.957157668552039 1.465055675545153 8.297565134444739
Rh 7.2129699887980285 10.102976578793035 3.316309827588374
Rh 3.7927873939580623 6.624082671325607 1.7696853008559887
Rh 5.41178313158256 4.069145575950267 8.496064421501204
Rh 8.21274319140194 7.5037014762507415 7.34334149666512
Rh 2.937008568426425 4.161271263467167 7.31535956025189
Rh 3.562530792334241 2.323635748083168 9.012072961703925
Rh 6.398542428785223 8.600698396398398 5.793757931119764
Rh 6.884354047113202 11.338074395443424 5.515794274613324
Rh 7.491109450537037 5.6554612552098895 8.945175324372798
Rh 5.625211303758183 6.497356903787626 7.302206590381767
Rh 3.1829130405143324 8.150626147724044 3.711776734758319
Rh 2.9644793683112867 5.992130397678578 5.432540360021179
Rh 3.2167905928496916 4.765068035131181 9.763385370539968
Rh 4.867818002941049 10.067620617513155 4.432657653526697
Rh 7.497230585076141 9.972559188270248 7.671521375697991
Rh 3.848027365485465 8.319684326805108 6.181285320969385
Rh 7.046455434948564 8.155696429658416 9.526097581305695
Rh 3.1488563342392455 6.629323870044985 7.994777203809177
Rh 5.172500912699138 6.346305651633931 9.850742575231502
Rh 5.044992567944223 10.508927221944784 7.064028819561628
Rh 4.683183567520914 8.55484001210503 8.655310214543274
Rh 5.87363998427632 10.539584995777071 9.508561756904408
