42
Energy = -247.85873029 eV
Rh 8.507157882947554 6.598369577619485 4.861404090682572
Rh 9.910092871312612 8.590045994077599 5.701904561133898
Rh 10.167202871090597 6.232896755215704 6.780422091467386
Rh 9.101032352129748 4.123156058848775 5.706177197293178
Rh 10.778564364965018 3.9195398541655218 7.566799276633838
Rh 8.503925548180353 8.799060910230999 3.5074365032797425
Rh 7.814474331815784 4.481372045947219 3.595167298041514
Rh 10.21175682007297 8.232608888722607 8.389327424352818
Rh 10.71514323663464 5.902160398326382 9.282496640001874
Rh 7.305473023442505 6.716903904418016 2.579659981693342
Rh 6.048599219688976 6.893075555057113 5.488531880602672
Rh 8.818160903906909 4.308192940424448 9.041609233050844
Rh 9.389222451319146 10.47652781135726 7.488049177658397
Rh 7.757147296013828 10.136989565930767 5.531053897504039
Rh 6.744987375310202 8.918034535157982 1.5867487981971744
Rh 8.338878876932942 2.4703081789593795 7.37345370607311
Rh 10.226932310660496 7.793441075968854 10.882436778819768
Rh 7.881120750417549 8.261547558219041 7.2669512479645455
Rh 6.552213982075907 3.6687522908769346 5.792018957512647
Rh 7.591164739788539 5.630316912366476 7.222066166951434
Rh 5.478880683647619 5.310996594607724 3.7489042284121163
Rh 8.275182292990062 6.869331474186872 9.531814778910043
Rh 6.029888608078797 9.008931755756716 4.035197934530175
Rh 4.829662400050723 7.452308839957073 2.472826332530735
Rh 9.554689971976595 10.098702680526856 10.003784310565864
Rh 3.0676399102657164 5.918730050134876 3.502488257421863
Rh 4.026456369922806 3.8163917113962946 5.039915632484858
Rh 6.390815325863827 3.7391795955140403 8.52918014983078
Rh 6.818078015827758 10.944146536409098 7.800411466957121
Rh 5.707694236757272 7.228779567116741 8.119648933302203
Rh 7.016712783176209 5.046913230750268 10.724520056856694
Rh 3.820744808081499 7.932652946441912 4.944820788236101
Rh 5.461967857391601 9.278104106127872 6.506429088862237
Rh 7.3667500302961395 9.351620773169222 9.653000711916892
Rh 4.768303633279769 5.045473141104941 7.089511495879801
Rh 2.743806428313352 5.889253674560899 5.960116113570898
Rh 4.912064408143714 9.477534352765392 9.107697441586954
Rh 3.3942335964878536 7.936796429880316 7.52456497001013
Rh 4.804251685978674 5.460051668781049 9.630811182601002
Rh 5.976336331781971 7.5270053807716595 10.661189300369676
Rh 2.603264628436001 5.713280519002181 8.458466918139196
Rh 3.3760578830618955 7.587247257661754 10.097718096625675
