44
Energy = -260.12169805 eV
Rh 4.08149445829666 8.050379844953682 9.151332797728646
Rh 5.960174925981792 10.504022288473386 5.683355774775995
Rh 1.8362165978454859 7.078623394780865 5.690740079218347
Rh 3.854519772258979 8.91720282361893 6.165464397755173
Rh 4.930229233410479 9.4159899198205 3.7028289090813105
Rh 3.2382842410519137 5.926946660195882 7.997490615113352
Rh 5.806193088215263 9.39211203832317 7.908860984779368
Rh 8.191820013576253 9.476305738384198 6.457519050469348
Rh 2.046294809451312 8.243712320744931 7.813825657830658
Rh 6.336489524617041 8.475758322947161 10.226368101068104
Rh 4.217791108737875 6.297434624103096 5.807878112842382
Rh 1.847342635034582 5.531289109110118 3.6398400247723566
Rh 6.128413466640926 7.198574812459014 3.1583511226888206
Rh 7.55461560683893 9.211597493787032 3.9614172808461703
Rh 5.545987723791682 6.024225225878875 9.115607442789498
Rh 5.480021872293042 4.922937528359832 4.044265581705764
Rh 6.218114139955417 7.870138431849349 5.676632659591111
Rh 8.711343099659977 8.541934082435152 11.235657704024076
Rh 2.3086470939245003 4.518296090430556 5.936850197240036
Rh 4.595585162974379 3.7827662341950195 8.671388360970342
Rh 3.520712340061252 7.435602463849605 3.7031188713008376
Rh 7.468017603855187 7.480774708821899 8.102210585719536
Rh 8.237442711532452 9.74790264478092 9.007256799319569
Rh 3.432435169574636 3.5367342862068267 3.912262311366603
Rh 6.489822473540363 5.485571669245215 6.7291057261316976
Rh 4.018732360706754 5.515005820534189 2.18436579562467
Rh 8.554938437704392 6.760514981564026 5.910326073906929
Rh 8.823051128051173 7.376344838027407 2.740892435997135
Rh 9.914256077943453 8.541586343554592 4.712444750907521
Rh 7.88392355508864 6.377637183322495 10.445983532594408
Rh 4.72583932437194 3.616850886850289 6.1975901607340775
Rh 6.923915262184668 4.0498368791240855 9.86405891518033
Rh 10.404056733008456 9.55518469892884 7.545053472148697
Rh 7.920841693155632 5.392125329778701 3.883326360459142
Rh 9.786466187618613 7.638705060150019 9.10513704265867
Rh 6.973897615432422 3.1842317422210478 7.502449073903198
Rh 10.824345033904816 7.260696812236845 6.754463339668158
Rh 9.321800104200799 4.3706200501356784 10.717980823523108
Rh 6.94093513745116 3.1068450078366827 4.923689357360833
Rh 10.465912689286643 5.888974181398792 4.563183220180733
Rh 8.753374765719037 4.987339675829511 8.298856186660643
Rh 8.95027537021453 4.160118614638604 5.8996895334471935
Rh 11.023685719112713 4.83055978934814 7.088182646927757
Rh 11.04976873360842 5.618014148648974 9.460722930871546
