47
Energy = -281.04459938 eV
Rh 9.873615588267931 8.510493097764142 6.596656068750353
Rh 7.959512161967403 7.379563701058116 2.656754720312874
Rh 9.901785090329565 6.99652333773956 4.539818932114126
Rh 8.782035577208552 8.329145985476991 9.123835713171026
Rh 5.561972954482833 6.855043441679391 1.8664620059890942
Rh 5.933730637693071 6.0481192930457 8.295161493046262
Rh 5.518108330492299 10.886410083981675 7.8721237888969045
Rh 5.174164631077226 7.28399608512045 4.2905669184118125
Rh 5.31601873404168 3.4433469287894822 8.408214492702646
Rh 10.587578462917872 5.854633951615475 6.752337723912183
Rh 6.253357974465071 9.232316357580544 3.080355507840707
Rh 2.2027624603976528 7.6615281713998655 5.462005990813028
Rh 7.81107413622865 9.853693528510208 7.284859515667578
Rh 2.5490522527151604 7.555832599650266 8.220095232819274
Rh 9.358128757075795 4.4926244495519585 5.009343424172662
Rh 9.450658255855295 3.671014741218846 7.508878267480744
Rh 5.528304394032222 2.2932930698488208 6.09510739223415
Rh 4.12570585055985 6.412260417967565 6.539143398648658
Rh 3.926531258544767 9.167033877258866 6.763090665684124
Rh 3.6559227001674155 2.738833784011076 4.31937837347603
Rh 3.4290533757296275 5.164107275848369 8.852785108494137
Rh 7.155808561059233 4.380427941968657 6.694013606440985
Rh 8.576715972270476 3.010379756602495 3.113054322216755
Rh 5.343949966874052 4.772282749231825 10.595406424276401
Rh 3.0867875914904674 7.0579110687819915 2.938174048037735
Rh 2.7806745191399243 5.238065326057192 4.6075721264994325
Rh 5.863348140550158 10.239405500914993 5.395342367688634
Rh 1.6213535005104132 5.515309134140225 6.99141661613828
Rh 8.306781214442971 6.660424442528905 7.336228814579669
Rh 7.270948767020026 6.651949804004976 10.36204386005848
Rh 7.008223819000195 4.959350271096552 2.727344236358639
Rh 6.2763543323786175 8.699426183176989 9.03961035465982
Rh 7.372471762040211 1.9938731945069814 7.930100767151335
Rh 8.033022505107576 8.832810694914016 4.860826637265004
Rh 9.608730374334781 5.757174730246771 9.266679602977563
Rh 9.566355279687773 5.357439190106564 2.5730542907700737
Rh 3.4937328311785816 3.8084861590807244 6.641815631252342
Rh 4.536600872609166 7.157700297602219 10.149854973782107
Rh 5.34337323804552 4.739902237240687 4.941896061434618
Rh 6.2176264742065666 7.978082085009287 6.554866661989601
Rh 8.086883760895763 2.30666881920547 5.496250956619007
Rh 3.8687836644195417 9.442602095304345 9.280259792021928
Rh 7.4690273576380415 6.262871240772037 4.915268287568254
Rh 7.607850241758372 4.2740168239115 9.284551996557186
Rh 4.392986534659171 4.681923363410094 2.595238221361788
Rh 6.1005974777240075 2.7020973662146734 3.565869770322282
Rh 3.7457662093538886 9.323433897497758 4.240113389980129
