41
Energy = -240.97285853 eV
Rh 10.167803806998565 3.094487785649006 4.845529980790335
Rh 10.566741432848957 5.576935578940234 4.312144802222907
Rh 8.80707178380352 4.09780509345784 2.977200430465933
Rh 10.337520138929703 5.35690288633674 6.917240598840607
Rh 8.861825306361935 3.008980133932554 7.013381973258496
Rh 7.506923166691843 5.284165938694822 1.1895257074910743
Rh 7.5048263438779985 2.6746308128580027 4.829260311511093
Rh 8.50808209847363 6.7372105703338026 3.2056247677505367
Rh 9.267897727431313 7.348483766033208 5.679781108155188
Rh 6.45722721544989 3.1025175214224445 2.40906377966726
Rh 8.250110128174153 5.011941833725147 5.381841660663018
Rh 8.355525136647612 4.945238429551444 8.499057709915908
Rh 9.078997385393777 7.377105711176177 8.289421235127305
Rh 6.369283861364616 5.291379549163745 3.6010208607905323
Rh 4.998939791991574 5.074891766840573 1.3680361014462052
Rh 6.451408269293274 3.8240748895566994 6.9506451959494004
Rh 6.082054106805785 7.444202543346653 2.314185028011427
Rh 5.9993898890941315 10.100781200462617 5.770863260550208
Rh 7.013306739172976 6.582181526888056 7.006577773992561
Rh 6.8444485785591285 8.902722310340948 8.053924441236749
Rh 6.87910503579507 7.8981486522220345 4.766711503330111
Rh 3.4755805504446613 3.734718292274623 2.7922468631119415
Rh 6.936810948468467 6.738804906165581 9.619772763580272
Rh 4.6051582232301165 10.218403356237612 8.024067129941807
Rh 3.86100904285731 6.222628033864309 3.339334993185822
Rh 6.119078713353953 4.20982228381707 9.51103094293376
Rh 3.9473562533458892 3.6538106469097618 7.154097254270671
Rh 4.9708040287172635 5.675484651671817 5.597399103118765
Rh 4.5444998217991035 8.604217632805025 4.014758229642505
Rh 5.012468567448379 3.2906004269322646 4.68480202937304
Rh 4.797256332902178 5.873794729091649 8.164352914791836
Rh 3.210922410672074 9.821287271469577 5.809090539239911
Rh 4.875429065217239 8.009312950659938 6.609249180888866
Rh 4.714212819940887 8.101859900452215 9.416390207278674
Rh 2.664597879583307 4.678350077054928 5.162038343564714
Rh 2.7496521066585387 7.27402149426342 5.433417337499201
Rh 4.783714036618506 6.025353567618816 10.858856403905996
Rh 2.3864433559158447 5.785599328965126 7.529209759391593
Rh 3.3048339757784997 4.333612575179874 9.54922174947513
Rh 2.644913633473388 8.390953292059631 7.868072210994771
Rh 2.5203495484716094 6.80580696023666 9.87933370488833
