48
Energy = -284.12150279 eV
Rh 5.232455858029594 7.4473471151829695 6.593144038990064
Rh 7.925485343282548 7.200622561110968 5.9367147364942605
Rh 7.21267502962283 7.590552836372552 8.399558807082263
Rh 2.567203644609072 7.116464988860969 6.802801504728994
Rh 1.6302249095545025 2.932638532034141 5.7847817404659985
Rh 3.862978659866467 2.3989285064644497 7.07899681374659
Rh 2.7830950699896086 5.180975433394991 5.07999507441451
Rh 1.820462881932932 8.303889437472016 2.443353254625579
Rh 0.6841088781166503 1.9005021668491333 3.4568593004881
Rh 3.4501012188403495 3.682867272322182 0.7238700940929013
Rh 1.1098500036287906 7.058922763932057 4.542529366950336
Rh 5.009086723938594 6.466041138757052 9.097940806267458
Rh 8.234218727096598 6.069582868722372 3.5627693679453625
Rh 6.163400540639937 3.95980626755241 0.9511990517684704
Rh 7.347802903307352 5.418833607685594 9.825464608894896
Rh 1.8876381083050926 5.605960813046664 0.12067718534148257
Rh 2.7022979567522873 3.3280759867943437 3.4195941682043762
Rh 4.404663396085006 7.807653485659706 2.1539753415322034
Rh 0.40810257640938463 4.501291863929097 3.981326116736024
Rh 8.230544617792637 3.509808241213054 8.16731940358361
Rh 2.5526302228460267 5.964920419520343 2.4961325087718107
Rh 6.206125150154825 5.682639341987316 4.920648078245416
Rh 6.569806269909165 5.277101918099747 7.412401074738299
Rh 4.042689274329971 5.122123545053378 7.2134766654093365
Rh 7.035361574834289 1.4347904242055982 2.091311191788278
Rh 3.6749383532458815 7.553553828067971 4.532707567934381
Rh 9.117771668123128 5.891733183102234 7.913442886643625
Rh 4.846574419488199 5.14357998246448 2.9405305314024224
Rh 4.912623989765973 1.5943736288092099 0.344756173501555
Rh 4.660723910762009 0.10720710857646921 2.6760262437891473
Rh 8.379582566040062 2.1015981352192887 5.199883143098945
Rh 0.1103755614604473 6.22754228889809 2.136531985385517
Rh 5.330627576455378 3.645304315503701 8.858562807316241
Rh 2.114492622693474 9.52122706278199 3.515976082855102
Rh 6.6505353486579954 6.502102389374687 1.6996796962183545
Rh 4.902137668005092 2.559027156693277 2.6222331529596836
Rh 4.4794789552521 5.946770514311941 0.4531467255163879
Rh 3.5502649254123932 1.2373993513871433 4.844752716015316
Rh 8.394714366773464 4.531347291516843 5.716441963465611
Rh 2.0722378086406144 3.9490036239865627 8.064003162062004
Rh 6.422267487560109 2.5597346030286925 6.753504524842247
Rh 2.5596674859159414 1.4391677251846449 1.6253614117100288
Rh 7.19310954022902 3.6552046763412487 3.4810446362294467
Rh 0.5953029605749363 5.289000017461269 6.4177587971281564
Rh 6.126556430324706 1.2772822275860947 4.515959033584023
Rh 0.9706935473052081 3.696752402302404 1.5521536420865893
Rh 6.2023498391226335 7.928444342117073 4.005461224896388
Rh 4.8315262691632865 3.5566528734610574 5.044804430897671
