40
Energy = -235.98157274 eV
Rh 9.586472143348848 4.3945996744684965 3.0967809349329105
Rh 10.412028550133819 3.0805731921979205 5.253838320226346
Rh 7.129812294718045 4.758212744357741 2.648223851814525
Rh 6.90627171274613 7.0622192856323895 1.6199694596524008
Rh 8.79594527293546 6.810353273585981 3.304300750854727
Rh 9.545528360606907 5.475883528464872 5.44584687703671
Rh 7.908349463171493 3.4091115365875932 4.8117715374892125
Rh 5.362721051758479 3.912627657414585 4.314068057470685
Rh 10.282498413123598 4.234324558937384 7.566674625529635
Rh 5.019482995748562 6.252290278935356 3.1479346606242573
Rh 6.664962796974593 8.318580276401454 3.8132058298873375
Rh 8.699982032437616 2.2213657004201086 6.944984972750022
Rh 6.9741778559876995 5.897246830019539 4.967517459744898
Rh 6.12484952891841 2.5936477102006124 6.626736324579282
Rh 8.562930411615861 7.90720655005607 5.593705504419947
Rh 3.615576155019605 3.0775728356198866 6.050403260044383
Rh 3.283981509550847 5.333656763751333 4.831396891641031
Rh 4.687698615393737 8.59266817800079 2.226813452498297
Rh 9.36692427076876 6.625237695434212 7.861618947589894
Rh 7.773075902138614 4.570576360813334 7.254904474603399
Rh 5.167441226249346 5.032773574613944 6.718750607857275
Rh 1.6589568130620433 4.648731304464858 6.655275287254752
Rh 4.483762360505323 9.709771323312342 4.541669898882907
Rh 0.9091709754493559 6.161534076057246 4.810157181434041
Rh 6.792140382373881 7.079192254339277 7.345583664383695
Rh 8.39750504160395 9.040030005658076 7.898766846102707
Rh 4.873820884349281 7.419109405526624 5.54797822859123
Rh 2.938527114908926 7.738538816298802 3.891746762419284
Rh 4.228776009427584 1.995105771445599 8.234558204215391
Rh 6.520824302572533 9.412784149724837 6.178259574631306
Rh 5.921862726198938 3.83521554396062 8.910445076641432
Rh 7.51349888936472 5.83750838365786 9.52698660748354
Rh 3.1907185865623364 10.04701686830301 6.556598268488058
Rh 8.989390229203732 7.89901020464631 10.044702947324222
Rh 3.121157676566626 6.649765378061612 7.282527221183321
Rh 4.955772984672488 6.291763672600803 9.071347486613904
Rh 6.516374531716361 8.224134879875725 9.662851051350962
Rh 1.758674492343874 8.161542739943592 6.0145078465159845
Rh 4.659965063833555 8.610379708081437 7.869254781261096
Rh 3.3719207208828403 4.359167629077476 8.500851319685804
