41
Energy = -241.03298678 eV
Rh 7.568069378249884 2.2330425020189657 6.796996725864307
Rh 9.916264006479448 2.241642674035558 8.186744797427615
Rh 7.605575478917547 3.8856623115259232 4.789622412180708
Rh 9.790823449337264 3.1775809045567125 5.90923195733548
Rh 5.345070894482523 3.2959909642473737 5.861961918368449
Rh 5.9787708634575365 3.5438158965169673 8.354938914245137
Rh 8.425023963084527 4.219063123416531 8.122080660684611
Rh 6.63892571212937 5.43883108119255 6.6279956241393325
Rh 10.898481635319369 4.732096840104767 7.733344254468377
Rh 3.1408362654020157 4.466500345972198 5.074649890680809
Rh 6.909361855420983 5.6411060235879456 9.670618637996435
Rh 7.799758945827913 6.3738612162824415 3.8241800298323323
Rh 9.781556533015634 5.689880003748296 9.72883527612534
Rh 4.08983477879976 5.120731423539451 7.306960803840547
Rh 5.468113198828514 5.247258552037953 4.161517208343802
Rh 9.244267315917002 5.629695221278824 5.7673318891280605
Rh 10.742801743712894 7.201652086879531 7.10359803227889
Rh 8.40197337033578 6.8565927224429535 7.947529954678406
Rh 9.504225924413541 8.0780137152856 5.007270683751579
Rh 3.3166831670595665 6.686337423842819 3.742720909625246
Rh 9.585819053857158 7.4382577475647125 11.386617973795866
Rh 10.212800265588283 9.713778244815977 6.920866347855116
Rh 4.77926866499464 7.102775700941167 5.7599610836970605
Rh 5.66907870990389 7.086783183031759 2.4645709410526258
Rh 8.173554857331998 10.330660022951585 5.534603136035025
Rh 4.476326556669771 5.052881721464092 9.783294918749181
Rh 2.2255435956766303 8.771832690839972 4.814662594719456
Rh 7.187765950834069 7.927236646960125 5.8780641173211094
Rh 5.788072298247563 7.655101613587285 8.141376826864395
Rh 10.014290608326391 8.486041424956818 9.185726320413968
Rh 7.5786548716435 8.076669722862613 10.14584650654218
Rh 2.2663376521197347 6.608100864389308 6.258512503585094
Rh 7.3017622215678015 8.835886381648619 3.510352984997087
Rh 3.351770529797767 7.134317461678035 8.800915201092138
Rh 6.108407483874679 10.986770705699428 4.2633935656531605
Rh 4.718974071607479 8.842161682382036 3.97556646093204
Rh 3.4913813252612123 8.824727551735403 7.027919137134369
Rh 7.877259508212596 9.438371728502696 7.932751139015984
Rh 5.22904705265076 7.3560283001782025 10.611897263957994
Rh 5.777305137083767 9.92799731665349 6.580465710998734
Rh 3.716581939839528 10.740685089923087 5.400925519872534
