41
Energy = -240.14590959 eV
Rh 10.020034268637486 3.0584765664020197 4.101215319379103
Rh 9.660476374662693 7.204592700832899 6.003099046806093
Rh 9.258038096519092 2.826422453011293 6.487251275094124
Rh 9.683324509320595 5.532680205345766 4.145643928431073
Rh 9.5178470215956 3.4896822693936276 8.815377172884412
Rh 7.971349298433789 1.6351713315098921 4.742096937683059
Rh 7.670504274279909 4.0034829845235524 3.850375472568944
Rh 9.33079226445854 6.001616054768521 8.210368064507106
Rh 5.702547672480321 2.7559051263629644 4.87900340669571
Rh 7.327739063358219 6.523779706715597 3.479764328673222
Rh 6.336767826088198 0.7926567996304529 6.427546419460125
Rh 7.369002141870251 2.179365773368595 8.035177714516099
Rh 8.573186329747498 9.430919008624539 5.535026917960301
Rh 7.091584718442962 7.175319075269557 5.847517601081002
Rh 5.2960668494456 4.98185829100401 3.4624611603864865
Rh 8.05003958236134 8.29877812553752 7.9111471721866735
Rh 9.347771988243958 8.069668102225766 3.5817135920237146
Rh 8.2370170884985 4.941356354704212 6.166467442816559
Rh 8.00311017027486 10.874204324688899 7.442750173768807
Rh 5.594122523324444 5.00399865402148 5.982297130214143
Rh 6.896434573822081 9.127217633121422 3.697421420002771
Rh 4.086626908980665 1.9132473746034597 6.65258060931426
Rh 3.420347932865716 3.7879114673214094 5.083165725652718
Rh 7.236202655676574 4.571656345441183 8.48541580206985
Rh 4.906284977089098 7.46253466316724 3.5907881067928558
Rh 7.261508340126971 6.845370514979293 9.70235815407847
Rh 5.302568746283568 6.229016808168041 8.264422794015564
Rh 4.597517316002905 7.516131079038617 6.136998980649193
Rh 6.231619268255102 9.85396238165609 8.760967777874981
Rh 4.745950272251994 9.841782068482834 2.90018491462186
Rh 4.011487626268142 9.35345256034655 7.705464115983223
Rh 6.078714979478481 9.737191139808498 6.140685188914431
Rh 4.943972351433039 3.662759613481029 8.012662540241527
Rh 2.9606252682676377 6.169004037617537 4.70750242333999
Rh 5.755447486830697 8.482348208470409 10.650413482344513
Rh 2.458162187699378 8.334528574530767 3.630348780007172
Rh 3.1574284450524646 5.309467170595916 7.147617866269997
Rh 3.8011050792596786 7.713864355793747 9.408171232066852
Rh 3.7603477341263964 9.781979949064512 5.1860673260333305
Rh 2.0889040367125733 8.171250300401361 6.246148652553998
Rh 1.7698973242917584 6.867865418786852 8.296789402853815
