40
Energy = -234.59473085 eV
Rh 9.56309521200579 6.049107450419905 6.1282982499990055
Rh 7.924200046140318 6.365666529695187 1.288853060482062
Rh 6.537849085691932 6.481685159741183 5.162643546180478
Rh 2.884683979673687 7.70974239489239 7.572883559947182
Rh 3.8387295902979557 4.102843127220211 10.360395206111283
Rh 7.146279198802055 2.3876254735813784 6.83888544777404
Rh 4.100517330001742 10.509236342783785 5.8404241427276995
Rh 7.816969177827112 7.3306621396308005 9.362239361358144
Rh 9.73465059903145 8.183378086059088 7.666745778765582
Rh 5.8389168310895485 11.408815508170505 4.24266500715477
Rh 7.336854387599682 8.181353028661139 6.96331624281369
Rh 6.086369503104254 2.7672122336691958 4.214528040020586
Rh 4.952682837137838 4.981910000865195 3.758263691390758
Rh 4.455048853771777 8.100362619667827 5.508821412529984
Rh 3.628670973865011 6.471409431182109 9.654618532441182
Rh 9.398301785800498 3.6854757180450495 7.252386693040126
Rh 6.518428127521274 10.646750725411385 6.554504575389001
Rh 3.4016717778891645 4.635974526968861 7.843846337893102
Rh 3.5539688402674368 7.027561429423331 3.3731240176901918
Rh 7.943975523747473 4.155981022126014 5.187717000245674
Rh 8.708766410748401 6.24944833368734 3.794620150162246
Rh 7.2093584399484945 4.5136954692595825 2.719142303868856
Rh 5.167718775855581 6.511030980582828 7.4912390559450985
Rh 7.513578174532981 5.473829024723412 7.49625114556366
Rh 5.465080991712125 4.200697537987056 6.238028518039274
Rh 4.676165407283932 9.335310210341623 3.3381071356748175
Rh 5.992306070619747 7.17941937180022 2.7248291536504192
Rh 3.4585407292208843 5.7948866445948966 5.64346512134935
Rh 5.2932639558358 3.1132567393555326 8.569627916364384
Rh 5.503631633858752 8.034739145998508 10.029417399490605
Rh 9.837911044690832 5.901864458722074 8.707285446807095
Rh 6.862342343237 9.13130458921409 4.555893968049185
Rh 8.23328888629491 8.440198449718176 2.6553156196608843
Rh 7.6356581802273285 3.4164661354638888 9.164594332603517
Rh 4.9578665856954505 9.14176959719066 7.876714495151772
Rh 9.20868980608448 8.371653742328176 5.09919064028484
Rh 6.007753585882139 5.388676586486382 9.731063684214401
Rh 10.062865862985012 3.6096269401613963 9.713043872898043
Rh 7.18640580765993 9.772511777410196 8.992637838182867
Rh 8.384441120784919 5.264358791184694 10.7118697725099
