45
Energy = -266.63668661 eV
Rh 9.037117949356679 10.56304785875564 5.462602889547304
Rh 7.369391252486536 10.677321433105343 3.479411149932901
Rh 9.4193076474082 8.136398095722267 6.2375508609886845
Rh 8.927908322167216 8.568321556844142 3.7423071097832343
Rh 6.538900987119274 11.000839612536865 5.8674522905488855
Rh 9.271756439125372 7.787094140300223 8.872474559600887
Rh 7.831978052403853 9.585078267822325 7.642042581111447
Rh 10.220799540805412 5.378389708959492 9.469316785235565
Rh 9.734925124263194 5.740474525252208 6.992690143860416
Rh 8.784574949386732 3.769558261656571 8.118981707915603
Rh 9.792066951179855 6.217907020729611 4.554145295091517
Rh 6.625472007168674 8.388487212743902 2.622175676339034
Rh 6.995033955241533 8.449756380283544 5.33690192868916
Rh 7.760472865413916 5.905680953902754 9.940257631513107
Rh 5.3053763575765105 9.17971974383882 7.147962514065342
Rh 8.53623437429026 3.8722407582789105 5.550377146645853
Rh 8.61683396324784 3.5785910621791044 10.65850472534865
Rh 8.200709392761029 6.3468006601966875 2.5630252436323504
Rh 7.487438774398063 6.813588873982458 7.467174923326057
Rh 4.986400931110662 9.687735611135503 4.306016807158954
Rh 6.27250054074665 8.067360464548672 9.288277807926649
Rh 6.356071579021417 4.442859682828001 11.472287076939699
Rh 2.378656039991183 6.2108147880509925 4.342459769111296
Rh 3.1798652986914187 6.183945831217954 1.8896730373874802
Rh 3.476858026028192 4.824673098090086 6.110820820353753
Rh 4.358010109285188 4.614582072761498 3.6974265236547144
Rh 3.093101520253113 8.42827729454614 3.110036555001051
Rh 2.941212595836805 5.03599238252295 8.610211231156528
Rh 1.8057180232986016 6.595313745759697 6.912969669091124
Rh 4.082763176199008 3.5238015757450976 10.292834238189586
Rh 4.459263989343443 3.1664785759875906 7.748729956037522
Rh 6.9717795641139055 2.208992493570468 7.197580721721601
Rh 7.244263388764125 5.941583658690389 4.988987244414586
Rh 5.74700024652893 6.041083615141372 1.9072116996776225
Rh 5.009073130833446 6.980246235021869 4.0767263568759216
Rh 5.065065093234751 5.8206508086842925 9.79859580437175
Rh 3.3623709671920716 8.215573676755985 5.718074468317758
Rh 5.924501339837917 3.8231027911702484 5.574097967869158
Rh 6.366002454888288 2.637907655917299 9.726446295925344
Rh 6.912441772935498 4.152564150435764 3.213822476463531
Rh 5.15691046448362 6.535022668030554 6.54935547940506
Rh 4.62841690565102 8.249820167513004 1.1466406601746357
Rh 3.836330763701062 7.501717746152478 8.360657332693552
Rh 6.3660890164139134 4.6237963432986975 8.101854065095893
Rh 8.529202529770918 1.4929751132875877 9.099019145764327
