48
Energy = -285.78603066 eV
Rh 9.987613281003432 4.475782053279685 6.274657152191608
Rh 10.833720884379256 6.745102173635135 5.05449809007621
Rh 10.224188600417252 6.72614323565253 7.549328226574199
Rh 8.743360803813124 2.774594364316868 4.7147764563692744
Rh 8.108993212487219 2.7447810747809362 7.163066415404047
Rh 8.872689709562103 4.762261502992493 8.619549037333769
Rh 10.556450227133201 8.996891457024207 6.271728015332892
Rh 7.015701928300521 3.2062895755931393 9.499654750810597
Rh 9.166550818387629 5.21955356954275 3.852756337740768
Rh 7.525387429447818 4.927400504960944 5.9301046589108495
Rh 8.500455746376646 7.456657517436831 5.764071241668057
Rh 5.879523542769473 1.6093995346161367 7.804567933698774
Rh 5.953398234882142 2.693146198194837 5.518173289645844
Rh 8.67572452801309 8.781373142695799 8.09267663491236
Rh 7.703501212318203 5.839588858824475 1.7158959493208439
Rh 6.853315119255111 6.5330802943682516 4.008032540343233
Rh 6.908005086297623 3.939889848564224 3.4222138905455264
Rh 8.974552874222226 7.744162102593038 3.165315391457593
Rh 5.578793341219455 4.234460754067385 7.647854358083689
Rh 8.332821884253715 10.257527550926426 6.036481060249829
Rh 4.972556078104639 1.7975100239424886 10.131940233899037
Rh 7.191227857979665 6.484997848555441 7.890791860445398
Rh 6.80253669653459 5.707205948877221 10.17272971525163
Rh 9.033276955439785 7.0076916338621364 9.90748454607271
Rh 4.623801617241313 4.335799699580152 9.968251154778269
Rh 6.838761332723767 10.641969973797597 8.250715852790066
Rh 5.028106390979095 5.132894126424365 5.176751015769997
Rh 6.975304803193279 9.11886010446244 4.21868117362812
Rh 3.5451563877441044 2.682703220834821 8.239306786193964
Rh 6.685038747462029 8.297234607232499 9.689272273283315
Rh 4.42592413430364 3.1633783951459695 3.522793002193939
Rh 6.037349033943066 7.993910102691775 2.1030627044555725
Rh 6.341790453621459 8.641758296824229 6.734387361522123
Rh 4.700426647948586 7.62277400732064 4.835412904892747
Rh 4.490561684602197 6.867657429051118 9.712239425762046
Rh 5.146814706419644 5.502769976155451 2.3549630921223375
Rh 4.7723333118798505 6.714249900235896 7.239325470609263
Rh 3.2405719791791996 3.5875416546850194 5.910399812676783
Rh 5.814946249917933 10.938657669138552 5.653967377342443
Rh 2.923612890804085 5.193950655340478 8.088464770445183
Rh 2.854942825998576 5.166446434300089 3.542005360303589
Rh 4.553609185833806 9.753009119768336 3.549992303152702
Rh 4.59527214951131 9.23063609680783 8.588963690629864
Rh 3.4976206486381245 7.4568020090712706 2.5913439550962747
Rh 3.8158408549719116 9.554222065396106 6.240773948934062
Rh 2.5465480200912247 7.775662539902644 7.908924669311581
Rh 2.6245770061780562 6.258903083277868 5.768898229944742
Rh 2.2434273127691426 8.446057946681545 4.625423307531282
