47
Energy = -278.86782253 eV
Rh 1.1262665837458627 3.8865588137524294 8.140430873496735
Rh 2.0353596850497073 6.358367317316221 8.189081826950432
Rh 3.4943291341744716 4.315842910845476 8.866182578492856
Rh 1.5439337312743275 7.45625036433641 5.8708283573408355
Rh 4.389025808421861 6.723517916242511 9.23822580942378
Rh 1.813044721682572 4.994444970373216 6.038781202886547
Rh 3.561726489021115 8.230391297406586 7.360179728357925
Rh 1.646168297004179 8.603893651152312 3.631456839715584
Rh 3.003443986801112 2.80801465308929 6.774889113422347
Rh 5.896262666334635 4.493882430728103 9.666627706563103
Rh 6.7388286581304095 6.952827709309711 9.97744508948413
Rh 2.2332724219650415 5.954707705588948 3.7215289019003728
Rh 2.835732477779072 9.82046457497179 5.579330830599051
Rh 4.334349327871251 5.714023095899628 6.825940139739882
Rh 6.054601633865384 8.005171278216174 7.6216386501077515
Rh 5.394066579995429 3.3106998367336526 7.427868264281936
Rh 8.552480123659176 5.204371135974127 9.78022522044515
Rh 3.9240617085574923 4.243982704947712 4.815433854179826
Rh 3.861794237806529 7.529825671349755 4.789155633624171
Rh 5.427143910531144 9.472505981159475 5.415957505494112
Rh 8.915290224308542 7.522439746688201 11.01386024482087
Rh 3.4473468241898195 7.6931854295074205 2.0979639430718624
Rh 6.915054217415846 5.490450761138724 7.565924155114662
Rh 3.936377504164428 9.942300337969574 3.2921791672021716
Rh 5.754957376579683 8.169135210133769 3.061351386924373
Rh 4.95855659342941 2.0249962062685682 5.222334832554414
Rh 6.261620339879676 6.581370849304617 5.307922475770563
Rh 7.6438779283999025 9.829039495850521 6.621953116946528
Rh 8.212213347728037 8.684398682734153 8.824427005559823
Rh 4.849316207179388 5.776022192731525 3.036849054646065
Rh 10.090711095357241 7.02279948762856 8.87200390403179
Rh 7.8552919604531475 3.210658382298746 8.340337131821105
Rh 7.276263632449573 2.6148334045506423 5.935103953244942
Rh 8.523126525715732 7.3109135314820435 6.634345202516521
Rh 7.770768200002811 8.57755966862992 4.399589166560457
Rh 6.319312640034262 3.968619226821012 3.9234921328822576
Rh 7.47082085097616 6.176020688997997 3.043157599037901
Rh 8.290914783517088 4.939362928799931 5.2854761413315705
Rh 10.516245556473027 9.385475192116173 7.958194616095755
Rh 11.118093974889836 7.087293288994464 6.5678326555408875
Rh 9.957355042462092 9.169622201844819 5.547485886300548
Rh 9.775910228618937 6.9464160418208625 4.286362015379186
Rh 9.61307549334128 4.788646775680048 2.9500622624174704
Rh 9.690545776127664 4.961621071200135 7.485398297680012
Rh 9.71568196406137 2.7725435859956122 6.207565717803382
Rh 8.591308046439503 2.71048818510698 3.782680466720194
Rh 10.926060090539515 4.837739613595067 5.223268444142385
