47
Energy = -279.03109374 eV
Rh 4.947699518141021 7.695970914736905 9.430627363617095
Rh 4.223726564919512 4.816306943817268 3.907129572306327
Rh 3.313509095957312 2.922985674649681 5.393325927674449
Rh 6.58790338360703 4.007488976651204 8.58387112487001
Rh 5.999959094937277 7.03504209546897 7.299672626382502
Rh 6.487694877967277 5.812830113616037 10.553812067113158
Rh 8.980480230382012 9.858251026746041 8.760226638946902
Rh 6.140618820846501 8.977771660956583 5.533942361415871
Rh 4.893525116126925 4.846559723716329 6.588224820147791
Rh 1.8581247836614962 7.976931841573965 5.782897685170427
Rh 7.786342347998393 4.278377942816125 3.5343025396397896
Rh 1.8174394662950797 4.116022917655215 3.3573920094007654
Rh 4.086376498553918 9.026932010688183 7.194767197714014
Rh 0.7082719434529572 6.42831216383396 3.918202481321226
Rh 8.275448712088167 6.645680597781533 6.2164795207473125
Rh 1.9174386121795652 5.919525687865614 1.679298825295566
Rh 8.375924471667474 4.027275732810375 10.382590782356175
Rh 8.123525275647966 6.079661905623449 8.635969669622737
Rh 8.542533219885664 9.074400566826808 6.410466828413954
Rh 3.194017912397701 6.68314806161568 7.610177177478611
Rh 3.706951647742799 2.4712851441629455 2.8831751535412606
Rh 8.90343578445229 6.393015433382468 11.382709797312632
Rh 9.622630511714386 4.789303364503471 5.290328298185859
Rh 6.510816525567382 9.474871973878614 8.03519992995258
Rh 10.519887207589443 6.209276170666116 7.36527258133854
Rh 6.8983759917044205 6.274774357996747 2.096780914574607
Rh 3.802766963081128 9.583642123058004 4.656885935701403
Rh 9.194092444009698 3.9459463555425547 7.845722773076973
Rh 10.57234082277952 5.204523709206213 9.719034663565486
Rh 2.7353640619793267 7.756299067373319 3.2396855536854923
Rh 5.373768663265754 2.4015518722846636 6.952037744539338
Rh 4.456751163220979 5.163830158110575 9.172279710445823
Rh 5.79132136464959 2.787924193780378 4.436624798460402
Rh 2.192621167816149 5.341690259219063 5.578835585171933
Rh 9.986835239008183 7.66036163128677 9.44582152775466
Rh 7.481041607229006 8.114648187603786 9.9338860152321
Rh 2.7925727441121433 3.96112875640715 7.670928645985218
Rh 4.160673098178074 7.083177601692104 5.251767679998249
Rh 4.345130131598609 6.18677561087448 1.9024768371329743
Rh 8.039138178111278 7.879231261777874 3.944927330638704
Rh 7.339023770535113 3.90292019897449 6.1080373244200326
Rh 10.887698787091777 8.737122755599952 7.308710023848263
Rh 5.715411285458322 3.91093209443666 2.0954311250660087
Rh 9.51596543070463 6.0307556979067325 3.001886156994515
Rh 5.45328034772992 8.0940125418876 3.233410569794331
Rh 6.409887457835186 6.051213778882709 4.638695562709606
Rh 10.375752810708198 7.404404294641853 5.080165695824851
