46
Energy = -272.56161632 eV
Rh 6.79951985484731 4.598132616585536 0.9597525037473954
Rh 1.9758801306468006 8.236072119856649 5.777448143552038
Rh 0.8716669671753238 4.220448911736853 4.716136833686159
Rh 1.6725501839381718 1.725454520726401 5.477634803778866
Rh 3.779037644762978 1.3059137514477315 6.876149184385153
Rh 6.659151404556318 4.160267243429909 9.070203355628196
Rh 9.440415577763236 6.700261944353042 4.5916833638040835
Rh 5.091234912770921 6.598338368054219 8.630215805832831
Rh 6.316291829588301 1.9304981380388488 0.8052688104434579
Rh 6.130871133249202 0.9469254299746099 3.2016573383602984
Rh 8.146888529532024 3.954614705501338 6.854537667506703
Rh 5.114202702241958 2.522564501741838 5.1349821808889455
Rh 3.519027933288411 5.101405235834655 2.169339185565259
Rh 7.330201832528653 6.304100217282709 7.656567259613001
Rh 8.37569788865278 5.429429337631729 2.775621589049028
Rh 3.8791011760835787 1.5220861221771405 1.7481396994639962
Rh 2.976534777413441 5.153111013174209 8.668461610375662
Rh 5.851177998892043 0.16312956107583854 5.687241474608867
Rh 2.573641919552273 7.68769708731822 8.245362721739479
Rh 7.691310011822751 1.936369174911355 5.1304850314975035
Rh 4.987233052427274 6.172220597730612 0.2751506271005827
Rh 2.8474770592186647 3.7591751012940704 6.417722094120683
Rh 6.088914226041986 6.853528469556187 5.394544288589624
Rh 4.467816491635515 8.712967618432948 6.6400757617125254
Rh 8.602208327774157 6.161927719618778 5.469454716626648
Rh 5.393709239079084 3.4031668233517207 2.64749551401854
Rh 1.5767280910749275 8.361613712643274 3.2378146952278213
Rh 4.175872466610066 7.995930428386383 4.144273321541159
Rh 6.930669069345945 4.4187891316633685 4.545857670189459
Rh 9.440415577763236 3.8160088549126887 4.5473918673893285
Rh 3.447510796333603 7.533141754428998 1.766553075650671
Rh 3.778447613708842 6.341053103654663 6.490724349102851
Rh 3.696519024090963 0.6024212317616686 4.202206803856005
Rh 2.4790406174143103 5.508383888833769 9.389820157537482
Rh 4.3507121486386655 3.607875631584166 0.16152500272224682
Rh 2.8180463494820844 2.958042602245687 3.6377438045926933
Rh 7.979260733874378 2.820001950711064 2.6236333791996924
Rh 4.428081908748764 4.875899478697854 4.551028213818096
Rh 5.825159667328481 6.293119780994122 2.819697633029156
Rh 2.3834498919872193 6.195954829536413 4.26324540869714
Rh 1.2654936990559507 5.831280380628732 6.734609160101709
Rh 4.307646307550784 3.0603702866118705 8.581292901940092
Rh 6.460763348388716 2.053685068915368 7.451224271689114
Rh 5.549303380613276 4.487692478729753 6.851437725363424
Rh 1.9990118930899359 3.3202487269593326 1.2336158778923172
Rh 1.0054688767168491 5.673009488648118 2.2243373820632737
