41
Energy = -241.5646303 eV
Rh 5.913905637592218 10.422281748342378 6.713166464430367
Rh 3.8305919636842245 8.778734202261022 7.1402671501290325
Rh 7.8700504046306206 10.297057714394144 8.432774459977084
Rh 5.737865624412861 8.853409976278217 8.76693992902295
Rh 7.793183629066186 8.187007097260972 10.084825553238339
Rh 3.9346963499336156 10.241074301615232 4.981894776739712
Rh 2.9688017266437257 6.5152258980366025 6.343747086684896
Rh 4.7310082306094365 5.762437425330701 4.608914110498334
Rh 5.2033937985063305 6.507855286281996 7.714494676923995
Rh 8.337087881186022 10.203206915006836 5.884467399686543
Rh 5.771266308748973 6.668318979682267 10.196232652655002
Rh 3.4208779153831337 4.707906765665659 8.142302026033459
Rh 9.744294381306903 9.673797622768175 10.115689954734128
Rh 3.4341224239771453 7.996168446863343 4.1956359456603005
Rh 5.663201820164873 8.001143891339378 5.598757507553332
Rh 10.27260364769518 10.028740269457545 7.64434701740502
Rh 7.674549374580999 8.077290084042055 7.228851258242279
Rh 2.237826690748749 5.812259098583747 3.9554860611929836
Rh 5.899668729746524 4.341929083456328 9.090482881035223
Rh 6.3817007346321155 10.023149564641443 4.18865336580868
Rh 2.90463103271862 3.9973377347282946 5.681908724609087
Rh 5.778126364853567 7.716737503172554 3.0560926807748694
Rh 7.113948960091924 5.827569031462442 5.891929501441214
Rh 8.002107896495662 8.041212273453944 4.425403305061331
Rh 3.754523837144257 2.272879104332989 7.456596328451707
Rh 9.884314916381747 7.649523386000873 8.562888472673132
Rh 10.013795574061973 8.144765933638238 6.03576347224673
Rh 5.396559745605366 3.9938332068508586 6.564593337559935
Rh 7.813599425849301 5.996924129696086 8.7211950015191
Rh 6.222682850272544 1.9857441830070328 8.248291862712676
Rh 5.396255534373856 5.356019664472658 2.1673085873067777
Rh 3.7148919551022397 3.7279034168484335 3.2388597384669353
Rh 7.612381423551488 5.770234379935922 3.3185778568073983
Rh 6.24598442969374 3.702563159478322 3.9885257251681026
Rh 4.480619922232628 2.056373467634664 4.974205366918906
Rh 9.860648504851795 6.295153954204862 4.348141154025584
Rh 8.649986388551598 3.966656366861569 4.953494146737748
Rh 5.217412503309305 0.3391686989865949 6.629586914397363
Rh 9.571468949979407 5.680178264952285 6.819559498686717
Rh 6.986882558061282 2.0383110765022447 5.782958628523992
Rh 7.921744894063474 3.790720618501867 7.4538852380222815
