42
Energy = -247.69760245 eV
Rh 7.053268551686523 7.37203450710418 9.970574176143423
Rh 8.236260571291204 5.2738491554339015 8.885592177983087
Rh 8.351893850107837 7.74100738328866 7.763260287444629
Rh 6.7981949869076 5.167280152764432 10.981984393620511
Rh 6.0164360329194535 8.903323095883326 8.18427747334107
Rh 9.511919284201234 3.4329648279129596 7.714416504120391
Rh 9.563583755316806 5.742172187507366 6.596310080137288
Rh 9.519936789879253 8.037113903678708 5.503785580254794
Rh 4.681956513586999 8.22452961582427 10.260800471934992
Rh 5.267157967639642 4.399279926537055 9.295611525521805
Rh 4.879274081482244 10.38804124719888 6.296027054607567
Rh 6.089690798652864 6.306859602715411 7.899222416062609
Rh 10.37402103433455 6.003894763720892 4.169418441027086
Rh 10.072113559700368 3.629644707797496 5.222883204068348
Rh 3.843031329011998 6.430150238904783 8.82610311474264
Rh 9.786384709009463 1.3606766281091345 6.208476075996284
Rh 7.272819174727713 6.716872995346558 5.534617179447341
Rh 4.979678136084207 7.865889285319943 5.941469695646107
Rh 7.361290249936184 4.3002259542724035 6.6222655363883165
Rh 7.31841222026382 9.382866466635221 6.049594517023872
Rh 7.518015391132369 1.8309459827500356 7.2981169608173815
Rh 8.690771246011915 9.740801867931122 3.8171541792876726
Rh 8.335552134417261 7.234663556447086 3.1771603663785744
Rh 3.4634601195365713 8.789983362521166 7.949903495691657
Rh 6.338827974776757 8.717984740449644 3.7444003474260845
Rh 8.106372465130576 4.8261656494248015 3.995604638182564
Rh 3.1517697121345236 4.266515815349858 7.643855853109576
Rh 4.277738436401756 10.270442114675705 3.8196855896340693
Rh 7.818814167063311 2.4440994660529234 4.907667054117671
Rh 2.8114107653034637 6.578801181037739 6.543023796209307
Rh 4.988032366769129 5.2009158749863955 5.803082138912077
Rh 6.580531256494222 11.195343452673372 4.424536770857967
Rh 5.326432540972032 2.968416057984327 7.287880399363935
Rh 2.733776454045691 9.06755097192641 5.488178315782308
Rh 3.9731271182036627 7.725857280522933 3.586404564157279
Rh 5.939214494706395 6.110291164601521 3.3349548181061226
Rh 5.748214180444697 3.63872659258361 3.9469527517735354
Rh 1.6260303311993678 4.67735730247903 5.422520536087164
Rh 5.53206575843886 1.443562779725289 5.284763914637812
Rh 1.6937691408741467 6.99281229930756 4.2893607053329275
Rh 3.5217708215802808 5.225884716715185 3.7078726933945823
Rh 3.58182321417976 3.1090448104539816 5.335073891783867
