41
Energy = -241.43169255 eV
Rh 3.5486075050435537 4.194106211622868 10.68537717413462
Rh 5.867727206753277 3.4583961705677573 10.326376536013035
Rh 6.902198569308328 3.1301606904015644 8.086871040530895
Rh 8.62697779769025 4.4921203500687925 9.404617744824264
Rh 4.147030899795428 3.7927293985077783 8.309733112100785
Rh 4.105224045071943 6.493597667509163 10.272557933661817
Rh 6.520033181401797 5.780672715809481 10.14016508423135
Rh 5.9491071692617075 5.3980281415086475 7.766876793806336
Rh 10.409889307344178 5.903576528741861 8.013004387355593
Rh 3.0747736436653548 4.512605529218861 6.033104458569061
Rh 5.895976773729066 8.178035555055105 9.451224296367899
Rh 7.657976204489916 2.345115956400852 5.7393005948927245
Rh 8.12835894409615 6.858047432099333 8.517802008005875
Rh 3.566093179386147 6.329220849395929 7.896630615265532
Rh 5.457649140347269 3.612382981768529 5.98846627046527
Rh 8.937681232318708 4.140703417753723 6.881818656900057
Rh 10.012642122115363 6.126495656663255 5.486477216945007
Rh 6.282776125139003 7.809555429495525 6.948288725558576
Rh 9.507527878413555 3.8362365020988043 4.451194004477092
Rh 4.382150172648255 4.404687626512472 3.7602739835801477
Rh 10.188364250798513 8.394591983229414 8.112822976732025
Rh 9.46223161431393 8.079676783992024 3.729114602673817
Rh 4.879129664819278 6.303457959351601 5.408752280237108
Rh 6.9548911425171225 3.962034805161692 3.8886314992492497
Rh 8.52037277777205 5.8126301856350535 3.2259112394438243
Rh 3.4991330340563627 8.678499373235137 8.953228169079013
Rh 1.9242842621765128 5.210747372804313 3.833325283180233
Rh 7.437018679232681 5.753159770812665 5.6871758656490226
Rh 6.6998196787919815 10.071543090688065 5.822882331545771
Rh 11.124185954599072 8.286085833592322 5.730741724147673
Rh 7.822483671385019 9.507372521610758 8.192984291029099
Rh 2.266387327094636 6.890536455973214 5.661713112097253
Rh 5.998880222823216 6.098514847660945 2.7450780476044083
Rh 3.9174460834628984 8.624126348756915 6.462458012917196
Rh 7.668706318914642 7.794917073188826 1.8975562527571104
Rh 3.5892831917615586 7.016706396443006 3.3740737682115545
Rh 4.7422427407325 9.334741350844919 4.285138138929848
Rh 8.657776591121698 8.351974224543019 6.07554987659697
Rh 5.3014499059544935 10.216431661979708 7.982721743956184
Rh 6.789058265866187 7.949641546993156 4.330721278830089
Rh 5.131791683688953 8.42147376220502 1.9945970273494962
