44
Energy = -260.53415021 eV
Rh 11.053567405284529 5.084905500024224 8.061191496931919
Rh 10.988841252328527 7.677753053169363 7.6665268151886306
Rh 11.553587480949947 6.058382278169325 5.691071187734837
Rh 9.136002151043547 6.565934905423283 9.109540874493776
Rh 10.057924781732053 3.783528451700583 6.0301925704210175
Rh 9.884996856312132 7.997535223324102 5.291778633205001
Rh 8.801255305542108 3.9977683483909887 8.384707739697882
Rh 8.576098412087008 8.58034447582324 7.514377396969925
Rh 9.013272282460436 6.003735189256209 6.649524060270881
Rh 9.637228125995117 5.618887198064566 4.139858099485274
Rh 7.1680895282922235 5.135688927341928 10.003796549152906
Rh 7.624506336826104 2.9048855066507193 6.29633958860014
Rh 8.737352551294864 3.209763156193528 3.911004285586383
Rh 7.917440487148624 9.623039663005065 5.254961619391482
Rh 6.650673953475111 7.313645511491965 8.66924218684016
Rh 6.476191535563165 2.8740706907648406 8.616170645258027
Rh 7.831329386220462 7.528942199933965 3.731642034014771
Rh 7.171019383184857 4.939471477483609 4.82092268416684
Rh 6.6721887144795495 5.033386876291688 7.375520639720373
Rh 4.749350859154367 5.847122336913871 9.581959601796234
Rh 6.887347759771675 7.27249668090845 6.06848383608417
Rh 7.815999546712058 5.428723256193502 2.3378162309641426
Rh 4.540801951418159 6.4518019492220695 6.974513786069216
Rh 5.138474585197008 6.396579355552436 4.440522499551151
Rh 5.192921520606054 2.068887696096957 6.520452638563838
Rh 5.948491757309529 9.353756597787411 7.0813873074592175
Rh 5.577713647799793 8.92533787192728 4.425211121954675
Rh 5.726958524609538 7.204579384559335 2.203047106350604
Rh 4.259229088534016 4.004636519043942 7.899053019786742
Rh 4.243903562935393 4.015020702459381 5.1696329390325655
Rh 5.515657244794244 4.5259228199028465 2.7183814264514243
Rh 4.146934285559882 8.285208934116596 8.70965296642489
Rh 6.155728316251136 2.573146603857101 4.1738311089806075
Rh 3.6256430980246384 8.66616256181256 6.114202462824398
Rh 3.352965085621884 8.143314799027026 3.484089454723459
Rh 3.3428370713311875 5.6663543612712335 2.7128277072526927
Rh 2.6878229304223265 6.2257295134023325 5.226226729285731
Rh 2.049536333273926 4.100680037051408 6.609956743130072
Rh 2.507054517215279 5.979275732694993 8.311057216606851
Rh 1.8246848445914436 4.10806348362959 4.075210925975316
Rh 1.7181674806338905 8.336977080314062 7.7193593234915445
Rh 1.2321244525834216 8.395622692948141 5.143305919053619
Rh 1.0133096470679843 6.567397820410697 3.355321736076478
Rh 0.5973780673928422 6.318424132890425 6.56882152028216
