43
Energy = -254.24099606 eV
Rh 7.735435173718368 2.7548362171686733 3.264690888600174
Rh 5.698561291799955 1.9581488360214874 4.52229756880447
Rh 9.539512655357258 4.153286726222739 4.4716068888332074
Rh 6.193575249037029 4.485397754453119 4.167860578569222
Rh 3.7281142075673435 1.0960951248287865 5.7297335828818765
Rh 7.597518549194144 3.102176076672783 5.851711529048537
Rh 3.9897613992263263 3.5830169335773885 5.4959938860855155
Rh 5.545993956089603 2.1834383891607008 7.160006872153337
Rh 9.150397476803771 4.798411905148246 6.951178298777568
Rh 10.73609666022685 6.148035375044981 5.353527781835257
Rh 8.055095577575376 5.344194610444189 2.6284088814259183
Rh 7.276034398094816 3.6885196154533535 8.39725764639688
Rh 5.6613746241873 6.245032817597317 2.3331346822695105
Rh 3.78107709554963 5.361602973002889 3.859198475560653
Rh 6.3375781477910245 5.3165739219715755 6.649567706961597
Rh 5.615253352530563 6.999935022827538 4.790307555426112
Rh 3.037867933930088 2.602277488087683 7.665182581151012
Rh 10.60336361741561 6.88463051793421 7.785266633980402
Rh 8.174519267028622 6.289766056043949 5.033187173554207
Rh 9.011572107510077 5.626913479483371 9.374986298362924
Rh 7.577203755493948 7.901984292339615 3.1463596476115256
Rh 4.744240901272286 4.327883052360137 8.427322405120213
Rh 8.087290344016235 7.149707666356199 7.514460698537101
Rh 3.754345047663187 5.954175736049044 6.478676273862225
Rh 11.836515193368642 8.315434961355045 6.0631902577927494
Rh 5.478121558059533 9.473673741248094 4.042758308367848
Rh 9.737153173885126 8.322148336972049 4.5387529640836295
Rh 2.2569790150666966 4.92301173996813 8.157704424213838
Rh 6.404025803631762 6.064601820888962 9.2576055898724
Rh 3.665918019155077 7.831851171131688 3.1792721024522486
Rh 1.9455637543628044 6.830470507661087 4.888767435899145
Rh 8.093107669303185 7.945500283906124 9.98878549044609
Rh 5.5878927613421 7.781917198096294 7.339399899619173
Rh 9.616256028376394 9.10358244739444 6.935954009516811
Rh 7.432926571532985 8.856040699622337 5.555094712524975
Rh 3.633813246432963 8.552064181457244 5.672406104736418
Rh 3.8526594160662873 6.7162244440437915 9.038778793741225
Rh 1.9624547387203046 7.5408080016589585 7.420029691956227
Rh 5.601948927227126 8.491009417648185 9.838488401768139
Rh 7.382388782664033 9.576912430168715 8.109042810383897
Rh 5.429977968943356 10.258138638406198 6.499792953973633
Rh 3.6867395427751197 9.266255713858431 8.229210680839026
Rh 5.425534342106045 10.917145592055808 8.959464752033703
