41
Energy = -241.04740351 eV
Rh 4.429057755012479 9.32118693434758 6.350790074489697
Rh 3.205190972039045 4.301341393826723 5.244856162148751
Rh 6.907299261757322 5.861691084856859 7.5804408617785715
Rh 1.6397417791019653 5.6278331177042356 6.902101968325256
Rh 7.155154906731146 9.574353749864626 4.933522148869883
Rh 4.259383149884639 3.2417796022884766 9.453733177873078
Rh 5.708372069949033 2.3428298405700123 4.748767934105063
Rh 9.442539436174268 5.5683093380906765 7.4283404583066135
Rh 8.77007323868801 8.03898847251512 6.298582989989385
Rh 2.7082625066609367 5.501497014045068 9.216794338259003
Rh 7.505948942106337 4.577643290253599 1.5155130179021146
Rh 10.556979419746009 6.517071934075428 5.140083674207907
Rh 3.512465708734018 6.877694081842042 5.72344765686655
Rh 8.101123261630129 5.836837503004382 5.233826851498574
Rh 7.56129690555006 3.5133454398257573 6.482266568385028
Rh 4.67711010906572 8.523385964841774 3.9221481150718445
Rh 5.343491037178855 5.534645756532066 9.800806506238315
Rh 8.672197461881181 7.710420192637425 8.767019993002377
Rh 9.86585490181634 3.9978866128865445 5.262645370352268
Rh 6.814921804097106 9.105172577604346 7.569857922881824
Rh 7.708957631401554 3.654707597091026 3.880304212276006
Rh 6.565769250984701 6.485070044466217 3.197969424803042
Rh 4.054267594011283 6.061881864368109 3.3966514915755894
Rh 8.746343971531513 7.882270415116607 3.712303130477526
Rh 5.130903047228972 2.639077417652929 7.11955107222228
Rh 4.5733262627459705 9.638416738539634 8.98009788346186
Rh 5.359518310991199 5.865259075229436 1.0884697086644421
Rh 6.7975694570833936 3.575136091622772 8.919011012918684
Rh 4.386380640697642 4.950070807606765 7.435708986549625
Rh 2.441623662020189 3.3276087435441224 7.640406686602329
Rh 5.345010467276242 3.9427809597389776 2.8139172386532985
Rh 9.424974227557442 5.4008529007216355 3.046246315055853
Rh 7.95000201317469 5.626378540689134 9.92159821294741
Rh 8.200013976918576 7.007786605169799 1.3125344285908553
Rh 6.142541550931696 7.480522918687991 5.656126134810604
Rh 5.696431003632005 4.92197702680522 5.2098076223449645
Rh 2.4798312536042353 7.874585221063948 7.980433259061582
Rh 6.749191657927602 8.875967826854614 2.4894210407329385
Rh 6.420082295219067 7.871524288689458 9.913226289339363
Rh 4.8859833680355225 7.400485426544148 7.954906505170475
Rh 3.7930828808999437 7.545292928403733 10.288820815053414
