45
Energy = -266.06185142 eV
Rh 9.791957730120595 5.185938972420415 8.376109303589082
Rh 7.555717748021982 4.132658083344592 7.935556510103151
Rh 8.117901458378228 6.741109681526909 9.348629004093798
Rh 7.130400415619372 2.7051735501936127 2.958569744021255
Rh 7.855998659914049 2.9378139228074933 5.3871076813869765
Rh 6.573114318330062 5.0363716256472255 10.292101929576758
Rh 10.53661276368297 7.478184623936624 9.37854293382216
Rh 5.4551502580483735 1.9606182369961433 4.764814101851123
Rh 9.26252362704009 4.350545484032133 3.692341647322063
Rh 6.0064155976377664 2.2944984938094777 7.245606211938186
Rh 10.117656262508273 7.200680620676594 6.866080471367946
Rh 6.1799232397444985 6.2643884864678006 7.565605056359804
Rh 8.694080885710125 8.991612787426938 10.425920707521136
Rh 4.896413760552079 3.9165182438706845 3.20749470680502
Rh 6.659387864122266 7.398409739081183 11.31127709571952
Rh 9.095432675263302 5.030596573881556 5.996214231729355
Rh 3.6246716659293576 1.8611977999440124 6.538299677038462
Rh 4.964034544950451 4.226632065523363 8.643109381489596
Rh 7.022483688365838 5.233078659515907 3.128124608910536
Rh 7.266029640688775 6.4764103460584606 5.267332674039455
Rh 9.692242992243399 9.5033619540935 8.093989010782861
Rh 2.978678248104607 2.4242855150264595 4.070756925476409
Rh 9.596997213816314 6.970767337877985 4.33713209708367
Rh 4.758117120185898 6.781701628879314 9.648511964317054
Rh 10.546261672726606 9.347321929348366 5.653580980436032
Rh 7.811933977992761 8.275125817330343 7.076368167775032
Rh 5.774821868756924 4.307558848001333 5.661225186235807
Rh 3.2191906580282326 4.246466458703128 5.844230626565357
Rh 6.96658783473621 7.7670984666737315 3.050381682048514
Rh 6.394063182317752 8.812260175945964 9.219476381338207
Rh 4.501201691564785 8.283287836502252 7.519551714705079
Rh 2.677556827016891 3.4803743589329916 8.185181040195248
Rh 2.624185742344554 4.948595264682083 3.4579356115970556
Rh 4.572300425545535 6.570783019638077 5.45520830636627
Rh 7.8452548034577765 10.994159068902796 8.966548838822371
Rh 8.283850131865622 9.152414872070269 4.71635089886774
Rh 8.551323013737072 11.02378099306402 6.385371770343011
Rh 4.691941153207474 6.476450296944746 3.0481757533348715
Rh 5.829263027361243 8.819467739300809 5.241838057548609
Rh 3.269705024262091 6.031747820344531 7.7000738396606145
Rh 1.974586045532178 6.466385594358131 5.44043253947023
Rh 6.205746655815148 10.335626051510935 7.1798664954370315
Rh 4.554489623125219 8.97126688058157 3.035412383009229
Rh 3.274824068684728 8.778122683223616 5.231463976267159
Rh 2.3427380586709825 7.55291925663028 3.1958659393590945
