43
Energy = -254.71341528 eV
Rh 9.906150862108143 5.90043254227844 3.576300134756345
Rh 9.654985052175684 8.297623366795744 2.788481375751917
Rh 9.667117711350318 4.325203639498187 1.5849297348950762
Rh 8.19201139827269 6.401360710898403 1.7193589443296666
Rh 8.52488468990992 10.07286502578985 4.504110589536444
Rh 9.162610049943334 7.691990048952481 5.240751009161133
Rh 9.399808415703012 5.145014345543791 5.9257012611665765
Rh 9.46691365825633 3.43564111918227 3.9676292455547806
Rh 8.436191459363227 9.471478769317157 7.003681712622806
Rh 7.337726491768541 5.788982965242984 4.43715058935517
Rh 7.359911921635635 4.030561235174224 2.5950119401172826
Rh 7.197386935496782 8.134236110817824 3.4248880327383353
Rh 5.774559985508667 6.187694317761724 2.415317817102236
Rh 6.056745442719763 9.855766576310419 4.91511569793009
Rh 8.908250715028213 6.959737719615695 7.737393848766391
Rh 6.777729661317262 7.693412886199521 6.273729960637928
Rh 9.32139265804617 2.6425191714554885 6.444893978145907
Rh 6.997848351084207 5.108537725228387 7.008861758672476
Rh 9.129606412677681 4.435663765002683 8.343726862759544
Rh 7.147301158767385 3.2814057846841265 5.11526772695004
Rh 7.0339643732514725 8.385116567431721 8.846278478012582
Rh 6.033109556506841 10.331717418654181 7.45643738461784
Rh 7.599514584373935 3.3341683902903934 9.978135698212673
Rh 7.067898228431902 2.570882978606576 7.597085958265054
Rh 4.598457580602177 7.935509446588167 3.935528331507092
Rh 5.0566388916802545 4.154218167137787 3.8553340684897077
Rh 4.90565714035912 6.011222922457722 5.589715466426155
Rh 4.380753341477634 8.675764825756595 6.412820814554962
Rh 4.88330724426367 3.4313997075141667 6.371696360905763
Rh 4.439236297685595 9.04029793201512 8.999406058781663
Rh 5.467066435070829 7.417638062248474 10.70848859865808
Rh 5.1176324105080155 6.678024040985551 8.191384077840361
Rh 7.26936723757244 5.8645093374956465 9.515578576627904
Rh 3.2969255696012487 5.9312373284687805 3.1146024606385825
Rh 5.455388465415785 4.083734578376936 8.845197457456987
Rh 2.5767215119442892 7.131667871672367 5.334399916877086
Rh 2.7498622460137203 4.500087385050064 5.202071139210569
Rh 2.6175650266344195 7.500236102993247 7.910903613119579
Rh 3.24533507940902 4.915218135268845 7.69135941341473
Rh 2.8488875833271736 7.721071577191938 10.4915046124724
Rh 3.892628711634817 5.472739917099839 10.200804913999832
Rh 1.0153712440837428 5.7884531813326445 6.806728661986764
Rh 1.5014650159134917 5.736843106509151 9.394122523868953
