46
Energy = -273.98507024 eV
Rh 9.910316752140387 8.834221095366667 4.966064080863061
Rh 9.949638782897857 9.166470662984684 7.527245120165454
Rh 9.506928101102524 6.825860971142046 6.584449728536776
Rh 9.109621268246954 6.512715588296065 4.040019821055147
Rh 8.976717222345815 10.981630824390583 3.9578433922681904
Rh 8.129897089248027 8.759326133584079 3.046966908824712
Rh 7.2904950781931355 6.62496934970498 2.0651583136025717
Rh 8.188775278660136 4.265535981082877 3.0774464628350615
Rh 8.49971623283518 4.607687401009265 5.651192985478033
Rh 6.605781908147084 4.4122185326589545 1.057916001629956
Rh 8.912386102471954 4.7276766930446925 8.196693655204646
Rh 7.486144450263323 8.226471763065499 5.479786844297192
Rh 8.95835384470613 7.169831912433985 9.096712831003677
Rh 8.133907618864558 10.635774376500981 6.2430831808414675
Rh 6.422007795586311 10.349618966077736 4.284689991691801
Rh 6.544925693121978 5.858670437719068 4.419456475122528
Rh 6.384219331261978 0.6530267372982128 6.09966067351886
Rh 5.593761069583597 8.093082473614265 3.3962566812006947
Rh 7.762395616710078 2.5133448047133617 7.265920792750909
Rh 7.043280928094843 6.275701742574172 7.1482550816242965
Rh 8.418658373534443 2.8539099145529754 9.739990953107712
Rh 4.819225287012603 5.8752748934148125 2.366233401336693
Rh 7.332107455625178 2.4704108344203144 4.692380728063191
Rh 5.630291175097491 3.583217778558325 3.1699903035760095
Rh 5.909260861933809 4.111680059157638 6.229290015728175
Rh 7.855436281324764 5.361708237775965 10.499654867179848
Rh 3.934276375927679 9.50688900927663 4.764596124532716
Rh 7.540454076813755 8.917399544691111 7.998401338905807
Rh 4.996307539618586 7.372063782996537 5.933126755626645
Rh 4.621229724785538 2.2742084859523564 5.071169349127819
Rh 6.436932160058599 4.076787423189872 8.843353756708378
Rh 4.014299216560993 4.8747972736948295 4.65910687647181
Rh 5.604159202544985 9.864707689673075 6.640138392669152
Rh 3.1760168320264683 7.20263315972324 3.992289541669511
Rh 6.346224768695448 7.185151617317166 9.50364997263766
Rh 4.651373028645137 5.7227184494018 7.9516973154755535
Rh 1.6972472986069824 8.512074173874648 5.6420908024450585
Rh 5.134888505616126 2.115004314091592 7.658806808566123
Rh 3.2302242491688595 3.7804671643207577 6.852015506577392
Rh 5.059801044526573 5.302193387563322 10.654817258654955
Rh 3.4387712445281977 8.611724836880583 7.436980748586047
Rh 5.246914478478299 9.392918485293938 9.078259053687495
Rh 2.6356450516511596 6.290970814046458 6.389759052125856
Rh 3.936549111742259 3.503280791102735 9.32270867213401
Rh 3.7555586757712427 7.367282280915277 9.62586143271814
Rh 2.2265980104962626 5.434409346124602 8.73653214444545
