46
Energy = -273.3501804 eV
Rh 5.049726055369761 2.218647819710404 9.205437879682616
Rh 4.231033671835506 0.8818625938652731 7.200460676756624
Rh 6.44240125288606 2.2070190387460955 7.004653339390988
Rh 2.7341491769068895 3.0087109847707185 8.391221774769031
Rh 6.784387687801392 4.057343949402102 8.882428603469519
Rh 5.107592497587642 1.5112706042780917 4.841761252988865
Rh 4.362785628176759 4.735004101678053 9.6967989872778
Rh 3.0573313421014814 2.6996216368673083 5.901204294775404
Rh 8.504884282698487 3.7984018895343574 6.8673339504508055
Rh 4.802630370948675 4.029651275529092 7.219490610492932
Rh 6.387050054466141 6.221040965005602 10.374350364353864
Rh 8.265786112526287 6.033636732625168 8.456039983542261
Rh 7.312692370259634 2.9489166303935512 4.684781760761048
Rh 3.2577761760618973 2.575839611845511 3.265759880415731
Rh 1.130409745985984 4.153330405786806 6.55316354374157
Rh 6.7642634877454055 5.303807059911216 5.8577150753620195
Rh 2.660554318215994 5.581382091059019 7.9782113307184135
Rh 9.124514917985415 4.649770086717657 4.296682174206519
Rh 4.95034435134329 4.042544428526121 4.575242539153945
Rh 3.983111619078592 7.323674171999345 9.401882094871732
Rh 5.743909741386453 2.628566268752904 2.5647763063797764
Rh 5.7661724152014076 6.438186088463289 7.950110396467909
Rh 9.279818935887619 6.351356682414858 6.221916832908753
Rh 9.4153890226546 8.314484082183201 7.895242941983995
Rh 6.961965359064128 4.830708265680752 2.737208514961352
Rh 1.475871412683196 6.573283734622883 5.813142301918201
Rh 7.168442220440306 8.33673018274247 9.031055749930585
Rh 2.409720040832901 4.701311974710185 4.337569954688933
Rh 4.063790733893988 6.16184109629943 5.932766117140828
Rh 7.949023269027525 6.902962858037355 4.086469867906886
Rh 4.216086204370651 4.970871141076115 2.3537656150749267
Rh 10.533347032522597 6.97089047694146 4.032278606594639
Rh 2.9003352443897863 8.103344490231084 7.249983017326616
Rh 9.27459563318551 8.841018619818666 5.390998363053227
Rh 5.177884738990161 9.153871379619469 7.648736072868721
Rh 9.14568974464217 6.052720122632057 2.0288184542868786
Rh 6.965596698023735 7.892789315940178 6.224329237575167
Rh 7.69267864850713 10.118134463574014 7.062518598343124
Rh 2.9475786214332573 7.157714399070861 3.725065289105532
Rh 5.414824303286439 6.661957089896828 3.8221223459587876
Rh 6.892743181597103 7.328181803673054 1.814925521674338
Rh 4.487294789014447 8.630501694860643 5.229388627731173
Rh 9.013368924263368 8.776788191116053 2.7856469607178345
Rh 8.155720850750226 10.884786319967336 4.515062660110299
Rh 5.790313637784622 10.755598044957107 5.529313410037743
Rh 6.548293064528953 9.102418786910755 3.7192667251733553
