40
Energy = -234.44668484 eV
Rh 5.597039153880757 2.855044447233273 0.23807758089277625
Rh 3.1980626453332577 3.8190273444154763 9.664511851795826
Rh 5.025661435366375 5.53661625481805 0.7895169780623187
Rh 3.485659914732452 1.3854002800093075 0.7291661084501823
Rh 6.437197203634065 4.000199605834253 2.4168626160053996
Rh 3.9181238457707495 3.5307600358895463 1.9884477369262572
Rh 5.424444417058453 1.5509778353093162 2.593961102920381
Rh 2.4174363185496577 5.560518273654957 1.5464213640713158
Rh 1.515764102699143 3.042334333607416 1.466323509613709
Rh 6.658737549123347 6.633411830936999 2.5382877841784244
Rh 4.0931007249149465 7.800960025002241 2.181141209590753
Rh 4.459510994064274 5.63479468558113 3.304505690046204
Rh 2.889104843967872 1.5945470618539896 3.382987771702899
Rh 7.034714142400245 2.4917510656627893 4.477051381467435
Rh 4.527530640015092 3.293539919940128 4.470321922634624
Rh 6.075809760222252 8.853995689368505 3.764866162004425
Rh 2.139283343584419 4.154714182662451 3.8377876439542327
Rh 7.785980176033137 5.052755256457375 4.272113857558082
Rh 2.1803592069732365 6.772990137135522 3.754786864504539
Rh 5.853175192977686 6.682565984836586 5.132194736407647
Rh 3.9283016009212344 8.26364045318845 4.826956574251478
Rh 3.5672554382724972 5.478581476172305 5.712819408265366
Rh 6.091981309232834 4.310495682124577 6.077368457808288
Rh 7.069503990576572 1.6534523525778302 6.9317651198605725
Rh 6.648359933090642 8.460185984261582 6.639038059312132
Rh 2.6108108059670427 2.465003221956063 5.821371908101179
Rh 7.82978843217412 6.130506743656241 6.752409394306061
Rh 4.241373186805356 7.502102385014457 7.310739921359729
Rh 1.3089280271607215 4.625995662945514 6.330619514372742
Rh 1.8961744471337878 7.425036343307858 6.188467900751662
Rh 8.205291868653335 7.635081276724006 4.54906530706237
Rh 8.546347246024554 3.64217121893002 6.344159295413957
Rh 4.974216250692947 0.9363745930599119 5.177029331628131
Rh 4.557992328349391 5.100598671505398 8.143954653289216
Rh 6.312374723440006 6.80349727930621 8.636324910083845
Rh 2.623008677796741 3.4608120687295814 8.21993343622312
Rh 2.237571079157785 6.030990547857437 8.281089050639508
Rh 6.89207730149973 4.0178474806953375 8.40947473215881
Rh 4.765020612797157 2.4545419803763253 7.256952059318383
Rh 4.745724015516451 3.124977213967428 9.664511851795824
