42
Energy = -246.29286635 eV
Rh 10.831432101157615 9.231316392762462 8.960985805282512
Rh 8.613205788817268 10.336110783056652 8.222291050783666
Rh 4.343998677617127 8.8977645955725 8.132444357523589
Rh 8.684937849877453 8.019606824727733 9.277398006538812
Rh 9.74326134748966 8.601527606612349 6.753190315851466
Rh 6.450295989539979 9.530107248215462 7.082052566423581
Rh 5.196033892539563 6.9538036703671136 9.602564043059749
Rh 8.373117990187925 10.469914695008892 5.674339631890583
Rh 7.373873513061722 6.417822080825246 10.488631314300719
Rh 4.349000907834928 8.339291840906 5.654090565149973
Rh 10.746766105523859 6.791046633892175 8.143232274354416
Rh 2.4485740177210946 7.519890320185491 7.177947912274159
Rh 6.263589099915982 9.456185961860166 4.483878673457538
Rh 7.413399989566414 7.364745667037322 7.1165063373136235
Rh 8.684096124513193 5.4355472244979595 8.524213877890688
Rh 2.8505032269239683 7.6319033761239226 9.72284291407691
Rh 4.955639247026227 6.274960785452404 7.080563725149767
Rh 6.257332301626235 4.741759845658575 8.90259658909728
Rh 8.39661583326271 10.145319208762738 3.13892331457362
Rh 8.455175100046697 8.128240809351862 4.6897777005663706
Rh 10.297884707898394 4.079018032090221 7.196423665202106
Rh 7.149945201305759 8.100225556455465 2.455337978717447
Rh 3.243824741380028 5.328987998601649 8.67652874577429
Rh 6.212612739530979 6.704085018372746 4.8085113489165305
Rh 9.4945463726047 6.1181922467299055 5.94935983199873
Rh 4.606544552453799 8.016285089841363 3.1506323451055467
Rh 8.15294186789265 3.0195960797162154 8.014419318929765
Rh 2.499776098634039 7.174603590003359 4.385869024610941
Rh 8.282211294802796 5.911203911129803 3.488408919444288
Rh 4.725345722188747 2.9873203690224104 8.507052237699089
Rh 7.084319924918923 4.843002355810254 6.495924064379607
Rh 8.886866203285013 3.8476749216652535 4.9670899328379825
Rh 2.671172278426202 5.3315010268730765 6.102503346028951
Rh 5.87801156983938 5.8921622544734245 2.2304629590241642
Rh 6.387891650685794 1.3335295491053796 8.032016915833765
Rh 2.6057520023418284 3.154352250758073 7.313672481040757
Rh 3.4322914310340993 6.297930755238373 1.8044151898366994
Rh 6.458942338368701 4.130862651554788 4.061712544082726
Rh 6.951259313200248 2.317214948389301 5.842053637643572
Rh 4.076531957953875 5.196720596231177 3.9499583044956568
Rh 4.808951637384101 3.654987949081723 6.042170760627462
Rh 2.6598653796870946 3.272015368045309 4.695343562277626
