48
Energy = -285.26039675 eV
Rh 5.962327472294447 7.816019217425578 7.234848131649875
Rh 2.701836927763489 3.9671358235501195 2.6788568516110947
Rh 9.00577943630239 4.936346865180839 2.2871377758811993
Rh 2.61269219150461 6.557109168256428 6.597808765206841
Rh 4.949648991963552 3.193866308136284 6.796184060569183
Rh 1.4807743357273149 7.948220768525227 2.5742905982876345
Rh 9.15623332573511 7.290569289727789 3.473871810893902
Rh 5.076331934146234 3.6318933260768858 9.595390711619213
Rh 3.291311880941234 2.035808222957986 4.215130190116234
Rh 4.910280365391494 8.489597482925076 5.050386314503421
Rh 2.160984724301116 2.4043882604239974 6.526770226448607
Rh 4.312520805502233 0.7907911770916733 6.412885741854883
Rh 3.4052626569955526 1.8813871219641374 8.614362353528922
Rh 2.210161334803008 8.363130720870682 4.915270169757767
Rh 4.364273250553062 5.387879680330117 1.3245781185403227
Rh 6.611482849400063 4.581866385534646 1.3790414111981575
Rh 9.935189137964072 2.894763867087824 3.608983023769255
Rh 7.475205301595937 2.8960075040558606 3.00335809829194
Rh 0.9001668776865219 4.697910750204601 6.50086140709197
Rh 7.0467184128894536 3.748244895279255 5.37782622080822
Rh 1.7981838171557578 5.84361326812846 1.322539069859882
Rh 5.718296851540166 1.6173324002914307 4.365996730855446
Rh 3.462753796151239 10.590398119264245 5.161611928622648
Rh 3.9186771162970175 6.880375765720928 8.722513537597552
Rh 2.984717591877844 4.413305827864569 8.075641834775139
Rh 5.839467562144267 1.363098700310302 8.616626280153188
Rh 0.914643012047596 3.2335898095195006 4.397847924629619
Rh 8.353756562825025 0.9799741944398774 4.379583230813221
Rh 7.38872714709887 8.146311711908439 4.99058425699811
Rh 9.314856941670456 5.040921883904131 4.8393346039179725
Rh 5.7961929707876605 5.417174609022346 8.05774952138977
Rh 7.05091244452014 1.318285195866604 6.476623639400352
Rh 7.361321422288762 3.4555142860976833 7.953733998910206
Rh 5.104429794076574 5.955727779197174 5.663553879039841
Rh 4.856519504122192 2.416620192622609 2.013573779242819
Rh 3.6378966848225827 9.341433207609048 3.027360811498105
Rh 5.1081962732301305 4.200440783908958 3.7006679289972686
Rh 5.6434374450160885 7.7999900546851135 2.621554203832214
Rh 3.6166693715912435 6.496878351494562 3.519520988662127
Rh 1.1931447506540123 5.846454565922913 4.058223183271693
Rh 3.4881823861128836 8.85844085711961 7.11378106458751
Rh 3.4243862264328127 5.207946040394742 10.427415782387413
Rh 7.610129589962729 6.9631609870160585 1.427352496869678
Rh 9.204900876934957 2.715244458742828 6.081564130884574
Rh 3.1215567136437063 4.407740050491121 5.288730329037374
Rh 3.5611730412982623 7.789748096786533 1.0407609278412095
Rh 7.691355736606624 6.030344272861901 6.459597379481473
Rh 7.014490451743807 5.905155989316556 3.7762728709293913
