40
Energy = -236.35401372 eV
Rh 5.533590513769719 7.670758257632682 10.035576800509821
Rh 3.078700419268588 6.753926613971939 9.583978159620779
Rh 3.683579756293574 9.100840479466838 8.77194037869044
Rh 7.409470890577936 5.747057335008098 10.456307845879904
Rh 7.993083306752818 8.24760060908919 9.593498759214617
Rh 5.2010953182677335 5.24968463943588 9.364596809548766
Rh 6.192022836987491 9.312098414243957 8.170763021798557
Rh 2.4089563480358254 7.272976870636636 6.9465842773426925
Rh 4.829296542669472 7.088956875941905 7.538418227549059
Rh 7.135706514690997 3.7379263481585365 8.603462170890634
Rh 3.0978876697788165 4.851569470319072 7.9419904974050795
Rh 9.374391867170026 4.915210534532912 8.67231720720607
Rh 6.185472809440019 10.599275197701937 5.916056488877217
Rh 8.49466657559829 9.645955307023803 7.024381491146939
Rh 7.366892650887294 6.326603039068305 7.952819876291725
Rh 4.130988731597052 9.128833384306146 6.260053319166577
Rh 9.591790683911649 7.435980655205085 7.9180669128941705
Rh 4.745153177388404 2.8589811672139978 8.55812215417938
Rh 6.824641156521041 7.996078812265179 6.0431782022501555
Rh 5.472509459144375 4.6723210223407365 6.766934639485041
Rh 3.4060494157457892 2.822307935963324 6.372694286736984
Rh 3.0317990555072507 5.254614073540534 5.446442235535604
Rh 5.231725113417262 6.41137092314663 4.837769569236445
Rh 7.964969751376306 9.656456567142074 4.368954626201336
Rh 3.1104440532021744 7.623651425985851 4.3941798077127405
Rh 5.448948168870483 8.959552117553246 4.037632082315046
Rh 9.298062812864474 7.724058126023563 5.455403921994202
Rh 10.373328359197785 5.5912140815079745 6.381987451730771
Rh 3.5682517545933554 5.290017105778008 2.98859444740161
Rh 8.694953833771182 3.5727060418308167 6.555610472428855
Rh 6.358214380809707 2.413294548598922 6.400808700257962
Rh 4.911226940795915 3.6036406371502236 4.544119000814401
Rh 7.424034492064854 7.227514330372309 3.4475822209460083
Rh 7.7368474890358305 5.534405636721081 5.422523819323447
Rh 4.955148181589643 7.297531408016801 2.247750297555714
Rh 6.082085244991066 5.056336829687916 2.7824653632262777
Rh 10.132820828772596 6.599199207809588 3.462433029662281
Rh 9.844610298400406 4.26302210344909 4.314283580179472
Rh 7.428023077910947 3.3328330676613476 4.211689654167004
Rh 8.478738016406542 5.048631263313734 2.3623726462814436
