44
Energy = -261.9002984 eV
Rh 7.790809154905089 6.3637028426493645 8.510722764459416
Rh 5.843456030773873 7.063104024886858 10.155516098870107
Rh 6.1051003204982965 3.005000796182853 8.124215512275214
Rh 8.526544472317587 3.873574555229693 8.42766444952926
Rh 4.678724685559026 5.358662265242063 11.579073683027099
Rh 4.034015568055037 3.8352661456542094 9.656929035136034
Rh 7.861483252907919 1.807270832889089 6.875600986244017
Rh 6.581819705510611 4.567403648344217 10.061949916294092
Rh 9.336344001036622 8.310431778977307 7.680539177814933
Rh 10.028051635542557 5.730154377402286 7.404771084777889
Rh 5.180337283868546 1.5921067390959347 6.280318273097176
Rh 7.096192360869139 8.832296031182828 8.865361222056631
Rh 4.444702736317423 8.550615799623218 8.592868718161828
Rh 3.7978613283742795 3.542787234381394 7.120557776392843
Rh 6.021394594855077 7.522732801080016 6.738581993842175
Rh 11.490979546961505 7.5747255435049246 6.3624242402829205
Rh 6.972000545971244 4.8747723469275845 6.464535061915693
Rh 3.314040006304757 6.48225957536708 9.7066395072951
Rh 9.20617072257745 3.7099239664122385 5.880889328275155
Rh 6.758435161590027 2.9771331431526393 4.889384183791421
Rh 2.0076340812761346 4.8524418904591675 8.18787158553688
Rh 9.76995824281937 9.004567543840704 5.152318805767542
Rh 3.1175361650767264 6.898436679176108 7.088930942190288
Rh 10.4960017999237 5.771576879424371 4.882672971184351
Rh 7.536896868821406 9.549903293938545 6.301953720936762
Rh 8.408341893166414 6.923872466324031 5.7670413288234705
Rh 5.621616469590032 10.571508099590735 7.594174441985858
Rh 5.114466687661039 5.590147515718783 8.185334031556328
Rh 4.7053968599401195 5.522768519060494 5.548886879192321
Rh 4.153606258199024 3.1628025300530243 4.540306839775813
Rh 5.640112615994564 4.699954791249473 3.233155615583424
Rh 6.368256386290893 6.967879071107592 4.216165726555756
Rh 4.125477062529052 9.07570951246663 6.064505175246048
Rh 8.129601016136585 5.029267607798178 3.948425963575935
Rh 2.270258604876104 4.95140806323213 5.547196628437528
Rh 9.174839468244148 7.306536892770942 3.2377723148189848
Rh 7.539706951109222 9.181801710720409 3.760337483685732
Rh 5.790570394849786 10.797428460971076 5.029513754318515
Rh 3.2353247294166425 7.177421875430534 4.444323979491398
Rh 7.1999236624940695 6.362861732020413 1.9020516155918041
Rh 3.0644922704068707 4.953971193426703 3.0314850120801355
Rh 6.402724800896205 8.69002656510536 1.5511061925900815
Rh 4.916688268728301 8.939385043707329 3.6441708747640784
Rh 4.598516876066643 6.900809163529918 2.2181666520790784
