43
Energy = -253.94578266 eV
Rh 3.726034428812506 7.6097092667394355 9.43444871111789
Rh 2.8558183551056624 8.815008253972866 7.313023582285646
Rh 3.283730545815311 6.266402642359264 7.25473708341032
Rh 4.034868262236459 10.987280785769762 6.8000835051214885
Rh 2.8286830131151337 7.501363392889365 5.038498715348802
Rh 3.666725236544167 3.7265111144007887 7.328003784175455
Rh 2.913445232308112 4.833173769244055 5.106459721796714
Rh 4.4187488722948745 5.174824688450682 9.32700399361776
Rh 6.303794018537959 7.773397221977846 10.073501243279495
Rh 5.185324186953612 9.454396055698558 8.485575178361337
Rh 4.824225993934581 10.638617038448698 4.4387367309453145
Rh 5.775923490784446 6.825648370439925 7.789563463790484
Rh 4.717005395195256 8.190218449933793 3.509959247285706
Rh 6.654692084714473 10.606852878139527 6.599086266141769
Rh 5.398721615703044 5.839000448921512 2.815807742480034
Rh 5.093246897491735 8.645313052322102 6.036839636434498
Rh 3.8654959336716206 3.886258385254428 3.019606606532205
Rh 5.026430489546317 6.093026329825281 5.321940920594098
Rh 4.108815744846554 2.442467168534347 5.1855279781674275
Rh 4.441959159391496 1.3030881737423945 7.436418049126911
Rh 5.578128732921418 2.915623865086497 9.024632942180626
Rh 6.016889461248813 4.3342035396301215 6.964773612416903
Rh 7.627767250680061 8.692021343410875 8.018746721304062
Rh 5.8185099099108655 10.025518718155592 2.183454933705345
Rh 6.0371808474149935 3.890885124590074 4.381640330910154
Rh 8.749985104027774 7.08107405554959 9.734119277376907
Rh 6.936110894790416 5.164667887206094 9.70290806256617
Rh 7.010180402417427 7.76996850869785 2.3192027134905095
Rh 7.382879642835121 7.293105912223502 5.752656266363899
Rh 8.265639987279066 5.718416121914817 7.605002216977388
Rh 6.515224737390863 1.9880559721232696 6.20685124884639
Rh 7.050109921753773 9.434781772719072 4.327018894252218
Rh 8.971975950511736 9.572406686216102 6.014979902516746
Rh 7.73495643199789 5.767377069403847 3.820354465561184
Rh 8.270406187058104 3.9942058060068812 5.583807015860646
Rh 8.000264141782045 3.124845101220128 8.252184650948978
Rh 9.948245636872311 7.6954709726783666 7.517763207195741
Rh 9.496536281625966 4.642461904407229 9.68971491823715
Rh 9.1200744387423 8.003188266361082 3.8964790295768164
Rh 9.780178069469097 6.0696597099134095 5.494422295545786
Rh 9.097087950546184 1.789110793576637 6.422918824743467
Rh 11.121480109406177 8.238631388501565 5.378313101920882
Rh 10.249720161977804 4.053503401192476 7.247288111372182
