48
Energy = -285.85822744 eV
Rh 10.013380427343247 3.1967794063184845 8.754074203158709
Rh 9.17363930441692 4.782373104666338 10.56820882129712
Rh 10.009478243643851 5.833500805802104 8.237027362502578
Rh 9.52482231385635 4.077142452820942 6.350975286734429
Rh 7.693767164247473 2.6671521668103315 9.978786092556499
Rh 8.055520656990332 2.1832724080612396 7.389281886373651
Rh 10.238577635995481 7.142488262919391 5.94082734860623
Rh 7.8170315562699315 4.551015803907776 8.276129202944295
Rh 7.58969662076401 6.623055503454737 9.692834944064355
Rh 6.750708902037715 4.875873835178613 11.31368164862449
Rh 8.736837111450715 7.996984159923646 7.844277814659241
Rh 5.891312186456224 1.5658873431361942 8.498879939146285
Rh 7.935170053933164 6.220459512939689 6.175389944612918
Rh 8.564957729851203 2.0599296642639477 4.907050799012713
Rh 8.321375340199225 4.44329380476419 4.139932079423086
Rh 5.499972354942524 3.962479939602807 9.31369735642285
Rh 8.186227310682074 8.808678793664734 5.4365215529188005
Rh 6.126670219101096 1.5972150177599593 5.735650177452389
Rh 8.702941686453611 6.938718016860666 3.7394399031354166
Rh 6.459900692491947 4.0553657582966816 5.9748022604397
Rh 6.277890190859722 8.432608995029268 8.438795987929048
Rh 5.842919384977526 5.943908882516889 7.726102643821523
Rh 5.82887312548405 7.835348998723068 5.909419156505298
Rh 7.481023446908842 10.297224093749639 7.375814411017503
Rh 6.615187886932665 8.455996488461103 3.402757765477559
Rh 6.530026407767302 2.7931563367773737 3.3924190668350502
Rh 4.3955687835321795 3.0059447873925493 7.169063817281948
Rh 4.966844614863943 6.545013370746306 9.951534802508219
Rh 6.242702942710797 5.917589404931398 4.098451762121452
Rh 6.013377102383406 10.251517244168179 5.256786079318444
Rh 4.256890321474747 5.652504994408701 5.778205876887051
Rh 3.392709350318688 5.193741200125821 8.235744414348837
Rh 3.5633607519348525 9.261564372774632 5.616090915687773
Rh 4.340582217563608 3.295898324256629 4.58257938938935
Rh 4.790758005776888 10.226326627724095 7.553622723557159
Rh 6.911644049423298 6.419970358257414 1.7710798026049894
Rh 3.8118451761886285 7.644498068744296 7.60169346481296
Rh 5.004053064644942 4.63727912895766 2.4426410936737333
Rh 2.3426020296904744 4.049033691503727 6.091472886589034
Rh 4.427909720473699 9.90554162937271 3.20714890864379
Rh 4.129313405166341 7.3870020660454525 3.777214128261362
Rh 5.015142541941103 8.040329627144635 1.4447146176061376
Rh 2.0383668642172794 8.911432984783042 3.680268889366945
Rh 2.745132549495812 5.110898735388324 3.7388898459188207
Rh 2.095956614812421 7.029421754192507 5.452958553378106
Rh 3.2707959877971438 6.2122133648775355 1.5079953031453972
Rh 2.5695735905923103 8.666124521556505 1.2771240280247742
Rh 1.1021793426889623 6.803355190903709 2.796571583058306
