48
Energy = -287.29668879 eV
Rh 6.8592837429494145 8.26757708452493 8.246083967413163
Rh 4.640790089174496 9.658102040641515 8.815136288800355
Rh 4.649284810649372 10.602274332993376 6.315949824966171
Rh 3.3174684075008267 7.339236793001217 8.873940140372351
Rh 5.410476189236869 10.016838605697417 3.8871222263512744
Rh 6.85908894401242 9.173250945410702 5.769141271831734
Rh 6.859161052377909 11.660660019802771 5.411831534297596
Rh 6.859069045813654 10.842277366202856 7.841313919281851
Rh 6.859035543919421 9.904592069143707 10.22820001031674
Rh 9.032210805818584 7.984461044970531 6.749493352656458
Rh 9.068915373897212 10.602430947034073 6.3163386217679625
Rh 9.077650561142892 9.658688933884969 8.81580833227187
Rh 11.150281089689498 9.270101938859334 7.280149513638895
Rh 10.378250508036501 8.735186868818976 4.767901830192194
Rh 8.307981906259696 10.01684398768035 3.887457970449453
Rh 8.208148978325841 7.6777487992733935 10.409083737099243
Rh 6.859298988904443 5.39359602105304 10.586648528375258
Rh 5.510388295577286 7.6775767814227285 10.40861238730684
Rh 9.51120140359824 5.406913580878787 10.430686941704602
Rh 10.400985616026688 7.339648379887278 8.874260272912254
Rh 4.6860563289261865 7.984136319355611 6.748863574686188
Rh 2.5679359221523517 9.269602570896753 7.27979841769223
Rh 2.402282131055411 6.7302196453792975 6.424739805284847
Rh 5.527106637290005 7.405310875594772 4.140894434290667
Rh 3.2347808255233574 4.780681469874356 8.037100928287154
Rh 3.2043752523628295 6.258709298039642 3.9764038723535204
Rh 4.674462504418821 5.452998178872968 5.860739553666032
Rh 4.553718157059063 2.991073106189318 6.56730732379253
Rh 2.481446629966729 4.24113589413416 5.548993499453547
Rh 3.3398553773022734 8.735188758181952 4.767459620995564
Rh 4.669404436720954 3.680617623686638 4.048737544727944
Rh 6.859199397930437 5.088027736056136 4.202405389161484
Rh 6.859238208650419 4.010666207449774 6.875271700241987
Rh 4.207334525427678 5.4067012071837155 10.430535867803101
Rh 6.859006644539187 6.671142381194865 6.246016466273631
Rh 8.191107687076995 7.405459423239558 4.141233991350941
Rh 9.049043072027036 3.6807888464904845 4.049628561028986
Rh 9.04376164131695 5.453206699606497 5.861311734928077
Rh 6.859402625793185 2.6122917774359182 4.848544381084175
Rh 11.237240997153016 4.241612078281941 5.549313128407648
Rh 10.514158408065358 6.259507558267011 3.9777623323401783
Rh 5.512776273478145 3.5822528353134664 9.019911046049003
Rh 8.194702742771197 5.993582212379708 8.336911898357217
Rh 9.165074624367264 2.9913260708902536 6.567567263144087
Rh 8.20594048922559 3.5823646666985076 9.019861054876326
Rh 10.483522527267722 4.7812008420189 8.037361639996757
Rh 11.316136171493271 6.730596500971318 6.425297372176611
Rh 5.523696514563199 5.9933309346902774 8.336605032379394
