43
Energy = -253.13315933 eV
Rh 7.8730072303052046 8.528864404877156 9.428938869351049
Rh 8.415520028024938 6.999674535549117 7.4695348786128655
Rh 7.7997598242201995 9.449812597161003 7.0553577614265635
Rh 9.297957581852504 4.578094598889996 7.842875113069779
Rh 8.828124615399886 8.174583445990999 5.07929023314298
Rh 7.722991513026069 5.814008513061462 9.572410019207886
Rh 9.200278793800988 1.9708244816174807 7.888514747630548
Rh 8.770002068436337 5.611311084899091 5.345752100476386
Rh 7.384542896736744 3.27741707806697 9.03693053190467
Rh 6.487463285052221 11.607813021763304 6.798251364624311
Rh 5.689824859961071 9.848809840527215 8.4797422113027
Rh 8.518582964979084 3.093286513188916 5.735433163784703
Rh 7.566473945611625 6.678866729821552 3.361387505837246
Rh 5.937889453881906 7.252589093399008 8.474093196125008
Rh 6.905766778227558 4.63233314296611 6.908554028118812
Rh 8.224500629568434 9.077964595672771 2.7140471811465985
Rh 6.482170958372885 7.202434035229671 5.753198130767789
Rh 7.4675972546774245 4.094071214518513 3.624506337796073
Rh 6.854765478378165 1.5268448289747893 7.0982381166369475
Rh 7.443513518797832 10.396867718892207 4.740401813848036
Rh 5.382444002271819 4.806671373844496 9.08729386827779
Rh 6.529728816145848 7.766369483561169 1.2577272243987834
Rh 6.577398115346809 5.1883018329672455 1.469716454291359
Rh 4.989118435325118 2.3236748087083154 8.754207057180581
Rh 6.558329004564837 1.9337089120453346 4.5958065834982795
Rh 5.336059020196857 9.526972650276418 5.938021235495781
Rh 4.481987368056197 5.91172379390621 6.886367309752363
Rh 5.431319181296528 5.060674705927101 4.638049359071804
Rh 5.858713626337134 8.658339856096049 3.601388335478322
Rh 4.952100946043526 3.046976741482346 6.3381978791114895
Rh 1.5873532067492404 7.453305205029141 7.808379238743527
Rh 3.4177019805277187 6.456624656282976 9.165608346957097
Rh 4.718806006710434 6.5910377787280074 2.681452645260922
Rh 6.128382986966561 2.634157626549428 2.0869957264406294
Rh 3.1297584108607985 4.062691993540715 7.979547994421471
Rh 4.215563479048678 4.308951444480474 1.712228096770253
Rh 3.77037113817368 8.446898144020897 7.536277607599462
Rh 3.90464281876144 7.533268852640833 5.005498988711549
Rh 4.340307973630285 2.9149390898573206 3.843352821742415
Rh 2.0524024272202497 5.7840024780283725 6.210401257967274
Rh 2.9503742540049966 5.26166411317896 3.822857670425067
Rh 2.5139120767385648 3.3293780371480093 5.5395437848833415
Rh 0.668901420184702 4.641038329970833 4.565959644199001
