42
Energy = -28.49531824 eV
Rh 2.836514122567895 10.218678887559193 5.472658003319645
Rh 3.804231984274528 8.19587109860013 9.351982031858654
Rh 2.1265560470840956 8.641038583524404 7.286438754151085
Rh 4.58263446531612 5.789141078150961 9.822155941796359
Rh 6.946855856403604 5.788596759330075 10.607299140365734
Rh 2.718891123368284 6.1922803066612815 7.977604444760014
Rh 1.4898959390822106 6.706818143295677 5.685444183980764
Rh 3.8042254274571063 3.855395003777406 8.236280508807114
Rh 4.053386944739206 10.20166436889615 7.864292243841128
Rh 4.2874681200864195 9.853905806216337 3.4498454990180742
Rh 6.594348870380141 9.846802283421319 8.149669531007696
Rh 9.25821441177816 6.738693160511173 10.30898054163418
Rh 2.3316170412988795 4.324787813066772 6.185927973138143
Rh 6.176206341197555 7.301926943156321 8.366816029809474
Rh 4.436131226948155 7.61908508844718 6.20364097055816
Rh 2.5734652055460354 8.104839840378688 3.916117254192791
Rh 6.282450739688993 3.9361318833690873 8.850230693807914
Rh 5.442476485798836 5.30102042714329 6.627451020485258
Rh 3.463371021023318 5.677209141152134 4.29490232989838
Rh 4.227267767952183 3.1764192849207133 5.034807879590869
Rh 8.670141551446813 8.38845649312643 8.365602338749197
Rh 7.996090436831168 5.676611125835023 7.368550579403468
Rh 5.5869211805219035 9.965136387062758 5.755229125475597
Rh 5.131753046535639 7.388262556916399 3.2062918769854907
Rh 5.258600674459886 2.1230965724186905 7.129130619284535
Rh 8.107528081572266 2.493615842585777 7.685026672285103
Rh 8.13133498095807 9.620231366407149 5.951811651347572
Rh 6.8618262201994975 7.279415653785733 5.565161969917797
Rh 8.900849186288381 4.296899627660936 9.484680098716188
Rh 5.950163998670244 5.0385528432098585 3.9630749726912398
Rh 10.597712378466342 6.40378131551178 8.228006874357666
Rh 6.806990372205353 9.37916408660992 3.503396796886219
Rh 6.761844861536792 2.8787526436926427 5.266589848703944
Rh 10.220796717241086 4.074609744536754 7.174972717038503
Rh 9.21089057814952 8.723084626832886 3.728917085442334
Rh 7.689249568226015 6.785120757006433 2.9673723875067326
Rh 9.604504556016407 7.535648204643907 6.068688907543651
Rh 8.3915411537974 5.062566243878003 4.903901892865619
Rh 11.684519571018075 5.946698939820896 5.923829486274665
Rh 9.253208636633461 2.4699526637725717 5.375686955660948
Rh 10.31749467193788 6.430344725928174 3.6922623098861354
Rh 10.919015033221708 4.072164603990237 4.4289856221255635
