49
Energy = -292.32053023 eV
Rh 5.30966878562154 4.188373074209741 0.7608787951492207
Rh 5.57749050863747 6.753105814486463 1.5086676869387652
Rh 3.119789804016217 3.04070456442472 1.1009174375402695
Rh 3.2989698528958553 7.54184641727364 1.910175535793822
Rh 7.776018809736229 5.452774074253215 0.9492998037341608
Rh 2.059789408627499 5.456095440712203 0.8746255721758153
Rh 4.3121192885968656 0.7538334186660343 1.5723455973865852
Rh 1.2341224251736358 3.839809886555042 2.6993670541385635
Rh 4.929324625813526 9.228252518480843 3.109911883299366
Rh 7.533078442098838 2.953353693734522 1.7260392340451614
Rh 6.408264621883497 4.748816687160559 2.9409009821506236
Rh 7.6761891082135545 7.075693963881058 3.0444346447538413
Rh 2.39874710848604 1.4545578493830345 3.0668055076089247
Rh 3.6885643186804984 5.069216296733696 2.802547834769617
Rh 8.925276942347688 4.594872274699355 3.426033478391482
Rh 2.7551431779378714 3.363665407331287 4.778298917272559
Rh 1.3459095936778014 6.379604493910026 3.171828094099445
Rh 2.783614012413976 8.376765409982557 4.270637116823915
Rh 4.5015851859412015 0.27766329733664685 4.150282605020452
Rh 5.119569342123726 6.9832725376682 4.0965478140582565
Rh 6.638808139548547 0.8768213304871578 2.7625157772073843
Rh 8.833938739143898 1.8026921090334749 3.6029472140198076
Rh 4.835384544296942 2.6827053389275246 3.1493950603167145
Rh 0.4954925827629909 2.1857699568750104 4.634233979132928
Rh 0.49222251392596733 4.744971787468831 5.0746253687385225
Rh 7.252876412616713 3.051730129820408 4.9775274685419095
Rh 9.08961113155369 4.426818312268847 6.154553907666761
Rh 4.963454230183066 4.524004317037219 5.009039834678081
Rh 2.9061636814861873 5.962700000295912 5.245853201760499
Rh 7.192904134162582 5.696680976527275 5.154721611440995
Rh 0.7363384828140873 7.296824975103574 5.5162508300640365
Rh 9.387364055570597 6.85180426018889 5.062971718782125
Rh 2.5525811672392122 0.9792965296463341 5.718851797575905
Rh 6.847332458289659 0.5723030189621034 5.265440441504863
Rh 4.799052979130247 9.052887383938774 5.7555469453951025
Rh 5.004070056681788 2.1906833138090644 6.079888066857651
Rh 5.300557726212551 6.575344071926184 6.868951537304219
Rh 1.325834984543615 3.065233406866881 6.941117415199178
Rh 4.5597562807869485 9.228252518480842 6.6882839277054655
Rh 2.802304274066124 7.894900745378968 6.916692153659613
Rh 7.105573627026911 8.216370569896677 5.398451953400055
Rh 3.762234863435957 4.261584253492829 7.234810596267877
Rh 6.436506961478303 4.213769108745588 7.149036017985772
Rh 1.4274430434224699 5.620593293832562 7.375728780793289
Rh 7.930761734394841 6.576124576078286 7.3449292811667055
Rh 3.35630480926861 1.828814229610116 8.010565135520881
Rh 4.760182034360399 8.516362684805644 8.303212548457601
Rh 3.532607004585526 6.2983650922445 8.781528677237796
Rh 2.2184739384136423 3.9908595499320545 9.161155110792688
