46
Energy = -273.89715391 eV
Rh 2.0434572396271613 6.52201002625645 4.897090582789645
Rh 6.103094684611372 5.83422117585965 1.5792126946648575
Rh 4.7717111783013735 3.7736667538406947 2.4748892317392928
Rh 4.010231798200615 6.100791935778381 3.193901012572975
Rh 2.104368486079842 4.960725702890561 6.832660314791363
Rh 3.0355844123310125 3.9801602318158205 4.470503516326197
Rh 3.1209523872251745 7.617924009557828 7.139185498123205
Rh 5.028289402101323 8.227370748716226 2.323330394845663
Rh 3.973766801703453 8.238537362868497 4.6892138646025465
Rh 5.490533826623315 3.0815555893426674 4.797107073155524
Rh 7.349792051885549 3.3654207022217677 2.8547875562368787
Rh 8.646107946319969 5.576857592420463 2.270977886714965
Rh 4.3273722245357975 5.68911344724992 5.84461015412573
Rh 7.997203091360402 2.3786713080596438 5.347666165958014
Rh 6.0588799543802025 9.631023879998835 4.283033945039926
Rh 6.285769183458077 5.373768202419653 4.058749929519553
Rh 2.2998046169244732 3.4629603753688243 8.845371665603974
Rh 2.5307410176064855 6.053526460435737 9.162762883114677
Rh 3.770165214116275 2.910442425254265 6.725167130129236
Rh 5.051618296962834 9.354218856597697 6.784055854823275
Rh 6.310578161747411 7.394363791836766 5.487389550477857
Rh 7.362689726593312 7.603913411972066 3.161464830849885
Rh 7.147450856632161 10.883051091649378 6.2996172990028905
Rh 6.274673662079005 2.265705700107836 7.065040706908427
Rh 4.471937944276882 4.68403766690372 8.39703548163672
Rh 5.255089493977168 10.149779536185067 9.06599576292094
Rh 8.510127496220973 9.019345939380095 5.108861242921989
Rh 8.685898517816849 4.634389467674044 4.638781865755419
Rh 5.507931578969136 6.916922157820832 7.881679543592661
Rh 6.622157469094424 4.852634021818726 6.625010541145553
Rh 7.431179055913508 8.651663022988009 7.440267066848172
Rh 4.74388941641488 2.2818402928510855 9.049405251639483
Rh 4.055892612219149 7.965118751522045 9.571101125380796
Rh 9.709327400407755 6.993247001840646 4.113681534211973
Rh 8.602531571382428 6.593456905265499 6.411175094207586
Rh 7.862867206826895 10.472627494454064 9.079230386275079
Rh 5.785572691567799 5.850718206113852 10.20777982724711
Rh 9.549657927018194 10.248742531269082 7.153924151735753
Rh 6.905442178080722 3.7490242594895045 9.002148445031171
Rh 7.934432742529832 6.074400370993924 8.869365172736902
Rh 8.998418748425584 4.1069363239632155 7.212305560729172
Rh 6.738192158265208 8.244977032446668 9.836531114565009
Rh 10.63547563519872 8.037430057203306 6.389249593664279
Rh 10.891540122629662 5.424868800308349 5.836282638362167
Rh 9.416529083399434 8.30824969775381 8.899463458563472
Rh 10.404804883404324 6.076639949982366 8.242483948165546
