49
Energy = -292.12210563 eV
Rh 6.265059037514091 8.601671361540342 10.38661386063895
Rh 6.5092582007747 9.326050924586298 7.873924165854042
Rh 4.509963761683876 8.905454743638789 6.278557932807879
Rh 6.627050135436108 9.893069623907097 5.338408379334832
Rh 8.299453788389465 7.727691387471262 11.608241642307943
Rh 4.144919380895939 7.312425791730983 11.108519081910119
Rh 6.467698452346131 10.232959765869317 2.8446637060559232
Rh 4.376684076854831 8.08428101674361 8.70166932431503
Rh 6.565155601954246 6.61898430930493 8.812315908165743
Rh 8.672490301143288 9.26358302351865 3.886188623336002
Rh 6.426397006963563 6.036883534698141 11.289125861042065
Rh 8.544294631049182 8.295485975481398 9.125200798989736
Rh 2.376434659494591 6.602884478653533 9.249540844960741
Rh 8.67848446730134 8.821723302511979 6.507828647567531
Rh 2.9591094486392535 8.782981176225352 4.295748142493129
Rh 6.607682331569583 7.248644782898609 6.252224351608285
Rh 6.501092118711968 7.841916601349786 3.677888196338962
Rh 2.4692025492023957 7.493683689208413 6.815715883214945
Rh 8.732325854919418 5.810241398564123 9.975902973203057
Rh 8.469646617942118 9.695833182882899 1.3771080225620234
Rh 4.336337035546189 7.4907665991437495 2.3610792154915767
Rh 4.519963619158741 5.2088531966071265 9.764975160370168
Rh 6.382915440887946 8.288536709962086 1.10434656918939
Rh 4.555109043409045 5.863408326039032 7.213947229409363
Rh 2.240132986997046 6.439485952508426 3.5617427726089286
Rh 2.6073743993761167 4.332523143500836 8.16091787665665
Rh 8.93147650777477 6.431744554508352 7.367929249700622
Rh 4.457824151241823 6.802746800507559 4.870998576353607
Rh 8.52872734680368 7.2567109194843855 2.180976973827917
Rh 4.261595993653964 4.941306157104663 3.1157109673692105
Rh 2.498346137247348 5.247877744598129 5.7777054661721285
Rh 6.863539302420124 4.021645951670649 9.599953721721095
Rh 6.39789086143061 5.811161672376339 1.9144264246643237
Rh 8.76110209497878 6.801501608871183 4.77891464586571
Rh 9.10334160377069 3.9701920703070424 8.239904138135765
Rh 6.947579148564859 4.7008651878717 6.946363410646552
Rh 6.496053698226716 5.241682275795 4.489856758716153
Rh 4.952326855253128 3.388850035055617 7.926585681490736
Rh 2.0520830169850104 3.8168912270863053 3.7879237833002493
Rh 3.3037221481048764 2.949325427022026 6.033052963462857
Rh 9.154308896831386 4.472278763444777 5.694162608680859
Rh 7.231306664149593 2.243922909422901 7.675585217948464
Rh 8.61959298267593 4.825892771312535 3.083065057099187
Rh 6.336701695346895 3.4127096702444155 2.6470239822437747
Rh 8.035159737444161 2.5521331529109177 4.398002452681394
Rh 4.17210551873942 2.4410350658632547 3.6617095765503507
Rh 5.846297565174386 2.7472392640232983 5.556123699391145
Rh 9.354090582617976 2.042152580617865 6.3955169379235075
Rh 6.22711669396573 1.036634342915994 3.662636687183578
