49
Energy = -291.8905438 eV
Rh 10.031064960040137 2.9327146477773263 4.216460920036034
Rh 6.732269999820242 1.757492211449261 1.3338167750093215
Rh 2.860116816640063 7.051185505066151 1.4577903869759974
Rh 7.219765706970576 5.370828453391966 6.4615826930068
Rh 7.6500632791651935 6.34143674282102 2.1417738936028075
Rh 2.129097876521467 1.5974695314769503 5.854273710808549
Rh 4.253502758212324 8.51044825434661 7.746376382076183
Rh 2.165197009015326 5.7438481379453386 4.379052371119709
Rh 9.417885234919623 3.961868895874172 6.604272618831849
Rh 4.978834995283119 3.5739968474128916 8.437533656457456
Rh 3.2718694568175195 3.313785873731422 4.287828953944542
Rh 2.9680013739541775 5.0798760784193355 8.819933792537148
Rh 8.902349505477696 5.340842420784295 4.321197294786423
Rh 7.12360225620539 2.816187109212224 7.440505157373144
Rh 1.734125125339355 1.5370974151229002 3.254092775247462
Rh 2.3994989067262322 4.1979227194493784 6.574068872317684
Rh 5.970289222545461 10.080136702448396 3.002451082877793
Rh 0.7312150961699364 3.5378392152264837 4.7181738276503316
Rh 6.659329980844079 7.82766679374635 7.045028275062803
Rh 0.28393070651720326 5.69141435835106 6.121984928230299
Rh 5.87626141674049 4.091845918636506 1.254784837920801
Rh 3.027478840062853 8.03715499113415 3.6808307805414913
Rh 4.013655987805635 0.7574493786303651 4.347636211181681
Rh 1.690416628224587 3.913787807760355 2.235376917944277
Rh 7.280289076793349 7.323981349448329 4.663919434544001
Rh 3.828197888950974 2.466001385086627 1.7950198856257769
Rh 7.617360890404276 3.1950921383512862 5.012343755887478
Rh 4.566410525450335 1.628294770779023 6.765102621414213
Rh 5.142007244730169 3.859661232831492 5.9043479899122255
Rh 6.31309342848055 5.034469720858363 3.7862436736362564
Rh 6.518453943715292 0.8237494000530896 5.414189515782075
Rh 0.6026160784685641 7.7409801396729625 4.528156912489488
Rh 5.26119983875061 6.436348082949268 0.6629156612331215
Rh 8.203656318505741 1.2169059832134597 3.4188680513332455
Rh 4.0100113005774745 5.189278801610384 2.703966059754501
Rh 4.555346543844205 6.320043766659064 5.199929490055788
Rh 5.04102093490255 6.074254142106168 7.714591740563638
Rh 8.990226999122738 1.3715899401277614 6.029252221980012
Rh 2.5672859465535502 6.785265026666207 6.94558031896672
Rh 0.8243291970691038 5.866156730232032 0.9988308134272786
Rh 3.343422515973535 4.606547587435831 0.3056164824065924
Rh 5.400550344642698 7.440659042142727 2.9543726290277714
Rh 5.652659422272968 2.504889795994322 3.5533040574363226
Rh 4.9946485039530994 8.765711195725816 5.312489012737837
Rh 8.136237356903449 3.6575411683308148 2.4526424335882426
Rh 2.457368359440205 9.020484233402287 5.901670170276394
Rh 2.7359588147004805 2.4515104528009712 8.311201238309035
Rh 10.031064960040137 5.58886904358079 3.3022069773676255
Rh 0.3466708715516907 8.077329305540367 7.011517750789648
