46
Energy = -273.7527248 eV
Rh 10.165126404556188 4.0419879251850075 7.771411635731897
Rh 10.487592446939724 6.590329105760146 7.43928241442002
Rh 8.990797056873124 5.164129447362605 5.862602963287885
Rh 8.728471616884924 5.776505035420667 9.08085625613203
Rh 8.036366449561333 3.317628730566065 8.941629505001737
Rh 10.84796292893983 9.014791325817281 7.017412268795015
Rh 8.365217230276567 2.7291515045699515 6.387678206331461
Rh 9.85043961256984 7.55377865207995 5.165914869524594
Rh 9.161524740103612 8.398920662156897 8.845422358320095
Rh 7.579780803887486 4.752579979460562 11.029184754969329
Rh 8.641611496859632 5.981310328728707 3.476467714983351
Rh 6.74643369374377 4.692406854946452 7.2207895720927775
Rh 7.244523690069617 3.9051221433361785 4.343283042544187
Rh 6.1662484101015815 2.1325102513537817 7.586602126429342
Rh 7.245736745748667 7.399840647373133 10.331696859161442
Rh 6.3491890608234725 1.6803882005808015 5.0775198253623675
Rh 8.436998298100955 9.440887708146626 6.382050650214161
Rh 7.748827373514531 7.11670911986604 7.1836913657837425
Rh 5.802460399239539 2.9611563510917907 10.031783484962375
Rh 7.816246107966011 8.625098224209735 4.056203425481656
Rh 6.613303983716735 6.312131001420115 5.092841369297748
Rh 5.717993501976003 5.461289696058397 9.576684073599012
Rh 9.862129203109019 8.041084293872785 2.669559607077934
Rh 7.447632146377965 7.546689721010171 1.7865436717655416
Rh 6.717578557027117 9.0867736541867 8.367046833950315
Rh 6.1522895928801695 5.4937164403555006 2.6140775587751843
Rh 4.868392667843557 7.824869524902247 9.531419387889775
Rh 5.015792876253128 3.240124429611339 3.2159016866455326
Rh 5.986289297332831 8.739635786569396 5.865811272254742
Rh 4.372473886926586 3.850712162224434 8.123883983558892
Rh 4.86865898275176 6.683280153628123 7.076572723446301
Rh 5.440476343706024 8.029055610306154 3.34960956938138
Rh 3.1701419532031645 5.942310866406859 8.971670406473482
Rh 4.914012946329668 3.752084848498114 5.649338059350481
Rh 4.125830270051649 9.249494573470814 7.520976464511714
Rh 4.957553124908656 7.138741814213019 1.0247359585132494
Rh 2.5096781659671676 8.46505004616024 9.419830853757666
Rh 4.181394630508561 5.983351343914218 4.432165187174225
Rh 3.719385895289674 5.065868973901581 1.9497305195617973
Rh 3.5500066363103673 8.455972181018302 5.085661007179398
Rh 2.798438822931539 5.029513894435576 6.5449443561965
Rh 2.275509189375415 7.4777770456534745 7.123089332651802
Rh 2.986170815007574 7.526975627496596 2.713145902032777
Rh 2.63598995552785 4.0667288264426515 4.124986661994073
Rh 1.3414620831201578 5.573270230206918 2.463352104198606
Rh 1.7012340306912566 6.620871579232645 4.769800918421903
