43
Energy = -253.1249173 eV
Rh 9.697575744776572 8.34402466124138 4.780815748131074
Rh 10.9928477043602 6.841864297519696 3.379896237624238
Rh 11.157759830068096 6.8629669693002855 6.285913793711047
Rh 11.000266439201775 6.395823483436324 8.808787669216624
Rh 8.456691758248303 10.403000425531015 7.658769613301546
Rh 8.380124699370867 9.730205554754255 10.19896520944121
Rh 8.666409477632273 7.0240897618530935 10.102890231460597
Rh 8.674322677759461 6.231064025388327 5.753660449997457
Rh 7.394898697045913 8.905453890035032 3.6004223856445243
Rh 9.289817769989503 7.973118971223841 7.81965724397564
Rh 10.649545351785694 8.635415271731743 9.876406665408677
Rh 10.630178261754567 4.827578273103619 4.6853972467417915
Rh 8.5470346484517 6.8515465979172205 2.8202439491152584
Rh 10.643599069523002 9.71789082283829 6.698941117890716
Rh 10.417040441229593 10.943356532185812 9.102433374576371
Rh 8.565455478533977 10.555470283231495 5.210403207462136
Rh 9.06282146488218 4.720348530787704 8.674204962224922
Rh 11.098786126481015 4.429845553837812 7.190237155239785
Rh 8.729457032848229 3.818300711062805 6.2474160801324965
Rh 4.515061498438839 8.273369931197779 7.278752661812201
Rh 3.8405686110824258 6.970716021770014 5.117504005062445
Rh 4.8659034918785355 4.136756871203465 10.701812211879497
Rh 4.063021302403683 8.446320052009515 9.896907761290864
Rh 4.533940118454375 10.50815901673172 8.653549589288474
Rh 5.892949937747886 10.063360691884947 10.861686958033285
Rh 4.922697621539267 6.249560729272242 9.037862098729784
Rh 6.368876829717399 6.43659834046981 4.46186400533858
Rh 7.226787261474346 8.278453866462597 6.124954239525692
Rh 6.6089047054533445 8.688238775373938 8.63402165266365
Rh 6.299006049472892 7.415301540843526 11.017758750593666
Rh 5.173678037373841 5.612218435265651 6.6110096556049385
Rh 5.1228750752130985 9.005971338183238 4.749703993685583
Rh 6.035317603485176 10.547209852711967 6.647459418294467
Rh 7.262774006916825 6.305680168897739 7.927632108029687
Rh 6.7429885882119125 3.8428225109854135 7.8587193372467
Rh 4.283863231749879 3.9385251917978894 8.332140754368234
Rh 6.317768019397301 3.875762675446896 5.274728977702082
Rh 7.057283234655413 5.05879225176634 10.230721855302242
Rh 6.810712901793668 11.571628157807671 9.075176500496108
Rh 6.3119055794772185 11.124558033409281 4.191325077540598
Rh 8.25708576936215 4.608711937467568 3.789872300887836
Rh 4.045619207675298 6.374836185886605 11.424570049304423
Rh 4.588497983396532 8.657802146489296 12.407523036336135
