44
Energy = -260.99455405 eV
Rh 9.377354241853238 7.069028873696764 5.8950442851435305
Rh 6.247960430806465 8.089853914025138 2.9578941181306986
Rh 7.115320316324994 2.624234136214482 7.491016095656484
Rh 4.53568243777536 2.9582376662712995 6.733156978456805
Rh 9.035549646750521 8.250470012150801 8.152173139355462
Rh 2.680736419206857 8.828864281772288 9.015518230223003
Rh 7.337269971024154 10.414197878542685 8.25237962563052
Rh 8.027426157334924 4.461429276346849 9.209272380585732
Rh 2.604907558904604 5.292866811608597 5.387989993695958
Rh 10.407389532601842 4.608487065297221 5.746435967960136
Rh 2.320318735991975 8.016918578116673 4.748567132060631
Rh 4.4930327703765345 9.37113580470866 4.33485614028353
Rh 8.124952338966297 6.793134364989029 1.8372899361614459
Rh 9.946179925402722 3.60400244091193 3.4353510401700973
Rh 8.769331653583595 6.732399111708719 10.21898105390877
Rh 8.646957616909093 8.35823120097749 3.7921229634029783
Rh 3.9379996964694888 5.006174194712925 10.397190662145613
Rh 4.606874909096523 6.9703145371293465 8.830664338783349
Rh 4.403551192489585 6.755723008022296 4.164847879225402
Rh 6.861442181118091 10.290943388977357 4.071039824482624
Rh 3.139407277019216 4.759921957266337 7.898533384784171
Rh 7.812965499678479 4.982234227367142 3.533050783503265
Rh 7.623134895385118 9.073596576325654 6.153494504654124
Rh 2.063072715824625 6.42559481110175 9.439349964456312
Rh 6.824639627752917 8.322140801160968 9.58917452917133
Rh 6.343121832274506 5.958007308496103 10.466048866932171
Rh 9.829856550884836 5.750243369485987 8.01996885341426
Rh 7.792309495048954 2.3952494477423807 3.1575473586667333
Rh 3.145630469695325 9.706637918696051 6.585989422743439
Rh 5.145210072154778 5.395788904920818 6.262866209398859
Rh 4.441385403795763 4.183292942315676 4.005970113326521
Rh 5.766551762381687 5.657884729431404 2.370365493311567
Rh 5.162611197620253 8.098740365454656 6.500903193972205
Rh 10.03446669479552 6.171950654943252 3.6607098679598344
Rh 5.598877076900328 4.375336631920072 8.58322462842697
Rh 6.424675002555323 3.1882937505661584 5.031978262123373
Rh 9.696428063201939 3.140879801009318 7.803801150998523
Rh 7.032899005355387 6.657603550540436 7.74894573230359
Rh 2.662470874740668 7.187623919582112 7.06566971457085
Rh 5.5558152001095245 10.669499826697608 6.303647312988689
Rh 7.995520975357599 4.779785699809349 6.326290076639743
Rh 4.947571869086054 9.644015700418024 8.589317514868641
Rh 8.852955341076028 2.4821939563088358 5.4927621571377845
Rh 6.961939042815379 6.8305902807548575 5.07235279668119
