40
Energy = -235.37988138 eV
Rh 10.248182483596343 5.352258306627066 7.776779998951675
Rh 8.871366402176069 3.7132724761242577 9.311855876544286
Rh 9.770610114008873 5.492663526704152 5.206695195201726
Rh 8.598987575783713 3.670817423266619 6.700910005890604
Rh 9.32899076486651 7.2815199539949145 9.450717991545874
Rh 9.073130380130097 5.6767947091268685 2.7419532477630866
Rh 6.897659983743347 3.32355585008388 10.898014563794407
Rh 8.072028688066913 3.78533791556874 4.088718546930788
Rh 9.147230967012792 7.481808899872106 6.818070777558733
Rh 7.932356356709933 5.616235220080421 10.798437495778671
Rh 8.598689326783825 7.70419633518715 4.3451305585498545
Rh 7.057493638674749 4.44113081741692 1.6938303438975817
Rh 7.721009791830137 5.719820746940787 8.204278786862243
Rh 8.193546623498362 9.281034510029587 8.479043305259381
Rh 6.5414913300205395 3.3207648108365055 8.396149765463738
Rh 7.273275170487493 5.773909896626893 5.556851325266192
Rh 6.234925549521436 3.2673051328144167 5.826909968341847
Rh 8.084124728159 9.66747447585432 5.9395899253052455
Rh 6.674015173378239 7.685429398452803 9.75888525616526
Rh 5.605987756678036 5.308108558307788 9.837219271481025
Rh 7.360565254082718 11.467262188651283 7.781846481574611
Rh 5.523328033127316 9.681896299925695 8.51244249229656
Rh 4.174008739878659 2.911573801652424 7.704895747175439
Rh 5.295292716367765 5.36633872000548 7.203277015352561
Rh 6.484809609331047 7.804409583879493 7.0392757511721
Rh 5.497609497962564 4.323688356424225 3.6402935018186264
Rh 6.7388066200868035 6.647895857022171 3.012177184268307
Rh 3.3064255304472314 4.9063215949935 8.8958201240346
Rh 5.688774049133683 10.631126247662065 6.173810827207747
Rh 4.345625080830836 7.348515543734579 8.610102817052871
Rh 3.7339759366347733 4.107159794185363 5.544462247155798
Rh 4.851125010481594 6.492737362754275 4.900322341967902
Rh 6.148040077271006 8.734459900728977 4.546741467894995
Rh 4.756319262002648 5.765067307349684 1.5954995480339504
Rh 2.8902653602233426 6.292312540395722 6.677577164112853
Rh 4.080786742753035 8.610347787929514 6.2667362162623705
Rh 3.050248312783062 5.221441673905971 3.438772647760421
Rh 4.580342556565137 8.038600268357166 2.751084007523838
Rh 2.57992722744773 7.58821998990246 4.380043576050194
Rh 2.5034728750893493 7.070218849592456 1.8226846140521402
