44
Energy = -260.00346663 eV
Rh 3.73246981285427 0.7486141873171974 6.197359736423376
Rh 2.5348151401870544 2.9954178209746307 5.7524775545758295
Rh 3.651397912072521 4.1541040804406695 9.877193707157426
Rh 3.5088483729309092 1.699384220212266 3.748323978432453
Rh 2.5836030411974176 4.7728605062888665 7.569150735627483
Rh 3.6248411388696864 2.419961268889281 8.062577738148887
Rh 3.6680564849955464 6.604094028762414 9.135969486158924
Rh 5.7925153450169535 5.499768799660011 10.107959814667376
Rh 2.4879863650329397 7.218829050538358 6.891456895077159
Rh 5.8148287709272655 0.9109819034748554 4.674114801325461
Rh 3.4216125526829115 7.179587266107107 3.483267505520646
Rh 5.958851492562018 2.903032369357575 9.4485369457381
Rh 5.937648640423006 1.888451531034611 7.063417630885382
Rh 3.388017991837981 4.270123738429495 3.3568370095128097
Rh 4.928730529284417 3.3260143799364053 5.241830077125591
Rh 5.113278877498046 4.540537480349593 7.643538064722709
Rh 5.214555487834717 7.121969115570975 7.031838406143709
Rh 5.681337118251683 2.9837054992008456 2.898457221133297
Rh 5.779748599684499 8.07644171231477 9.464071383336426
Rh 3.66228974439901 9.020980664710978 8.231910767131339
Rh 7.709501151981397 3.7142743923188863 7.517779979248688
Rh 3.825304607310868 5.631773344015537 5.437919708540891
Rh 7.491708832292581 2.7869991459329646 5.053895398223665
Rh 6.648983110098089 5.299554623863001 5.627129935045282
Rh 5.411541104627827 5.559709711464762 2.6517759316523852
Rh 4.039573986530194 8.948781096466307 5.635298481100973
Rh 7.256419862982527 6.065904315876272 8.272827994529377
Rh 5.9676774231010965 9.671855991353068 7.480251246438051
Rh 5.786103134547736 7.3404178619446725 4.372397462717598
Rh 7.689458648800622 4.484402361456136 3.224804384467515
Rh 4.680754123182692 9.48167159530207 3.2312632002553725
Rh 5.0265125993449296 7.707928626688338 1.4574571946535921
Rh 9.079369892429956 4.7655996847891995 5.499750502838372
Rh 8.138523676876146 8.516990021789404 8.529347599790585
Rh 7.669633514590255 7.720662969981479 6.18861484806698
Rh 7.41369245023174 6.459075317530366 1.5143288003368378
Rh 9.537055368678205 6.432497463342098 7.440975835971545
Rh 6.500758352403635 9.833936615241438 4.971329990421632
Rh 8.271870736953195 10.38278501276926 6.724994174112691
Rh 8.374438939492705 6.808892796127714 3.7910712365316583
Rh 7.113457256265635 8.739401134990928 2.6593588482373423
Rh 10.360567304787152 7.087659280589248 5.184832142076925
Rh 10.310623742675592 8.85526539055663 7.03223787104491
Rh 9.024976314975602 9.23568489239116 4.545825428202066
