43
Energy = -255.55370087 eV
Rh 6.965097530547809 9.712084782798962 6.66755287477533
Rh 5.3687732272979165 9.69908417214802 4.59501859884889
Rh 8.474371948168844 9.883285845796511 8.697811576586243
Rh 5.908219553571958 10.119408387801588 9.066425047483952
Rh 7.697458367289589 8.43649551035032 4.614524176348221
Rh 4.773304694385337 10.922755869464718 6.885201298197106
Rh 9.240649101179228 8.436093561081346 6.746118551412698
Rh 3.0250813551755464 9.585975731405723 5.596683982984365
Rh 5.930900166789631 7.668407580762105 2.816056383287635
Rh 5.450604013375302 7.30598586282088 5.374254320455748
Rh 9.768125916341182 7.605688858306048 9.050597702752771
Rh 7.362368371283075 7.8861791436970865 9.861894896644102
Rh 7.6408496828328385 6.526585959188005 6.597435672325668
Rh 3.5367243617458692 7.846874797966081 3.780171531037419
Rh 8.452956021671325 7.371771231551049 2.407251147784431
Rh 4.751514772551229 8.114425773236908 10.220636300192597
Rh 7.403445591849436 5.805489424945285 4.055968860123447
Rh 3.5771741170747555 8.960695685443918 8.042935276890585
Rh 5.823491480160353 7.860456890882257 7.89846059066741
Rh 9.694078660059231 6.83907662414506 4.6986446417027965
Rh 10.091248044590941 5.831437537747435 7.046981006974374
Rh 3.1305070586296098 7.12599159433112 6.256220601872796
Rh 6.637940684845229 5.343539028324254 1.7256059376269965
Rh 5.20932080628438 5.459915575523299 7.178141437161575
Rh 8.205958234088365 5.650801762539856 8.793683873717779
Rh 9.376032286950648 4.315153400020882 5.050792757648551
Rh 4.9621843000178005 4.860419384663907 4.6574114541758105
Rh 2.512965615234628 5.480056222065789 4.399433330166069
Rh 3.4301194860866504 6.401254990556652 8.740539419266714
Rh 7.060977649108927 3.950847839496498 5.974150003164573
Rh 7.402326447164209 3.435749049499886 3.3120791326026597
Rh 4.264913866146935 5.760586569529599 2.5067930286571034
Rh 5.794005956459071 5.782391383316434 9.732781930174855
Rh 6.631423862765165 3.632936544724068 8.588093592595586
Rh 8.509431199111315 1.9022811745837973 5.0041668668844395
Rh 2.860961690341728 4.580800894260311 6.790779034035356
Rh 4.806562872964821 2.86479143288331 6.835606625883864
Rh 4.969031989797832 3.270471631716355 2.626588439519781
Rh 8.990838680502824 3.5020561267554564 7.545124124120365
Rh 4.0800359953049865 3.8992624047192477 9.06904442105559
Rh 3.3553575184455737 2.866780139255961 4.741156017257763
Rh 5.843503384163538 1.9582316575417267 4.704450865014429
Rh 7.050208498456474 1.5584670229643962 7.067777730732744
