46
Energy = -273.98095013 eV
Rh 1.4098557911975467 8.339991391866965 2.979386511068498
Rh 1.8364009296514654 2.622407462064915 6.227071429559931
Rh 6.081999899191308 0.15115439384818763 4.788280673316487
Rh 5.595813838284987 3.6059513828660523 0.5261317620029923
Rh 3.581307997510944 7.408035933925174 6.840868666937125
Rh 3.631187824671492 2.0759695729602776 7.994112649704258
Rh 7.367366164130769 3.7637184113882114 2.4034899663365796
Rh 0.5089264881475418 4.610554687901341 0.7112511700170726
Rh 7.393063684327816 1.8131017550099484 8.666680279421252
Rh 1.8030020336890809 6.7408191024852755 5.026383867317992
Rh 4.402581463575106 6.022797443351679 4.886095468038079
Rh 8.071375417675872 0.8366850672284365 6.424182997298331
Rh 3.517219534500318 8.642061568757805 1.5810709367004816
Rh 6.110098383503876 7.831642791678207 5.210008133718171
Rh 5.883426835400854 3.7524378808588796 8.419071185682805
Rh 1.6635503477964604 6.927141679915022 0.7194342489629689
Rh 3.882436014498013 5.278291864761791 8.648356820312777
Rh 6.227874424303152 1.4260753599848879 2.3517032206495294
Rh 4.940795693168997 4.559912176423266 2.8119361070954736
Rh 7.581476495290145 2.136087653702087 4.34689838121456
Rh 2.943793353179119 4.293971594720503 0.9960888112688195
Rh 8.961652654251886 2.0835642300768207 4.849020139790309
Rh 1.5732708224362564 2.1231692869001746 1.1267914305092859
Rh 4.3022800295032875 6.353682044826361 0.5389684924124462
Rh 2.119800814992409 1.6081451366579202 3.74175727585073
Rh 4.7474748002855955 2.3934002298199046 4.336765686660085
Rh 6.387462285465094 4.3473226911854015 5.010871269628788
Rh 2.6250603887784414 4.130057170652993 4.254760462244412
Rh 0.4750114657463568 3.436713864877033 2.9113793416771556
Rh 5.737411384643429 6.029644412065423 7.126139146709402
Rh 3.9272049029589637 2.1580099118400393 1.8716000110497648
Rh 2.074103474564354 5.158905725675269 6.945442780150052
Rh 6.735491433138001 5.87157288707933 1.1445043049715236
Rh 4.1885707271410375 3.945199099430155 6.429131772413664
Rh 4.065216653534706 0.020992470785846644 3.2263319830716455
Rh 0.4656295332949974 5.976841951151491 2.902034073304552
Rh 8.961652654251886 4.243627401282482 4.52914833679019
Rh 7.943097451321653 3.436315083878838 6.810316808256257
Rh 2.9381895481415246 6.224296334327898 2.740081050059899
Rh 0.25676470999065304 4.638927747796497 5.225886250027868
Rh 3.653455716592249 8.45297394878466 4.304598541347066
Rh 5.7644268361415545 1.8141388483236778 6.706907016677418
Rh 3.5100745543953202 0.7253924975184703 5.721093403761778
Rh 5.352217900452182 7.2947746863719285 2.7310416481217232
Rh 8.019029662212448 6.0424895225033675 6.158371904351666
Rh 7.448974177150852 6.201689503407137 3.649209446455264
