42
Energy = -248.23813811 eV
Rh 2.56548290634822 4.069651334584483 9.457741968394522
Rh 0.6101527872972494 4.98858574771684 0.6592572609164877
Rh 4.828334753805163 4.742164566336419 0.23627416847240404
Rh 3.9717883224713555 2.142672606824245 0.35983275390138775
Rh 2.7968534285310636 6.613708798599151 0.3759095245178462
Rh 2.622468189914155 0.32928846825316327 1.9446165721989839
Rh 1.4758493069777983 2.53941285150201 1.2531817927678466
Rh 5.280251576178337 0.6533131084220856 2.218066379841316
Rh 5.889915613826537 3.1199335858191466 1.84778510754553
Rh 6.997019595944106 5.408574627866596 1.6379963414782002
Rh 2.9142210245880706 4.720080440640039 1.9773021980396766
Rh 0.5869050327837952 4.104562792244677 3.054576760874924
Rh 4.794075499393757 6.540831823076565 2.069280989738732
Rh 7.684121069882707 1.5425504869560198 2.7996527066661243
Rh 3.590375718352541 2.4868159339719984 2.8161226088695583
Rh 3.0657749219963844 8.28311671687834 2.5855781069694137
Rh 9.721403828538968 5.994645822592256 4.472632477262465
Rh 4.811347018988245 4.538432101403823 3.9582573795790026
Rh 6.5625641952176474 6.367682175164833 4.0089578576163
Rh 1.242103401507869 6.609025926130856 2.590319816487364
Rh 7.5066705103526505 3.960039933302775 3.6733714519377716
Rh 1.3431608805589992 1.7552528404118821 3.8777102159715087
Rh 1.6269808709340687 7.67868763477557 4.915633966310837
Rh 8.141735339949488 2.0355099617838754 5.272876513972123
Rh 7.322603503371302 4.755813414530878 6.061284078660571
Rh 4.128171483408403 7.11113293309982 4.5114511821356045
Rh 5.70405183237544 1.9949051614282522 4.439180956358529
Rh 9.721403828538964 2.8238444902968176 3.5792167694769894
Rh 2.3477458646480187 5.221305535242766 4.686738320698271
Rh 3.6168375698594275 0.3579625416684893 4.361646144953536
Rh 3.2746860265731934 2.8139221468362683 5.277354308857722
Rh 0.4043259450021711 3.70693012823164 5.526160331035033
Rh 0.7006755960281608 6.014626090057775 6.78250754039079
Rh 5.785700856825351 6.854083930070879 6.3854178246869635
Rh 4.830140405135473 4.513409304073728 6.527732666696638
Rh 5.452104831733075 0.22799457925074387 6.233778611633688
Rh 6.327657353987314 2.556015708060687 6.844150954115041
Rh 3.1908437565610046 6.459786225806115 6.824048600796784
Rh 1.431775015561314 1.6600249177800543 6.586456609043559
Rh 3.93844706923438 1.9216131949055684 7.440502943964933
Rh 2.3211162465969837 4.053070891645919 7.295809731896246
Rh 2.9403589750572623 9.797220476593825 6.641829459105407
