49
Energy = -292.75772135 eV
Rh 10.533286540151092 4.996079197733538 7.031426523243734
Rh 10.023051112571956 5.472364170761058 4.555581007119316
Rh 9.102521806393227 3.1789575084973265 5.885996604989204
Rh 9.862219921150851 7.474667506124072 6.461572028722435
Rh 9.052107855514256 3.4241024056692746 3.3386757643441363
Rh 8.785186152337323 5.7863061960223465 2.342791909251554
Rh 9.240991656586553 7.888917966422178 3.944596063241313
Rh 9.026260254476583 3.434149309179058 8.483253367673303
Rh 8.166821970364913 5.615058701262811 6.167616251546614
Rh 9.049125209513875 6.0993320696696465 8.721571103732389
Rh 7.510513622577355 1.526659329858292 4.7442847317782775
Rh 7.552711736640553 1.5670051940914085 7.363736421560588
Rh 8.864669200776804 9.748626198801222 5.865433394177141
Rh 8.237136005360433 8.573059778558056 8.33379524692282
Rh 6.95866459736044 3.7786987041918785 1.941419755642325
Rh 7.595833250845611 8.118167705231853 1.8511280213666037
Rh 7.527749962466619 7.113105245355597 10.459953677848723
Rh 7.043126347287996 6.564202849636351 3.885681307169381
Rh 7.182232712087562 7.9062544537312105 6.154088334034137
Rh 6.908291701361558 3.9615441552090873 4.569141571382066
Rh 7.199911894209708 4.542468065122013 9.881140434181484
Rh 6.3033038296364206 6.1100685086798405 1.1799514772442035
Rh 6.765069050627944 3.9180182150764025 7.309675996931783
Rh 7.081496770249196 9.318574862706708 3.9772014348085856
Rh 5.336962484711951 2.2766162099192355 5.978732355596124
Rh 6.5098333425881885 6.400043147845628 8.221815908644462
Rh 5.023745433709719 5.1617449069293535 3.0978582638847416
Rh 5.481959092682567 2.619201984947392 8.979865212416353
Rh 6.280396985832935 10.381222311958735 6.138602239070526
Rh 5.185026593277978 2.4871606840582334 3.416114322372958
Rh 4.696099255473658 5.038132707113061 9.702911110086822
Rh 5.143329843512717 7.653429266992281 10.134876260700215
Rh 4.803812035240507 10.396700905353438 3.965307875409486
Rh 4.784228953492719 8.251144643399687 5.376956794028713
Rh 3.653651465549368 3.9933565535338515 4.874917026421678
Rh 5.545398477225173 8.852538454125499 7.9753434128549205
Rh 5.495160528496073 5.758019681383947 5.846925830396817
Rh 5.072917727174434 7.928723970480573 2.758326554422181
Rh 4.068673429624285 4.013915401008322 7.409656679062482
Rh 3.9037145321320548 6.658302193157462 7.765018515331484
Rh 3.2659379548689964 6.506946095919116 4.33630942490893
Rh 3.692473817218371 10.183882867155678 6.545397846879761
Rh 2.8326608569995058 6.695457708422256 10.238488501407982
Rh 2.151550302527753 4.606595476148149 8.969366016713458
Rh 2.218702461584582 7.996000161711954 6.283739439023212
Rh 2.7087037610402875 8.969645211239293 4.071618108280659
Rh 3.057029689174611 8.860919422779713 8.698717791979757
Rh 2.1402138138618283 5.369634665258858 6.418547084995429
Rh 1.2136854510994821 6.980539747222929 8.298490090032447
