42
Energy = -248.62483482 eV
Rh 10.201991836128931 6.703094528102084 4.946401457549249
Rh 8.00148056166849 5.057156016675955 2.8636795950849425
Rh 10.171737923813652 5.158740874472035 7.217031212215857
Rh 9.327504551942615 9.072048647341278 5.296886558234104
Rh 8.725688095369009 4.766911917097568 5.168508629158262
Rh 8.067083469076675 7.583377546371687 3.63224413156674
Rh 10.56795686848788 7.812902864451078 7.205632600445616
Rh 8.67423838350671 2.8625146314052095 6.766217678801284
Rh 8.045282737824532 4.696857043587455 8.558877762354234
Rh 7.250131423952003 2.89267968329577 4.38196696491134
Rh 6.27863741370781 6.088659822338887 4.765338183808645
Rh 6.249797325556876 6.70981807818872 2.0094861652942746
Rh 8.964988403038355 6.99747762453553 9.100337471377445
Rh 6.738342299533767 8.591324501537162 5.769636945518484
Rh 7.751119488622915 11.007561080967164 6.024469457458005
Rh 7.630122120845738 10.12487097637132 3.682784499191156
Rh 8.175413725735897 6.722077288588629 6.717071731416438
Rh 5.559119767045615 8.666832069228732 3.501187448353773
Rh 6.44914477227228 1.4137664465786144 6.333409026656929
Rh 6.854668653208706 2.48627538725821 8.660549675284152
Rh 8.490169657491368 9.172625179352746 7.749502926658378
Rh 5.547010681694735 4.368074669912584 3.056445356501429
Rh 4.918768259639481 10.284295974252691 5.690940681499726
Rh 6.2788430499674766 10.355254035942904 7.943676388124573
Rh 4.072974537953838 6.4610669745071165 3.295336173905085
Rh 6.434261054244938 4.156570575379657 6.4994419545703
Rh 4.731458427430855 2.7571701749950015 4.929997655147314
Rh 4.555222131255526 2.6319514181723416 7.544753780795614
Rh 3.9976048544246154 5.0954963316801 5.828039073137645
Rh 6.508361641874044 8.019070390797578 8.99595026919416
Rh 6.863671526981179 6.04479291289364 10.386548216367418
Rh 4.044775068263915 7.931371394226269 5.344370626777223
Rh 5.577167721218384 6.563880152605997 7.211181908548175
Rh 4.321171622062864 8.776761766479128 7.764836472480311
Rh 2.978924608098469 4.116698660300701 3.6463429244628234
Rh 2.452230180994164 3.0607817792219256 6.092862928470653
Rh 2.013148979153013 6.404611888762675 4.735816591091143
Rh 5.430345729280732 4.602134527708685 8.94635069535886
Rh 4.1566631048589535 6.731238308937598 9.354431877192425
Rh 2.6335469693691613 6.8957393723992 7.194136580629864
Rh 0.9274662541393366 4.995524903230218 6.498009011262444
Rh 2.9730578857086614 4.57938458415405 8.13360785016773
