41
Energy = -242.33965204 eV
Rh 3.6223843284708312 8.549105554454828 4.358964048583726
Rh 4.646068442337253 7.035533560106226 2.6201213247680757
Rh 5.719518075984306 10.153996087458719 4.588374417279071
Rh 2.4178570259654593 7.653532112338241 6.328341764996452
Rh 4.660579353252886 9.036203892670642 6.6143813708910475
Rh 6.986612795552667 6.0230172280518905 2.2913486467914366
Rh 3.0399228781331336 5.809485656895429 4.637511577373698
Rh 6.724064362632151 8.193666697894194 3.5862616150730005
Rh 8.606903600066902 9.584592045158786 4.655154019476045
Rh 5.121545078383048 4.687812298760438 3.539642631140463
Rh 7.021256139822391 9.983705839269458 6.7154023286395566
Rh 5.361315520290555 9.823533558263927 8.899567930765356
Rh 3.0863524845689043 8.619196280793961 8.679162528801628
Rh 5.336487650641803 6.761871480850908 5.214930553391964
Rh 1.0369280494128368 7.135309226093823 8.299028061322412
Rh 7.085594514913708 3.4891580297823808 2.310591150666536
Rh 7.544463478847491 5.284485832936869 4.762392167734594
Rh 2.456051117012176 5.200470411437542 7.197347624261981
Rh 9.037428306634409 7.001521345685834 3.5750969137032076
Rh 7.71332910191068 7.626976210499399 5.870088984644848
Rh 9.283417522627023 5.025474120585984 1.969014636058971
Rh 4.511873009176498 6.688835643028416 7.692963781837672
Rh 4.623170916301914 4.35507626652252 6.059863032193058
Rh 2.8835371784268773 6.128249796491331 9.659546895123519
Rh 9.21195716817955 8.915293602401368 7.468473371458846
Rh 10.846833721420694 5.309834195787995 4.103261284883271
Rh 10.264737547360577 7.180931796958208 5.822073136147497
Rh 6.891228767023553 7.951374110649414 8.339185546371224
Rh 6.698189365958422 5.452255967898608 7.2189011571136055
Rh 6.528297794080639 2.986814824099537 4.883348764827321
Rh 5.085069386699357 7.513839055388347 10.056333426562421
Rh 4.431921370294419 4.2720428740110705 8.668256423451563
Rh 9.019088134689865 3.502022048990583 3.9333571141124644
Rh 9.518328828553942 4.748059760313559 6.20540083439814
Rh 8.941134326294435 6.446779850866489 8.059463744739805
Rh 7.059582581546096 5.712196589449701 9.732897078822798
Rh 6.271442677571915 2.912966214612532 7.393553429714205
Rh 4.8792277119210175 5.196084975632608 11.000019622696746
Rh 8.589216385018144 2.387255368224163 6.258151681479944
Rh 8.436467954195598 3.9645439625828462 8.378177388055414
Rh 6.390929148020513 3.2872094262956573 9.944361789840512
