42
Energy = -246.71839436 eV
Rh 6.068097131830828 9.58685931913802 2.8023031968813874
Rh 8.889805243250976 3.1490718901125097 7.593415884556276
Rh 6.5081358845223845 4.7654187333900735 6.9088398302595895
Rh 10.907330186846927 4.368784300655509 6.442892081425248
Rh 7.373384000749712 6.398451907866392 5.118856687254727
Rh 2.853733260502566 7.505241687203329 4.627137151071258
Rh 2.5479334462944774 6.524194364451316 2.3062202629265025
Rh 8.910553554693228 8.189534019956087 6.4129614873600955
Rh 6.842334031025811 9.428016988428105 7.534235834004616
Rh 2.1890125419652575 3.9988941878062967 6.727403452729419
Rh 9.07277088804366 6.8846174077799756 10.002467700143264
Rh 4.579087297325568 9.45273628950133 4.9900455743888115
Rh 8.113536568496471 7.5696176815657275 3.032960178189282
Rh 5.4201713170672345 7.438123603631763 6.513254337951416
Rh 5.165030197468535 4.926077913005682 9.052059391053458
Rh 4.263568358328099 4.660749462370861 2.8748377893123003
Rh 3.6429331200794834 8.815062110404087 2.5983213346330682
Rh 7.2193307447489 7.058182947979447 8.29311927269977
Rh 5.43049348962364 7.348630506098725 3.7688444261984224
Rh 7.821648790212308 4.73744177077239 9.326976232924586
Rh 3.1666125343368585 8.510078467092127 7.00012941408365
Rh 6.507909232541209 2.7067131348355162 8.631658568350687
Rh 8.45951285446403 4.0780130800800976 5.097732744720331
Rh 9.17405250752125 9.143120968242542 8.70997051813984
Rh 6.954124387351407 2.168898562638302 6.206684070835532
Rh 10.384599818708432 4.742692750234879 8.98877759820916
Rh 3.4367461126514605 2.9942824914307984 4.690869708752295
Rh 4.5758978353441755 3.1709090625379077 7.006022467341567
Rh 4.291406192504343 5.470733505758006 5.267224824791593
Rh 9.83222539792049 6.373991795553895 4.719313615776912
Rh 3.479209639008191 6.016016497107003 7.579746530928271
Rh 7.111961384600623 9.018992031715824 4.9842882289852986
Rh 4.855846410689262 7.652942867384699 9.042436030166197
Rh 1.379034838864208 6.542806104726897 6.400195412879381
Rh 8.972929072972143 5.695341494396221 7.058414220314949
Rh 7.10922966078914 8.821949771642858 10.156596940935255
Rh 5.969707206382613 3.6650521841023926 4.494534308339524
Rh 6.494762876462626 6.41508542992301 10.705776472593783
Rh 6.775474303625359 5.392674677475871 2.809438674516219
Rh 10.716000586570567 7.187607658382861 8.042464505301483
Rh 1.9587506624601678 5.068517419421057 4.367942030562938
Rh 4.904284292128142 6.656170503261487 1.4339427405570644
