48
Energy = -285.76767078 eV
Rh 5.615817108436232 1.7794764883388572 5.47804290080232
Rh 7.373158844187145 3.405653684943105 4.757501695885867
Rh 9.290677178416317 4.153771489104652 3.223811756292013
Rh 4.995362134483853 3.2807566060469426 3.5752513795113208
Rh 4.620451201853914 4.63311764353438 1.450124098454041
Rh 6.938788829632598 4.811756641603097 2.5250711451736034
Rh 3.199759886641501 3.0982528083900056 5.419136350924631
Rh 2.7219673365158026 4.45544572771149 3.2528363935759166
Rh 8.763684012915036 6.626570236067399 3.2277780385670347
Rh 9.460801726409109 4.490755673751837 5.677602641505648
Rh 5.091673920852255 2.5499020453234325 7.73154969280079
Rh 7.527070277407826 3.749451031898465 7.3832421540194835
Rh 6.5176388847401805 7.325206396862543 2.3467934049990133
Rh 5.297162624303374 4.558126992324573 6.059004362226206
Rh 4.159235519594312 7.079688940443695 1.430445374863925
Rh 7.219945472620357 6.040327824055843 5.13951024179829
Rh 4.862470899795813 5.91768963696672 3.7573743115962155
Rh 6.079233878328732 3.960903605762656 9.55076787015533
Rh 10.073364039661026 3.8226966804412985 7.996160863532181
Rh 11.29021580629025 5.848958282935546 6.864593192418652
Rh 3.26098927394034 4.280187149960425 7.673527087295174
Rh 9.576907083229933 7.226564128536831 5.47440811732937
Rh 2.87411793471238 5.72660887648968 5.562390493847477
Rh 3.7428857596883645 2.971994580976619 9.821514445757495
Rh 10.662739218744328 5.954507293371456 9.417328560334251
Rh 8.43508363587062 4.688334022253365 9.764133015637983
Rh 8.594715762171147 6.056907724306522 7.601771307570707
Rh 5.074976199712755 7.274961634288534 5.945266731195018
Rh 4.080033301495149 5.4914673192580805 9.864522129408089
Rh 7.244491148649565 8.653201832331204 4.421927459505252
Rh 2.4647218053076765 7.02662515906203 3.371500250640201
Rh 4.605078904132957 8.513645522478232 3.5340617570895905
Rh 5.98875525360689 6.11835713845191 8.115788044298256
Rh 3.3586357637991604 6.863778956679949 7.8442655096875376
Rh 2.844957435189073 8.34572485773641 5.660728114888501
Rh 10.289612925332271 7.990426106190282 7.834591142619673
Rh 6.4894423901781835 6.240342039652057 10.69847992634049
Rh 7.2065085598365455 8.178174662363746 6.948216106287453
Rh 8.551899992889842 7.362153994247904 9.804668809236263
Rh 4.962649981150283 9.871430268398683 5.527494466335521
Rh 3.911436009320531 7.958736402263651 10.104456841318996
Rh 9.122640315419781 9.622760315114334 6.113671490898748
Rh 4.081200507419669 9.298055113700135 7.855598622983134
Rh 7.172818390911201 11.055222394271505 5.305565965196085
Rh 6.180106842342172 8.456433420085796 9.329774454590074
Rh 8.4868429686349 9.585379740348646 8.695445811523859
Rh 6.289726087925019 10.466229171140995 7.633193891478354
Rh 8.437451667819632 11.767032679264556 7.3736725872981985
