44
Energy = -261.47766545 eV
Rh 4.475543807027885 8.994146267815774 6.58489187894462
Rh 6.165318929535762 9.997675868968367 8.374863158905816
Rh 7.065243775608853 9.666704012853504 3.8549951234256365
Rh 4.464293496104748 9.742300210436873 4.068116871388837
Rh 8.205184398798298 11.180801132945575 6.9753807207969345
Rh 9.259175379703752 9.864795509898304 5.157895362549564
Rh 5.5865254020574655 8.27503280644123 2.2295870901660915
Rh 5.979594631459812 10.919994079450118 5.820367780191391
Rh 3.047338535704545 6.932663479616782 7.224178574232187
Rh 3.1034852564751336 7.662528474749608 4.708430453435195
Rh 8.146502101644272 8.112862924400329 2.0999947919205315
Rh 4.427178636752506 8.166605701832077 9.056155364025754
Rh 7.022059677352698 7.840782525950278 9.465059058867208
Rh 8.51163796163485 7.489093246205187 4.489197682303825
Rh 5.703319275381209 6.749236897533332 7.305800930744117
Rh 1.703435559959843 5.595687454588949 5.341704269251977
Rh 5.7369408541325875 7.556831510010565 4.706194999068513
Rh 8.842712178353784 9.04155218614417 8.311323736334758
Rh 4.296103353686297 6.201607461689852 2.914272138014909
Rh 6.952465125793105 6.03072648369167 2.8519896670840996
Rh 10.172583659238052 7.8245876878216984 6.375449863769424
Rh 2.84633590442755 4.284923902061545 7.21972760319557
Rh 8.298238106141788 6.57353861941331 7.574759742460347
Rh 2.9052024041808124 4.171005599908749 3.6522293811502338
Rh 4.124713539536531 5.502035838775516 9.135697917006231
Rh 4.346773444368861 5.462845055543324 5.424466045779367
Rh 5.412304558457192 6.686234765248834 10.970925403770021
Rh 7.2172425140982694 8.764341093893792 6.410996083611452
Rh 7.008774620050986 5.370879443605096 5.4495966848038355
Rh 9.544047037389442 5.780117372157187 2.988596582748077
Rh 8.126532261821044 3.8528787185277213 3.6236263600436023
Rh 5.533980192377109 4.106295294789081 7.3296026567792065
Rh 6.839938889352602 5.294045526383574 9.341565354585125
Rh 5.535087673829126 3.9807815113403273 3.5744812737203597
Rh 9.58574130003681 5.3314268813811125 5.599844062295
Rh 4.1221801913971845 2.854204236587557 5.47869780656837
Rh 3.980096409339862 2.837824376323967 8.99380567459168
Rh 5.257871887640699 4.013922199687878 10.88251382877881
Rh 8.194953851246478 4.014876691610769 7.436512766223686
Rh 6.787802160361389 2.6866387859339924 5.467866836947846
Rh 9.367688529409744 2.752119286389054 5.55817868019225
Rh 5.300610215344604 1.4953580346272608 7.2715938396821045
Rh 6.672913338505505 2.7035137767289203 9.182782133827324
Rh 7.936371726144296 1.4693926696976713 7.371033863115127
