42
Energy = -248.2587976 eV
Rh 7.801787972360219 10.81041512929844 8.26895194967611
Rh 6.170697849922727 10.823794798702579 6.245865508834962
Rh 9.057811234090394 8.645946099972031 8.461121001430623
Rh 8.29981053843793 9.415187374720734 6.073550508856847
Rh 7.209848585701616 8.84869796228581 10.174642658781432
Rh 4.385218505466369 10.586788683350166 4.416156610597055
Rh 5.50529879189615 9.702998262049498 8.515525382400337
Rh 10.03134697593441 7.538095351747283 6.462724236918188
Rh 10.351826177679131 6.296387327948355 8.677877212434993
Rh 6.477658643867083 9.094444161503926 4.286996113913623
Rh 8.596893480838766 7.521095185148801 4.308956568833258
Rh 7.905351500180847 6.415006985669025 9.0400964295114
Rh 6.8059623544777805 7.882222594205702 7.28150338046041
Rh 6.810393277975836 7.980659250686745 2.145504382764625
Rh 11.229592880629243 6.3818784354387965 4.6831935208325355
Rh 10.454848641613442 4.776432646119885 6.603460694605681
Rh 4.609384930572927 8.865152920532408 6.238641449007454
Rh 4.031923642673328 8.159047062448131 3.8529508970498982
Rh 5.477443933165866 7.177307110925074 9.498997038346985
Rh 3.345935229836753 8.174850885133326 8.404111435608737
Rh 6.1387842273801505 6.6089818863433045 4.911950263795112
Rh 4.603504144375273 6.391884125801043 7.076766999503156
Rh 9.345392379389988 4.947478855539844 4.217096450962877
Rh 8.188079718768764 5.829787964223488 6.36365811449951
Rh 2.45647699749225 7.456937393696535 6.015234465244518
Rh 7.429566661288453 5.6738482315824 2.830700556086373
Rh 4.9679667728508825 6.264487994054198 2.4698360312752703
Rh 8.626841009856818 4.122222341033502 8.401372103247388
Rh 1.373005298826519 6.603138084852822 8.290979751176746
Rh 6.058823713205562 4.691706790268917 8.950746351339678
Rh 3.541076859639856 5.50295151675883 9.211733841006582
Rh 5.964104297654089 4.375120588658589 6.379508037358169
Rh 8.362409118743082 3.2644284801311545 5.982904021370768
Rh 3.6486006888784903 5.6706028816777625 4.6255901982428504
Rh 7.8553223677948445 3.0970707858224964 3.441069607740781
Rh 5.6075757795036445 4.141394315672729 3.8134781954890538
Rh 2.5212680107928636 4.929655143940781 6.810104185018555
Rh 6.675090247554684 2.3938163000941355 7.799590511592281
Rh 4.143488613549077 3.290396272546937 8.002161035471378
Rh 6.21816286897035 2.0637210049314216 5.181959345185848
Rh 3.82998676500096 3.1556122919444802 5.42974804325748
Rh 4.580075673710574 1.1229858850852927 6.847622272817817
