43
Energy = -253.23637114 eV
Rh 9.232202195763302 7.869067037131231 9.88784133961208
Rh 8.632259088112832 5.860582089748506 8.610849934318852
Rh 7.423914083974246 10.000390956367799 9.082262870965588
Rh 8.439579531765602 8.27660319882496 7.5514584691731015
Rh 6.7709140756210555 7.608113205889246 9.594700751986329
Rh 9.389929228569745 6.43634840002207 6.092837676997723
Rh 10.024292919340356 4.201390282859763 7.222961687364254
Rh 9.142959926115903 4.084518751339834 4.6550043982491305
Rh 6.068011310515658 5.08122069521956 8.73046004103874
Rh 8.009036697692329 3.3971331543509864 8.69733926570735
Rh 10.792647611584842 2.5237807609195153 5.558352348361996
Rh 4.415529362742902 6.937122704512048 9.2254740376121
Rh 5.011050968943048 9.306920999289847 8.71110612342542
Rh 8.513458041341744 2.21322080558297 6.452136449103473
Rh 6.571127140904519 9.798693859603452 6.6471196789236116
Rh 5.419144611323301 2.7848373340548678 9.614075857127354
Rh 7.439875569248937 4.925920234230337 6.425857987922973
Rh 7.976672788536203 8.345596962142645 5.038854129827223
Rh 2.01984253849022 6.520063150036114 9.90658914121671
Rh 8.894910693649335 6.421482075681317 3.5932440621378934
Rh 6.0489022677411945 7.240557581925215 7.0551940222255904
Rh 6.392087938744397 6.322928928099862 4.470401867667526
Rh 6.082659777112707 2.7945201537025945 7.176348345775047
Rh 5.470662291586349 8.761691481171868 4.540714110313644
Rh 4.858372664932516 4.9839475786510725 6.2514764234178815
Rh 3.6072554202010045 3.231013926705525 7.77512909762509
Rh 7.331018635535082 4.513591983714746 2.8905693001712978
Rh 3.9792748672530873 9.717362201527347 6.397775909692983
Rh 7.165467248141078 8.177794499166184 2.61652743304236
Rh 6.755575002831759 2.92627686184302 4.730689297429862
Rh 3.7078865142897643 4.619068249089603 9.894465063510685
Rh 8.043124831924013 6.270005709498018 1.1500555533603034
Rh 4.8109437116160905 4.374021031190079 3.638401061115591
Rh 2.676604825923704 8.28098252947322 8.092885400693236
Rh 2.9868563378612065 9.07120082256891 4.0991546721508385
Rh 4.2328320964206405 2.603683239703049 5.376019946016828
Rh 2.7510411691343526 5.609821436427582 7.675623563559599
Rh 2.667772877011081 4.976517404718033 5.097642487314668
Rh 3.5782150695119075 7.285915847985711 5.925654831628347
Rh 4.659174995850852 8.59520338049853 2.1121056681054617
Rh 5.604549977868139 6.156680625079004 1.9066950078272296
Rh 6.313191613299721 7.947476395815031 0.2512704761976684
Rh 3.715181288580373 6.700771047507422 3.5037773000025427
