45
Energy = -267.29966751 eV
Rh 5.073630158695066 6.229186357879552 2.2815515592059814
Rh 4.529848402744078 5.338272597298515 6.018758247846489
Rh 6.626864969596648 6.092591583828633 10.4088894246749
Rh 3.343506382506452 5.083381915981295 3.848509553373413
Rh 9.879719606138236 7.259673947564964 3.438654402004795
Rh 9.965192646861137 8.342759659393575 5.810980951394029
Rh 3.846052669835231 10.029643365600043 4.552700672596367
Rh 5.753190838671057 6.43529040224319 7.95548332652453
Rh 6.519842373554824 2.441036656384394 5.153624655283749
Rh 8.673774389711282 4.970500565586368 3.2941824088263063
Rh 5.435952413250481 7.799843861726867 5.502982858893125
Rh 3.4932542992055633 7.6423008975663285 3.6356309442274997
Rh 2.902132296068021 8.190407694769622 6.049954432763456
Rh 6.526240154042516 5.747159424063677 4.343053537752918
Rh 7.488572818021677 7.049244006725498 2.3397537584692913
Rh 7.917189602589866 2.147796909204451 7.354648623861882
Rh 10.174556843195147 6.755745680515714 7.837060824033468
Rh 6.2819273398796796 10.28886465882979 5.110584370752248
Rh 5.811100509262127 8.597236777393796 9.245915654109348
Rh 7.2374967748881796 3.968275527045713 9.077664583388167
Rh 7.743539113317091 2.709999187647709 2.908436959037658
Rh 9.39810328412836 4.315408376104604 7.598853706554756
Rh 5.485423569205285 3.7979069134423593 3.1765543586906113
Rh 3.1115509620965778 3.724403815684189 7.565508318783693
Rh 2.3686199848565113 5.578989243998362 9.312656131379471
Rh 1.6138304719682157 4.004965346469416 5.3529185939268
Rh 9.127207702947445 5.447294403085415 9.918254841885453
Rh 2.1805024662922214 5.95395358705671 6.853961052010671
Rh 5.6878859815185026 8.76188400586563 3.073497163833329
Rh 1.3888707172665782 6.569138142715978 4.597796640442911
Rh 4.677963966597272 9.634287257085948 7.157729643419424
Rh 7.908983315990442 8.521391052273444 4.383047694125212
Rh 7.280069178273708 9.394452616477263 7.259714900860607
Rh 8.088285644725824 7.48001227827459 8.936727449697388
Rh 3.60833624682392 7.59773604702936 8.44741706032425
Rh 4.175450211033499 6.738793768354551 10.73484597833259
Rh 9.73323724184153 5.74204165034607 5.488262677448619
Rh 7.82301867821198 7.044779551355904 6.409380401249791
Rh 8.959530074627532 3.306087701712643 5.223087111078879
Rh 5.451098491279405 2.8210704478073896 7.5521799054915695
Rh 4.055155777978275 3.0001424262760636 5.257608267890879
Rh 7.049975006440344 4.563891509938709 6.555912139651067
Rh 7.004131085046622 4.686250694863469 1.3235885872943742
Rh 4.744410183338844 4.656377406832774 9.334885088070651
Rh 9.624317037234874 9.309071961458539 8.086132420295359
