48
Energy = -287.20919988 eV
Rh 9.764600326095303 4.061136663756864 2.4739478110530877
Rh 11.220962191984126 5.277037712823814 4.344543752777287
Rh 9.951626797649444 6.848772771867865 2.691183495773724
Rh 10.03831400822905 7.3308618749283445 5.251261110844983
Rh 9.82104489788309 3.144275314187841 4.959577208965524
Rh 7.4537081619598 4.4306270677155695 1.3815831394445723
Rh 9.543743258363266 2.873286042845201 7.676870317910966
Rh 9.865743644968639 5.12451737136095 6.658891774897239
Rh 7.5720766567427145 3.142822819470813 3.5809031591589346
Rh 8.561641255000495 5.332022228215223 4.310666734060997
Rh 8.895629846581762 9.455163928266895 6.138497051490554
Rh 8.904729885929129 7.341080848685594 7.61619324669394
Rh 8.374838107888838 8.797098940649652 3.58359399229219
Rh 7.479398332104981 6.635502882290286 2.407311236690449
Rh 8.782918720568498 5.155883728057521 8.971813227130577
Rh 7.668256695173451 2.4100566115287823 5.998822220264068
Rh 5.33065901401895 3.191949539715099 5.103213370226197
Rh 7.080316170665113 3.2493641715474175 8.351927900323462
Rh 5.313109393387052 3.730966237221205 2.557958804929165
Rh 7.288769596474403 4.89075741363467 6.482518771290372
Rh 7.4452751891161 7.387056274754925 5.448571908320091
Rh 7.0226365813515175 9.325509458652126 7.905042186310527
Rh 6.515137536619132 9.828173614042505 5.355667500200522
Rh 5.928010422269829 5.599438397777574 4.277829461226414
Rh 5.353136742549432 1.7761558922175644 7.102932471554354
Rh 5.778352260160272 8.262807139636386 3.3548110577707173
Rh 4.742482385885669 6.23327014413809 2.132286996992338
Rh 6.317863478382299 5.274262297758913 9.631511656193117
Rh 7.641631703392108 7.473649884477238 9.896367936628403
Rh 6.316909376981648 6.963940598672455 7.794519664454798
Rh 4.550160827265666 9.750470532560433 7.185851192081914
Rh 3.5042047340523648 4.872144631590413 4.021180259712795
Rh 5.227896330493511 9.738902615737734 9.596196011349234
Rh 4.740154827748755 5.199906702166204 6.700122900755188
Rh 4.0750977625762985 9.866180116023196 4.566879227045307
Rh 2.9874330354377476 3.488593640570361 6.32628267250165
Rh 4.893333814276003 7.628670074863306 5.65178177616992
Rh 3.1961156901498757 7.479227699526151 3.82271682951376
Rh 3.9439651432146863 5.086526004643498 10.587251791458128
Rh 4.572786456239644 3.550412537454721 8.61779093478912
Rh 4.9315618504461565 7.384397868878995 10.088966186336421
Rh 2.579156298012567 9.376749893567643 8.807528335443571
Rh 2.385182989427685 8.695931185426304 6.096048042068323
Rh 3.7361525740955663 7.3533168538214975 7.87752461153863
Rh 2.359750844210468 6.097713797209451 5.931294476804819
Rh 2.581523374909145 5.167901100460068 8.417967382065465
Rh 2.3922208469568087 7.128362509630471 10.135701841448665
Rh 1.10922355566129 7.326587958522913 7.867539956598091
