42
Energy = -248.05222404 eV
Rh 9.45805331631793 2.6381547586011376 7.407753652338773
Rh 3.2328423139442974 5.888034739664251 10.31838160640571
Rh 5.305179853912424 4.5798553028438524 9.699515134122985
Rh 7.263583245412518 8.684776223048361 8.94260213365327
Rh 9.859479211485969 5.146918335447245 7.936522558764153
Rh 7.615482626429219 5.84845092411073 9.035810194946503
Rh 7.2041551936790045 3.11091351608856 8.960204755732397
Rh 9.310786838358595 7.5416749794414475 7.888536039452294
Rh 9.264998879226622 10.057359439277592 7.951687419478
Rh 5.467229176212584 7.189597928916154 9.78415509461739
Rh 9.085802179945969 1.9911029467872547 4.968579207508677
Rh 3.3924945352626064 7.403358476370235 8.36644005317926
Rh 4.772526184823713 9.49715986669266 8.634602137819138
Rh 7.602232964059714 4.416692174602473 6.861155626353156
Rh 5.131940309383526 3.2723490104570176 7.336052439538169
Rh 7.133273268374198 1.853640934939717 6.619964147640821
Rh 3.1035136077017595 4.8137349166147025 8.033660373081533
Rh 10.539191064997535 4.10324863620219 5.62868976047846
Rh 6.812959821567243 10.971511339691936 7.952670983955783
Rh 7.0374132497732 7.87335262096526 6.67053948525253
Rh 5.487081021702985 5.878901417272495 7.5631476970964355
Rh 3.9478013456155523 4.859011869798724 5.622380809130174
Rh 2.1118121193583166 6.6132643316141175 6.2803569825001135
Rh 2.8374110199434197 9.166155755799531 6.681013029796848
Rh 5.918584167416702 3.3595161712390094 4.913629314802446
Rh 6.969266383668496 1.2440621446151547 3.959274526914331
Rh 4.52472759354365 7.459292111185119 5.834277910255606
Rh 5.388132422197869 9.842732615010771 6.187494536422618
Rh 6.474375797598815 5.920154423420243 5.048775598545569
Rh 9.99867407877621 8.652549351392166 5.740598408062383
Rh 7.93874311769022 10.0653936760889 5.8342290448703436
Rh 8.397613401914883 4.24024541132719 4.2875774495680075
Rh 7.911625769730278 8.007475352698764 4.182973705328721
Rh 1.4414174111729796 8.494223839541101 4.637625306972261
Rh 9.098079127820599 6.270416522406478 5.6285528135608685
Rh 6.845287492149141 3.352944933483883 2.5665898394619227
Rh 3.067819235305457 6.6623703779494186 3.869642321036223
Rh 4.989272771452038 5.057014543029789 3.133595011283495
Rh 3.7979961518467524 9.307733981250449 4.219597874127595
Rh 5.520258671676716 7.603143502880738 3.3056008400910963
Rh 6.273713108887408 9.99376804919151 3.812242220635092
Rh 7.353250161005399 5.953822759383729 2.5793821665608596
