45
Energy = -267.9287896 eV
Rh 2.1902700890116775 4.309943743435831 8.187520376719732
Rh 2.676200003745581 2.353800209431445 6.57393737929168
Rh 4.041043369697334 5.4535094220244025 9.485553286015246
Rh 2.744584260773761 6.990197807311491 7.5677043883228325
Rh 2.8836418552573497 4.836531656769144 5.8400577397074125
Rh 4.625727541987956 3.4032790355325075 7.811389561158685
Rh 5.105764449565985 1.6401246050034095 5.96879035396335
Rh 6.025268068724154 6.570053474394311 10.692312556532768
Rh 3.4380668739114615 2.8354318183683866 4.187496532887655
Rh 4.455510294370846 8.011139825388124 9.204688131853048
Rh 4.808224027780094 8.454303579851684 6.619983857976798
Rh 6.557926358334256 4.72290443467986 8.911393943320753
Rh 4.923180789525729 5.857086417377884 7.15355155566054
Rh 3.078737227461884 7.303563489546549 5.012713677808904
Rh 7.13927717985845 2.9768505428568 7.040137220693758
Rh 5.18919528785816 1.1592588558950594 3.4706737348347114
Rh 5.366736662687947 4.09289101877707 5.28198518379923
Rh 8.02434068468797 7.753588506372445 11.79707952449984
Rh 6.1936153868233585 9.131781520493373 10.684826184020467
Rh 6.436012133321909 9.844320016686721 8.205121463773981
Rh 3.543928352113038 5.29598583853865 3.3842789857919944
Rh 6.722749052067712 7.306380462169487 8.25383212633024
Rh 8.423893354399342 8.825057060537803 9.496012572768057
Rh 5.48488742734856 6.609848953104241 4.725917834065652
Rh 6.486649385800354 10.362386454866169 5.734280061064278
Rh 7.366632799640157 5.505221031566422 6.395476758208713
Rh 5.456026474220895 3.6000809741467177 2.7479109461743843
Rh 8.507405312959825 6.222354629734475 9.86477239784677
Rh 5.131703155468666 9.055086884248476 4.031666158915533
Rh 7.143646481938988 2.474620025437057 4.473537844391101
Rh 9.045278339919507 4.48609646389362 8.055160470636277
Rh 9.26448839665911 7.151091355049729 7.59225219143134
Rh 8.828262750839526 9.676788500468318 7.083064333933584
Rh 3.6365403552719697 7.665061085939854 2.494017796827781
Rh 9.095929952419835 3.9265471117502693 5.412113795286585
Rh 7.377131155277539 8.039770592080618 5.840235344362749
Rh 10.875156740529015 8.1715525645166 5.993163017324278
Rh 5.658159595640833 6.098117941422294 2.1453956325029426
Rh 7.245797438620179 10.256391842250116 3.2357301405800207
Rh 7.419654178595644 5.091475784242307 3.747009090976064
Rh 9.12441684357656 9.200831017906717 4.508597820581949
Rh 10.894259998646428 5.504835960951824 6.537445456210242
Rh 5.792487263535798 8.683801871408058 1.577297407075865
Rh 9.285009738908958 6.520568227388064 4.812976328885796
Rh 7.415593392855286 7.668182998896959 3.2441803489377787
