46
Energy = -273.20111746 eV
Rh 9.483332853828546 2.8477467274915638 8.157581410942717
Rh 7.278800289173384 2.057578468345305 9.211315012303944
Rh 8.073573987969601 0.9658726563797438 6.939478342896913
Rh 9.115839052004237 2.8946437182754434 5.483329015799064
Rh 7.895602780494123 4.606825829799609 9.203004045054552
Rh 5.563787536811526 1.6431461740656306 7.313534795037987
Rh 9.393857951786561 5.017768971030585 6.9547644053441875
Rh 5.403477477227953 3.7133576365369962 8.923990399168943
Rh 7.169005422807889 3.6292821364248593 6.962416684830324
Rh 6.730696213804085 1.8426427503301865 5.02011961440731
Rh 7.543754137680866 3.9070076532333466 3.6907090569199728
Rh 7.243297089525702 5.831096435650819 5.388930703023803
Rh 9.56525604564066 5.330114009546727 4.423048299869486
Rh 7.604660793265134 6.738096289762545 7.89185456745117
Rh 3.5025575697677738 3.067535301169443 7.353823806313357
Rh 4.099428941840732 1.817211506366249 5.14082124533489
Rh 5.770430198487752 6.199613326945449 9.610952625224753
Rh 5.375891449077548 2.5685233725698295 2.9963060241928727
Rh 3.3474624571836076 5.216082642107762 8.823764845528181
Rh 7.867676657235202 5.783474679017358 2.0939891427658273
Rh 5.2798582403501735 4.100055974330929 5.151186907325965
Rh 9.268575576188452 7.385799714014011 6.062263017409286
Rh 5.530602708698581 8.268423637884785 7.857092396637906
Rh 5.322471943196761 5.726214626013489 7.181644090523484
Rh 2.9820205962625392 5.115954401487689 5.9309764562125205
Rh 1.2333043692814443 4.281674357310635 7.637327968220481
Rh 8.027707083146595 9.170454716428628 7.494544659253106
Rh 5.381802499742958 5.1663409815166625 2.735644915729987
Rh 3.1541922730593663 7.281980947504047 7.326393167081799
Rh 4.733725254719072 6.713816570060578 4.8113903310440636
Rh 3.1961919622469344 3.9361328043968946 3.5641947539489967
Rh 1.7262393967923058 2.970134574971355 5.450240198454871
Rh 0.8215698044883727 6.517756181845852 6.653918572734848
Rh 8.850993834776865 9.756394929523825 5.1066693564704435
Rh 8.595481223640338 7.617426785563941 3.6143057580657674
Rh 6.625272113085969 8.49982975421834 5.303844605185769
Rh 2.2725887527686615 7.642805796561833 4.88446603392981
Rh 1.1827822133752133 5.388995953357372 4.163465843804364
Rh 6.122765391127579 10.60966315282834 6.654572557375138
Rh 3.082774636989131 6.389618122483874 2.7514584338809653
Rh 7.488505364309775 11.821703010879322 4.800080039054115
Rh 6.186511051568075 7.560915497482531 2.8406429518232663
Rh 4.098661469858118 9.161496457291344 5.9020674437808465
Rh 7.414601762312201 9.8523088284457 3.021242554958398
Rh 4.0105834576261445 8.74076195429315 3.3255345003038252
Rh 5.3463728889643525 10.632623727524182 4.240562437493312
