48
Energy = -285.51969429 eV
Rh 6.33423788700759 10.220829874500472 5.691527663758714
Rh 6.767910268379669 3.716590750571429 5.880063349634996
Rh 0.7380543173416989 6.294148201601335 6.590115728552985
Rh 6.671507439617577 7.6273737304633205 10.11368608410677
Rh 2.7539428064653464 6.070595612736583 5.136747001376371
Rh 7.2185833550439815 10.220829874500472 4.867752200125551
Rh 6.899922029653523 5.019741344727414 2.2225736586172147
Rh 5.159871160476461 10.109676551309697 6.466024335426682
Rh 7.003811438688753 1.4429397079255109 7.225695269173483
Rh 5.74704958695987 3.0887854194011855 3.555706021329186
Rh 4.962868980011523 1.5910363681529787 5.665286615512513
Rh 10.651055819457342 6.715391838620766 9.465465699432304
Rh 3.1411310064654114 9.703541634356982 8.090838111122276
Rh 5.786865656097807 8.017013729308632 4.959518418027449
Rh 4.8558367040248225 10.061615828409913 3.8444221052783107
Rh 7.6588739476248735 3.6077956318298856 8.383785477203407
Rh 8.733738399190361 8.06748488081838 8.566997114769999
Rh 3.5979196582172728 7.832185301718809 3.484535312081182
Rh 9.128343607487489 2.874800987111764 6.313594106598039
Rh 5.109908012557711 3.249979113065337 7.801547723769384
Rh 3.269539591374499 5.260300849515756 7.663037909642959
Rh 8.320068355599737 5.730263868619951 9.741041258923149
Rh 8.070014919411765 8.219756206981227 3.4004153844933076
Rh 10.392544184080242 7.606528654199821 4.483488565231636
Rh 3.7522511172216597 7.738379198646741 6.675774783793792
Rh 4.265509353913206 7.52171510899796 9.23986378114452
Rh 4.000077311160229 3.8538478911895298 5.5485055150958305
Rh 1.9180621260659592 7.407386206296238 8.445209125808063
Rh 7.584130042441985 1.455706339736758 4.660452301520078
Rh 5.905492805232074 7.509649256419871 2.40640557443558
Rh 0.8287449371927347 8.952255865436172 6.808665600146399
Rh 4.8889095349983585 5.536784363016321 3.744994029222671
Rh 5.436931279434976 5.841090922057534 6.288908656083387
Rh 5.556292543979383 0.5099598368364162 3.489815256064493
Rh 7.915622389761881 5.8809826641013565 7.1737615916874935
Rh 7.632350405005315 10.143556759692016 7.473898350137281
Rh 2.8157889986977356 9.573526733552944 5.356089291516053
Rh 10.557186374391879 7.11523276004223 6.997667566160907
Rh 10.033136314972998 4.724144211323658 7.94611015273271
Rh 9.285261884410913 5.948967763047088 2.915886205674008
Rh 8.43419873376261 8.195937997903638 5.946828457581213
Rh 8.385127433890807 3.6539123327866467 3.8442729439890404
Rh 9.739600983345431 5.238001661677238 5.387425443597995
Rh 6.3071898108102635 7.938414103736856 7.586741553742024
Rh 5.534272408213867 9.866142158613293 9.069311726276553
Rh 5.817818340785979 5.521364094431697 8.821277411623008
Rh 7.381185472271671 5.968185341839281 4.5926128749648
Rh 1.1666139699423237 7.86221310084023 4.498748974138092
