48
Energy = -287.42508769 eV
Rh 9.395740690396368 8.485714323775797 3.767869498251946
Rh 10.443267411944326 6.1476815502792 4.828951437131795
Rh 6.605681311665068 8.528903509767952 2.880032632667669
Rh 8.268109240005233 6.452582339355744 3.157862500588998
Rh 9.334265552223403 7.92758631520393 6.219217134403493
Rh 8.584492883782923 10.072028343880014 7.363877024109827
Rh 10.068455646540992 5.8102345528285175 7.626462071417681
Rh 7.486091606817485 9.412554739690412 5.122637120434808
Rh 9.067879371420656 7.906715415166426 8.803800695322908
Rh 5.838897083965506 6.151451612051366 2.0408251893057114
Rh 10.20773603576842 3.786083149841433 6.0444344440915545
Rh 8.212506898340159 5.6215572249925945 5.822097018517802
Rh 9.058078785283378 4.000198488083319 3.806391344513731
Rh 4.894079624734058 9.235452989225971 4.820109980042892
Rh 4.096737571706319 7.77593602072603 2.837035017830343
Rh 9.207792611294202 5.662070804600985 10.06745074402028
Rh 6.26257954957511 7.123018938997343 4.980517575673275
Rh 7.139974517482931 9.590181334800489 9.404878015334408
Rh 6.906336842718445 7.9631007366569415 7.320450951507848
Rh 7.651948595693454 4.375762367408975 1.739808658982795
Rh 5.836120263674784 10.205499852832974 7.076721696818397
Rh 8.884948679026149 3.5416140110944565 8.256974112099462
Rh 7.425185964948731 5.587944427738759 8.242320931911351
Rh 6.878893845426224 7.132055789165889 10.12649127284079
Rh 6.902060476163024 4.458064448431791 10.386697703580845
Rh 5.246507637624952 3.886955049509537 1.0845015974432526
Rh 7.758533872427597 3.0202214989954888 5.880087041528257
Rh 4.4396876188008525 7.026100548431757 6.853906533664116
Rh 3.28929830501058 5.2969922708013035 2.1822263087738096
Rh 6.533408675691963 4.712969989293534 4.019836303116426
Rh 4.890085888624404 5.808749713467697 9.091438467765794
Rh 6.919119963012544 2.3139656946230924 3.512971254952299
Rh 4.945878735983518 8.512627340279503 8.957407068428726
Rh 4.127003390872169 5.711726475865617 4.505537897784581
Rh 6.3362920238119305 3.1148165381966444 8.152409423157545
Rh 5.726478745141673 4.870864860854919 6.412660868386748
Rh 4.545706293870973 3.332348557106886 3.3839004746425516
Rh 3.3572966815264604 9.346795070988554 6.956423903185875
Rh 2.746607808594987 7.797739685111778 4.979443362657599
Rh 2.293707863191132 5.598994012369734 6.724270184682616
Rh 5.236612861440929 2.42664808228981 5.7616135751163755
Rh 4.551755530477463 3.4643433952730294 9.993356323688815
Rh 2.6942924391555407 7.401168316549836 8.64118066926425
Rh 2.923164967911078 3.6115882640851624 5.250951624300794
Rh 1.609230545442852 5.6287791298562375 4.122055603749006
Rh 3.7970157238968465 3.625011325131118 7.610015007112963
Rh 1.0849389919979378 7.86042504836321 6.774305006851762
Rh 2.467179683959537 4.982118958071374 9.244320399637118
