45
Energy = -267.38936916 eV
Rh 5.247645871297932 10.433691328631355 3.655374638465521
Rh 7.300820187170766 10.026929405238826 5.126162973107192
Rh 6.791255412980719 8.368254792429791 3.097313485861629
Rh 4.903835537896016 10.891640064816064 6.204441055464349
Rh 9.20181639235403 9.573763147919207 6.714173085149359
Rh 6.496777568417588 9.927692495674911 7.85703107055325
Rh 4.146743772411633 8.234502625038507 2.8484914396715375
Rh 3.0296686601775704 9.514070398732736 5.0857001056607
Rh 8.873616239724969 7.894622852194205 4.734744806243667
Rh 5.24998215454949 8.461806848699473 5.266849195472981
Rh 7.312215640835235 7.861493961731224 6.806591268710666
Rh 8.381565016480733 8.565882550152791 9.029137239231414
Rh 5.6593986036263235 6.854277924914248 1.3942157933134538
Rh 4.116723616612348 8.736395871152618 7.530580601641703
Rh 8.010100229134428 5.943395701455436 2.7195804996223742
Rh 9.697484792382294 7.072814451936019 7.136455258107726
Rh 1.795142820057847 7.80675928840485 3.740867901480194
Rh 5.994586041470747 7.527365951903244 9.015611829347218
Rh 9.211702408401546 5.271650690583502 5.101093958795653
Rh 3.1296268309249187 5.97433700246897 2.1871920391094006
Rh 6.769964130163589 6.42386089006423 4.758077695191933
Rh 4.139636179773997 6.222758472956892 4.442256952818954
Rh 5.598670223619991 4.7967256947044055 2.7172700080661523
Rh 9.971203290313088 4.668419168835918 7.649143547550237
Rh 7.555308071741806 5.254390712885357 6.994759663678664
Rh 5.618058675821846 4.237572614150801 5.254281994905426
Rh 1.6088443244925845 5.400112904170779 4.448722080692961
Rh 5.178122215137616 6.351553100323436 6.818665275159484
Rh 2.5447863991436903 7.157181089226649 6.192203689808025
Rh 8.22018072053075 6.058933574609538 9.275791983978305
Rh 3.5037730959410975 5.965563464895485 8.584236083296815
Rh 7.6344340338143635 3.5195467156473477 3.982201807657257
Rh 5.8227667810945425 4.909975248827937 9.091667142406013
Rh 5.4007218398870345 2.2914500432730867 3.5071236017395244
Rh 8.09974923220246 3.5055558618572027 8.994027510626337
Rh 3.1750279284116 4.599022000695417 6.374476930582199
Rh 3.3856245191500696 3.758712298722005 3.859783578317953
Rh 8.58043832704286 2.9453379161623894 6.3389171328776746
Rh 6.17565107630999 3.04634136501916 7.323788971583037
Rh 4.146979181946799 2.175447655294018 5.811374018892739
Rh 3.889637622560069 3.2403446046053266 8.354851983955504
Rh 6.72422878464082 1.3864791260503235 5.514084377449496
Rh 5.973598162777376 2.3180990878686547 9.75330565308612
Rh 7.700564517256336 1.0765303125858166 7.977285817065962
Rh 5.076351778077188 0.8202101356232337 7.79917479462847
