48
Energy = -285.57541144 eV
Rh 8.276504377817634 10.486058610194664 5.89155583260886
Rh 10.048734384547885 8.652463586059461 5.233476315247714
Rh 6.399459640200306 9.533042255202083 7.322349062796313
Rh 12.072703119676843 7.723766068069358 6.090198713765492
Rh 6.139424877667181 9.703957373425721 4.753019671282583
Rh 8.282842751407767 9.566567394043572 3.4596411786450876
Rh 8.167567278146423 10.861165905578682 8.47280832731617
Rh 1.8054062170005267 8.869293040220178 5.630080531081667
Rh 8.605952058146624 7.118938778401347 3.804273352284151
Rh 8.945370862252876 8.631697937094083 7.485074293671077
Rh 3.9224815093324215 8.812663874620366 3.8785846921782663
Rh 4.104050002084558 9.869477905721046 6.323986686914689
Rh 7.278742513929435 8.71357448898649 9.558852489204053
Rh 10.811096392612669 6.929556202185278 8.117687250106467
Rh 4.661605319509147 9.290423672300022 9.048243317516201
Rh 7.336233930989811 5.094103095169345 2.878043740984576
Rh 5.1275458832888114 4.434140464538192 1.7656991317853123
Rh 6.979774635628484 7.515619850042239 5.761462088448995
Rh 6.270122071285903 7.709199394005337 3.1358768306914717
Rh 11.4622483528449 5.310693355043729 6.124699309682808
Rh 4.1736465970127155 6.492456001057495 2.7728351008497265
Rh 8.277131905509869 6.493533668370303 8.803407671704518
Rh 9.688233123126121 4.903206761043009 4.125815696119878
Rh 4.394407044157169 7.35820580653215 5.910190205753778
Rh 2.4324938640279004 6.573367968088947 4.669456720176567
Rh 5.725168884755877 6.972543071717418 8.139246228458711
Rh 6.4696843161096504 6.389339664963423 10.566867681269056
Rh 9.225371010808312 6.355527548312949 6.223637682682559
Rh 3.9138318937194585 7.047613674381784 10.021881087767566
Rh 7.115447937401331 4.971923565287695 6.901668095943857
Rh 9.699296604791913 4.520759748022256 7.925689498579542
Rh 7.853603981921896 3.4978283784087494 5.020499623657693
Rh 2.8954453710946435 7.972180915104756 7.773663366887317
Rh 1.0131531670920129 6.684462792440948 6.752402232181127
Rh 3.472178935233722 4.330379736397108 3.873972620254271
Rh 5.684587252950838 5.510854350703253 4.663403079191184
Rh 10.211197887437349 3.063294227194119 5.840314809063733
Rh 4.432073048071185 4.99967046299052 6.8668186878787125
Rh 2.493918945366413 5.535596872825028 8.493612834082088
Rh 5.707808477601687 3.074594298605358 3.7983327985999695
Rh 7.448393713811727 4.137618394821497 9.3557954344898
Rh 4.878376113333581 4.73416328926312 9.449775437933056
Rh 2.100657363511247 4.395300507269731 6.040888624864513
Rh 8.195197386753248 2.524685061482066 7.427359494187343
Rh 5.743657600037974 2.9143984472851527 7.7749657090693916
Rh 4.082694557911137 2.7009521426566403 5.78150431982225
Rh 6.415147326171506 1.5449658373423663 5.732894657981479
Rh 3.178661090538893 3.093505135160659 8.176819362968041
