40
Energy = -235.5430358 eV
Rh 5.988939834650183 11.306486083874631 4.544895743361903
Rh 2.4070878473413706 9.613660745581086 4.78067432663656
Rh 4.435909115214719 10.129348442710548 6.1567649828710085
Rh 4.562540562496003 9.501759951606664 3.496801484480121
Rh 0.9537474996044805 7.656037268426095 5.149247523298585
Rh 3.2188064488894708 7.240780713399369 4.007403345373263
Rh 7.110908485184768 9.114925493078998 3.7600337099071917
Rh 3.0866693466013926 7.853934328317794 6.604184593883671
Rh 6.9856680084214675 9.725953798971084 6.324729122338917
Rh 5.496580045481796 7.90129435417999 5.329155492221147
Rh 5.3255939134036625 8.473676794321843 7.952783872348869
Rh 1.8509473944115347 5.416567953680256 5.736295215416374
Rh 5.569982095828673 7.234316112582034 2.718924169438366
Rh 4.34570764294006 5.702814837727195 5.806856184217579
Rh 6.574192321471255 5.986524671048166 7.2055523063191265
Rh 8.139057830560676 6.870859050404356 3.022186732653341
Rh 7.908716612502947 8.07292243369209 8.064699622472686
Rh 4.396955675842603 5.0707650477226505 3.273042376003727
Rh 4.158321531034854 6.279399736296622 8.34719394426308
Rh 8.145832548564885 7.503596820429731 5.543519404887223
Rh 6.68674270238392 5.37728969719642 4.619174807527729
Rh 6.70312083386656 4.82767917307918 2.1404172125663044
Rh 9.292147308260725 6.04019487178414 7.313395909103611
Rh 6.365820979972983 6.629052462593522 9.65386143065491
Rh 3.2874656675142786 3.4300869074715488 4.9333591967223365
Rh 9.31543394690646 4.816852896559541 2.1750577450548794
Rh 9.401741421753659 5.41388767276412 4.729296061512241
Rh 8.978751252238496 6.660673414626789 9.842925214381722
Rh 5.511937977361655 3.5297738397561527 6.377832839128908
Rh 3.168809415036325 4.046788313199129 7.505288856938391
Rh 5.578242981439957 2.872320233728291 3.7513753151184193
Rh 8.181511559956167 3.9007242266888307 6.41007796765487
Rh 8.123340380592335 3.3649917979053536 3.848856627579763
Rh 7.90180551342144 4.582742156433951 8.918638966930297
Rh 5.337574957083814 4.134639884900417 9.01354460264109
Rh 4.5205091412059 1.2565600319411825 5.524670406196926
Rh 7.0951269950684654 1.7066833648980322 5.531622967330638
Rh 6.974132317081528 2.3256357214316976 8.092177234188291
Rh 4.3993832631867145 1.8706145177226097 8.08747857182026
Rh 5.990618157993151 0.10203245912130478 7.226130763437683
