45
Energy = -267.55922081 eV
Rh 3.656652726709353 6.268583133916145 8.761977829557742
Rh 5.759527208747551 5.472675698993282 10.201443844823357
Rh 3.7247855688730676 3.9333103513948884 9.704985171629978
Rh 2.267284603078192 4.359122276293106 7.588390405860403
Rh 5.43320245227082 7.996752250393888 9.630860295640057
Rh 3.711733955231739 2.2141552262356816 7.773584382219619
Rh 5.862666435195615 3.582595129740548 8.375183609973128
Rh 1.707351268413553 6.895027250722077 7.165097034843948
Rh 3.153157817548395 8.755419802660352 8.455797247473475
Rh 7.795497353076873 7.079412602405697 10.380288944324308
Rh 3.2818088556406733 3.0790685449769177 5.3418402730827665
Rh 4.13106883100414 7.5141615075100106 6.422597097054283
Rh 2.627887613923938 5.614605416613489 5.166979370519857
Rh 5.508154795409218 6.192988255142675 4.697527680958486
Rh 4.496414464380581 4.8093604154286576 6.649290266462421
Rh 8.260339599913278 2.912700628108507 7.403465042729025
Rh 2.117426186886499 8.150574487736133 4.863283149877776
Rh 8.004351687586457 4.984661397827836 8.963031107001333
Rh 5.716213515953543 2.1859043303171686 6.2150463734126244
Rh 7.670616981907175 8.483431463614375 8.348929955494606
Rh 5.362273986800637 9.586995399389759 7.602330020006356
Rh 3.3214494068092946 9.955629931349561 6.045334255566628
Rh 6.17277110868699 6.351981748671654 7.77028157820815
Rh 3.3054970225319384 4.447464462945769 3.056150782425326
Rh 3.655346437423327 7.093487036497084 3.2170474637768742
Rh 5.468230837774526 3.5910991026930654 3.983617473318618
Rh 9.883373922183022 7.079002078786781 8.617893517968502
Rh 10.265078798098552 4.617716810859049 7.841633042790901
Rh 7.753543016325976 2.4038318767888627 4.695151410407239
Rh 6.655073607566527 8.101005287233813 5.927585032460601
Rh 6.9285736560222615 4.477117809450783 5.9309694622503875
Rh 7.529363058168884 10.428259360791262 6.576248464965466
Rh 8.096269175481703 6.837314077427675 4.188498957916231
Rh 9.466703450526518 4.232045474683419 5.455196814807419
Rh 5.498089025358137 9.958775043513103 4.777724457445202
Rh 9.452684945673983 8.670314197244702 6.373067149818482
Rh 8.483440954721187 6.367088214895964 6.702393741237078
Rh 5.539480604811973 5.569582841997081 2.24852449858181
Rh 7.821326691803085 4.494761471004167 3.260498164267815
Rh 10.833594274146797 6.410549708672842 5.9503737337985525
Rh 10.288224910539618 8.096415734951496 4.029735684853705
Rh 8.049590753356979 9.449271204009275 4.219536634294024
Rh 10.184075195200837 5.621208611178737 3.474265878905848
Rh 7.847244905314725 6.486768348308357 1.7328416086619118
Rh 6.1138763187103375 8.049121982412647 3.0748190741162147
