49
Energy = -292.34614511 eV
Rh 4.015831483800292 5.370912680391086 1.5847877520775022
Rh 1.7280805528692516 3.851705774040534 1.994447404457351
Rh 6.3747271836922685 6.500093136232161 1.8590572506133474
Rh 6.480008149170473 8.765901568457764 3.0613624629426157
Rh 4.40712426672816 7.262356979773236 3.2844269860923028
Rh 6.276805053688085 3.9203698343033233 1.5278012716370393
Rh 8.060811595697393 5.184394882085649 3.178469867993422
Rh 2.2036387444183037 6.011175518508981 3.2994088275577407
Rh 4.00728966231678 3.019728081539611 2.6152085060899983
Rh 8.786780368429467 7.655434508546325 3.627511571723022
Rh 7.5301931411864 9.420632965915221 5.229919672252996
Rh 5.031994557072636 8.85894782528451 5.238942818884689
Rh 2.048838927563594 1.8126523027014008 3.633214738184884
Rh 0.734223829899847 3.93392932081208 4.382419477783499
Rh 5.504676242038752 4.840884935719355 3.8162398558354225
Rh 7.557761259063487 3.6540351883203206 5.154261574334872
Rh 3.1574595004840607 4.268832383617034 4.729599714940516
Rh 2.5514977683116866 8.032944994209574 5.012952722598543
Rh 6.783172159382476 6.831464401590764 4.915927625615122
Rh 6.3094597450468655 2.276219800227107 3.499789534336669
Rh 11.246570165503082 6.792227601089989 6.754016688846839
Rh 0.42188418324260785 6.453257872635794 5.016920678949674
Rh 4.286287284954422 1.8991046289737674 4.995973038296542
Rh 10.025198258719417 8.686540295613295 5.599703475990154
Rh 9.280899680509624 5.711306860277535 5.379311560433306
Rh 2.084579629712472 2.5403599495314757 6.216842820223082
Rh 4.274662707253694 6.328742792196516 5.7046893596545
Rh 4.120630421211284 1.2501678732370243 7.416779770065224
Rh 5.2127306965578315 3.9670385924414577 6.375846393039102
Rh 8.313235751340985 7.576168508946159 6.95363011989127
Rh 9.812214178021138 4.821298983315899 7.715381744105072
Rh 6.480790842525747 1.4902379219861506 6.147384438443918
Rh 1.7577912740221988 5.045594938663025 6.649730578200444
Rh 8.919898502088694 10.714395386080914 6.790878342207582
Rh 8.326754277886943 2.8129349198283355 7.413698977147967
Rh 10.823739785917205 9.237115031776428 7.938607369772394
Rh 1.367190848427763 7.537689495344466 7.154368509332082
Rh 6.251904374808176 9.911791151869748 7.398466856844183
Rh 3.6595657288822805 8.90856976675992 7.310944226420794
Rh 7.337979937522924 5.253806025715182 7.121204447954174
Rh 3.409384591905034 6.350764464681828 8.074022268827033
Rh 9.90222131411443 7.059898371247273 8.848880399723258
Rh 3.441333340631304 3.6797559614532327 8.104202609940007
Rh 5.9612729714019155 2.655630065816239 8.460810432525301
Rh 8.362714735584976 9.227730037493217 8.721922000711942
Rh 7.816150070297078 4.246555760846257 9.475481551745355
Rh 5.743393053158809 7.4633570340506 7.508772130116773
Rh 5.462800101251806 5.161818948079053 8.84531937408122
Rh 7.422186376020461 6.81986295210784 9.336799474893485
