44
Energy = -263.1085353 eV
Rh 6.589852854225026 8.458010800526647 6.589852854225026
Rh 6.589852854225026 12.07675332 6.589852854225026
Rh 8.538573384831267 8.538573384831267 8.538573384831267
Rh 6.589852854225026 10.282497068477527 8.44545718473211
Rh 6.589852854225026 6.589852854225026 8.458010800526647
Rh 6.589852854225026 4.721694907923404 6.589852854225026
Rh 6.589852854225026 6.589852854225026 4.721694907923404
Rh 8.458010800526647 6.589852854225026 6.589852854225026
Rh 4.721694907923404 6.589852854225026 6.589852854225026
Rh 6.589852854225026 6.589852854225026 12.07675332
Rh 6.589852854225026 1.1029523884500516 6.589852854225026
Rh 6.589852854225026 6.589852854225026 1.1029523884500516
Rh 12.07675332 6.589852854225026 6.589852854225026
Rh 1.1029523884500516 6.589852854225026 6.589852854225026
Rh 8.538573384831267 4.641132323618792 8.538573384831267
Rh 8.538573384831267 4.641132323618792 4.641132323618792
Rh 8.538573384831267 8.538573384831267 4.641132323618792
Rh 4.641132323618792 8.538573384831267 4.641132323618792
Rh 4.641132323618792 8.538573384831267 8.538573384831267
Rh 4.641132323618792 4.641132323618792 8.538573384831267
Rh 4.641132323618792 4.641132323618792 4.641132323618792
Rh 6.589852854225026 4.734248523717945 10.282497068477527
Rh 6.589852854225026 2.897208639972523 4.734248523717945
Rh 6.589852854225026 8.44545718473211 2.897208639972523
Rh 8.44545718473211 6.589852854225026 10.282497068477527
Rh 10.282497068477527 6.589852854225026 4.734248523717945
Rh 4.734248523717945 6.589852854225026 2.897208639972523
Rh 2.897208639972523 6.589852854225026 8.44545718473211
Rh 8.44545718473211 2.897208639972523 6.589852854225026
Rh 10.282497068477527 8.44545718473211 6.589852854225026
Rh 4.734248523717945 10.282497068477527 6.589852854225026
Rh 2.897208639972523 4.734248523717945 6.589852854225026
Rh 8.44545718473211 6.589852854225026 2.897208639972523
Rh 10.282497068477527 6.589852854225026 8.44545718473211
Rh 4.734248523717945 6.589852854225026 10.282497068477527
Rh 2.897208639972523 6.589852854225026 4.734248523717945
Rh 8.44545718473211 10.282497068477527 6.589852854225026
Rh 10.282497068477527 4.734248523717945 6.589852854225026
Rh 4.734248523717945 2.897208639972523 6.589852854225026
Rh 2.897208639972523 8.44545718473211 6.589852854225026
Rh 6.589852854225026 8.44545718473211 10.282497068477527
Rh 6.589852854225026 10.282497068477527 4.734248523717945
Rh 6.589852854225026 4.734248523717945 2.897208639972523
Rh 6.589852854225026 2.897208639972523 8.44545718473211
