41
Energy = -242.02314946 eV
Rh 5.241358791931286 8.061710044457008 4.315604633189037
Rh 6.943375452284847 11.249599654631583 6.145965087819459
Rh 5.947350623043853 8.957003805146432 6.910538720552204
Rh 7.584568142262583 10.377454975753976 8.546574972335886
Rh 5.062655867208624 10.99357159271567 8.000475396397016
Rh 8.508427873231346 8.234605402957932 7.2884001889978665
Rh 10.100632599227103 9.552058234261114 8.821155299026108
Rh 4.756553296189178 10.423495899239127 5.175906421739722
Rh 6.9614468481001746 6.865268451361507 5.79593611490523
Rh 7.6886673190657175 9.103942628562972 4.730452593678172
Rh 9.313505136796635 10.487758331151435 6.439830688923775
Rh 8.169218603567852 8.232620887512166 9.925863709065046
Rh 8.598119680773197 5.562710334707762 7.257613813483906
Rh 10.250929044065574 9.240644746468321 4.485393674420206
Rh 9.39424675246902 6.900984550326151 4.924452119561759
Rh 10.993110367605972 8.230299084893158 6.6792808095328535
Rh 11.069640436141958 5.7174422309364985 6.641952802568477
Rh 10.244086395448841 6.939206818837728 8.885464119756433
Rh 10.442951591417962 4.615636291939596 4.477393432135236
Rh 7.2757649884914315 6.830231319509841 3.3084378736293347
Rh 9.484182932381946 3.323761050893711 6.383124379408399
Rh 8.231201745552653 5.5260458392212515 9.878568214425588
Rh 10.190176960675506 4.308862017690029 8.786972442024599
Rh 6.213778893363447 6.760041199034659 10.897814986068118
Rh 5.633032827984051 8.967292011076138 9.588650831963783
Rh 6.5376331796309355 6.829360905272277 8.315369456203276
Rh 2.983653416970058 8.569985476798918 5.510843753120056
Rh 3.561608707440211 8.817466047064753 8.000280198110032
Rh 4.124688387536016 6.7168854316190005 9.235849157872671
Rh 3.690985762168923 4.595150476728838 7.738275693699318
Rh 4.441489678284499 6.786881344461556 6.594935523781214
Rh 5.346271016463652 2.5354644811278284 7.9870782628822585
Rh 5.363321022541311 5.390697773253602 4.3478314028266665
Rh 4.480138372895692 3.281750558177037 5.579866058447321
Rh 2.7860095208120805 10.819857488781864 6.701786162810295
Rh 2.96333113095886 5.327854042504479 5.295480511611675
Rh 6.111374363053063 4.705065295605372 6.882628840168257
Rh 5.720219116093012 4.614663088038519 9.49129240480224
Rh 7.805821643457411 3.295375491653955 8.440921019572084
Rh 7.855892408444343 4.635665196017206 4.7321973939938955
Rh 7.095446841663805 2.5114175686654368 6.020408495824985
