42
Energy = -248.35120029 eV
Rh 3.248908519235426 3.266096570180677 5.156897241711787
Rh 2.227604525955005 4.550124245986642 7.09256365951343
Rh 1.7615413088329934 6.704423062565315 8.51890046704886
Rh 3.1273009046219387 5.864045115310206 4.865745338892689
Rh 4.375050544185537 6.913332107560609 2.9144828333806814
Rh 4.7005935234643506 3.8247467097436245 7.170596856819773
Rh 3.641698128337225 4.969115272238786 9.35985574697261
Rh 5.828768395129039 2.7662705625384727 5.125761691534104
Rh 2.4618629325923163 8.42681157752629 6.949492169274824
Rh 4.653975294439565 4.325568763350163 3.346948290780146
Rh 7.01254373640048 3.31539963776023 2.8932601109495044
Rh 6.056580232495518 4.17937107719608 9.295768076528939
Rh 5.63450000911661 5.49446117042714 5.407617169076778
Rh 4.153503877217296 8.279649747052693 5.054278126022275
Rh 7.196889436333469 3.1005907955499783 7.28912571741883
Rh 3.4617113076490784 7.405429051457365 10.189628879300502
Rh 6.677965931648163 5.8600706488455865 2.994514652873402
Rh 3.959156755541956 6.329918602487469 7.198900345516443
Rh 5.677443302498606 6.930685148317325 9.167971345354404
Rh 6.346244074222792 8.38311405767328 3.5549547172247067
Rh 7.911961417340496 4.2509829225195865 5.077487324755111
Rh 6.027475214291018 7.849507888375025 6.7015524839068235
Rh 7.869186630532289 6.9599270998579525 5.09991482870589
Rh 9.039818968212964 4.978196658341829 2.799315955157957
Rh 4.027765892365005 10.437277658958461 6.411494706240716
Rh 7.366942398106785 5.685247576526058 7.44841610965965
Rh 6.273096311732912 10.046806619676769 5.4605933428111
Rh 5.269002506951456 5.564582261440742 11.248370007982297
Rh 8.624128421982059 7.564540537549125 2.7027616665951877
Rh 9.532062660980857 4.346036165684214 7.136018992422123
Rh 4.37826254787169 8.953127840480818 8.410405914404732
Rh 7.797255204128518 5.872486316863154 10.074451320410489
Rh 8.58944658629486 3.541509952548039 9.43355836189354
Rh 7.892860329189194 8.039214131176532 8.592214889207026
Rh 10.99493437205814 6.603314069533609 2.884155025380728
Rh 8.487490472474068 9.156245807210237 6.355168004410038
Rh 6.537603824585025 10.132776222664376 8.074756305984428
Rh 10.170940577790798 5.533491423743369 5.005996899492903
Rh 10.104931971252586 5.733169785825752 9.197013665764063
Rh 8.337847461464502 9.88443955963185 3.909756742659294
Rh 9.747257641493167 7.016812844060844 7.091645468491783
Rh 10.15119123416192 8.131215524720385 4.731788237201654
