43
Energy = -254.55770169 eV
Rh 9.480006820106912 9.70981316833743 9.338644900979633
Rh 7.032894459726236 10.057121603116006 8.18581739998591
Rh 7.47873737209692 8.930820934134966 10.425811261844526
Rh 6.2967470637790415 6.861293335079642 11.138729124331894
Rh 6.0022852470772 11.420506926335683 6.333578567152672
Rh 8.707280871202403 7.047011775943932 9.235916623210214
Rh 9.101327408065206 8.65045835841149 7.176665379932631
Rh 4.816513471614636 9.200491129812063 6.914379056857985
Rh 6.625277672060402 5.489545506065829 9.092744215625752
Rh 5.243578163524081 8.374735741480473 9.338401821334575
Rh 7.232420198065306 9.296165616005883 5.5833416307112085
Rh 4.252874637697509 6.038290246415975 9.853679652853131
Rh 6.806235522996829 7.524657313029087 7.581371203026284
Rh 5.052885221091453 9.946866922651415 4.451882981062645
Rh 9.712628245895369 6.22435416454186 6.973496436314083
Rh 3.309156768791092 7.439128264740434 7.892461259799214
Rh 8.89393170187309 4.461755522414145 8.585831333664542
Rh 4.391069667944692 3.7896321460130937 8.479252616825566
Rh 5.436635398990673 7.388778420208857 4.988026239340366
Rh 4.997925867034815 5.735058346156004 7.016684861887334
Rh 2.2101853857895497 5.156483260253422 8.681386520655884
Rh 3.030701543151508 8.032910186740319 5.369739140938087
Rh 9.04312243760844 7.674525941109729 4.831587829271489
Rh 7.462976714001833 5.857709502854628 5.78474361158824
Rh 7.048964804906889 8.1665120903654 3.2380519422610172
Rh 2.4231457991443843 3.1989926008730705 6.964964653868429
Rh 6.8178247855126175 3.7222281318122503 7.31465756922996
Rh 4.223460895336826 8.262164013896257 2.8207809110872195
Rh 10.379541569750275 5.43803526189554 4.46910421737895
Rh 2.675118034209822 5.582399011794483 6.187431770246584
Rh 9.073655951958665 3.920343515567466 6.014906321115349
Rh 5.435623636676434 4.624009573931891 4.685428021657281
Rh 3.4067838050688564 6.045293283884199 3.7808934604246427
Rh 4.768348651325793 2.6639286681787557 6.176549821406647
Rh 8.097901890375935 5.741779709479645 3.377473744999288
Rh 5.690054835824939 6.129315464208156 2.5679753879401526
Rh 9.033314724982942 3.396947871990471 3.520795920366641
Rh 3.0096737053376 3.608289410539297 4.45318093435602
Rh 7.082885143371599 2.6076752393255314 5.026007727928683
Rh 4.084515240405358 4.1173479646725015 2.1424528537959135
Rh 6.675708553151094 3.798787026071417 2.4681756232455614
Rh 5.016782166090561 2.180468820133583 3.587277888284549
Rh 7.353655794530417 1.40172585767474 2.864075409359933
