46
Energy = -274.2034003 eV
Rh 9.704750167462928 6.463070018845292 7.916071582946989
Rh 10.362621411765778 4.064602898685168 7.592156520799356
Rh 10.300552072790675 8.331814966597204 6.2221893457939785
Rh 9.27446925785822 4.90623452117282 9.857587897341658
Rh 10.244681538376094 5.630207193146508 5.461986447916164
Rh 9.057328587688245 8.94587285026629 8.292003390412296
Rh 7.919011192392653 7.206101915902214 9.848164727675186
Rh 9.266753885361197 9.125909555285878 4.040595275826568
Rh 8.94534724099747 10.569992453421198 6.3492572447384426
Rh 8.493337859832618 3.8617643634274117 5.817443224714836
Rh 8.03266943592531 3.309648733605355 8.291900335119115
Rh 7.373325626814151 5.626567325006021 7.40995669340497
Rh 9.325071624542495 3.977948610435606 3.480640633655682
Rh 6.446549926483725 10.6534291682363 7.3054212802257625
Rh 6.688603047641562 4.938960462352588 9.759754568395742
Rh 6.89475539482117 8.170873895092997 7.506530047856278
Rh 6.691980154879823 9.411749106052918 9.69512903252295
Rh 6.9902286659915385 9.862001993673124 4.955194163929643
Rh 9.372283502847733 6.554702071211233 3.2360105525512237
Rh 6.898740119965143 2.9424134464693577 4.035912066182831
Rh 5.335498331402506 7.116980289403517 9.930347964638711
Rh 8.205893464929423 7.177002024687872 5.435380545960886
Rh 4.958221042585148 6.481892908786777 7.4840706139697355
Rh 4.171103639111329 4.725125543728794 9.203772536363354
Rh 7.238266036071883 5.252614643581395 2.649263934297186
Rh 7.215338842367609 7.835576474397598 3.073302967936751
Rh 6.917550075313543 1.943718905068362 6.453616503873521
Rh 5.62733620589532 7.765501064883731 5.2430653191002
Rh 6.481191183637675 5.302331391163456 4.968902008214245
Rh 5.1537486782388235 9.328446403271464 3.1843843309813606
Rh 5.6684372137976755 2.667470153800215 9.057792004350498
Rh 5.417470672735511 3.933779584749345 6.90268609151108
Rh 4.557108754559679 9.0423036546115 8.190300266917966
Rh 4.3857752358819475 9.8941019323932 5.744342713134834
Rh 2.9173893181850232 7.094742477192056 9.037225109030484
Rh 4.9699848646476354 6.629300823630522 2.9180324172150285
Rh 4.68965490301208 4.106096922406032 3.4229038849690308
Rh 2.463301816040268 5.291817754878447 7.243505179086422
Rh 2.9135977821750707 7.908933684048769 6.557448732831404
Rh 3.9113615910773927 5.8113753039762885 5.237244383842206
Rh 4.648568471190363 2.3364572725588277 5.240803806923661
Rh 3.083676649533278 8.076317755816639 4.048864681505522
Rh 3.2186082834582606 2.9058855541283592 7.449058874631987
Rh 2.572477459401963 5.589163237978469 2.9878695944511136
Rh 1.3832695200276264 6.3315008533802315 5.127819751591444
Rh 2.5017525124193893 3.7873410987265395 5.0237340127965275
