42
Energy = -248.12131999 eV
Rh 6.420552578652411 4.467169240409335 1.8674445389397298
Rh 4.243620186280644 3.010094546450477 0.7856126161577817
Rh 4.120658488900629 5.542103103645311 0.8059355130114336
Rh 6.377502088746181 6.912861280660216 1.2397389051155563
Rh 6.744982757861563 2.013559201876074 1.263792964669075
Rh 1.638916798343641 4.1242320495392875 1.1484444093088075
Rh 2.193098107660731 6.54534692090047 2.467031193037873
Rh 3.188286112001272 4.300649353539573 2.9687885544774626
Rh 7.666232957854267 2.846731453684101 3.597274902034138
Rh 5.905228786927654 4.471547163156618 5.02254543320712
Rh 4.030711602326713 8.086214420346508 1.6698904154295713
Rh 5.133513051313433 2.645275869220676 3.1422741692229206
Rh 0.08197664218588016 5.356387045543813 2.8756423615594886
Rh 6.0021011386256 8.502571240064274 3.2795000816788744
Rh 2.535014294619267 1.8740730265232126 2.482745259600495
Rh 4.544207157567168 0.5466002186802085 1.7242259251550374
Rh 4.888298015952149 6.1036111191853495 3.1730349141946648
Rh 1.2468071077470113 4.069779560940574 4.63210300402466
Rh 7.460548204958985 6.226534514221172 3.6073554633620506
Rh 0.26479922697723285 2.691759110316319 2.865419626160929
Rh 6.5235442510484365 0.4676525088114149 3.405247879028402
Rh 3.990124965310587 0.5726506080111641 4.2861486267215625
Rh 3.4745663111154523 8.015082285999034 4.238300050857194
Rh 8.947930548195197 5.025147756630191 6.490890777224319
Rh 3.6637809943073196 3.056836866416574 5.139124251173785
Rh 3.4752297871670934 5.586650729908017 5.35843686737185
Rh 5.972897596467004 1.7678137270876606 5.479241010826895
Rh 5.681496399269224 7.180294772993371 5.355691006819063
Rh 1.6621636760195069 1.5070912494753947 5.0442720907121075
Rh 8.947930548195197 4.566855191258133 4.864606850478576
Rh 8.37341030654265 2.227039374526915 5.998994551436812
Rh 4.351840343511336 3.9826210612028805 7.447147273232614
Rh 1.2574243298838301 6.67346738100613 4.971127678099648
Rh 3.702546676481937 1.3386129448885675 6.892993073830886
Rh 1.865602201724224 3.3053466732388057 6.995597872646727
Rh 3.693471117598307 7.627501958430539 6.901713122239916
Rh 6.21282626354583 2.3981008467330938 7.848796193589814
Rh 8.00020533208499 6.654598229696261 6.132821820845065
Rh 7.462101087912 4.35688492781129 6.9346271836185505
Rh 3.80444323854436 5.868094639362485 9.017719632668994
Rh 1.9668029779807175 5.81557586797462 7.442121507916434
Rh 5.805336026520765 6.1272281579163685 7.593828626595649
