49
Energy = -291.22335249 eV
Rh 5.686923937549852 6.291235820921095 0.6434253678299249
Rh 3.3175018773510128 5.17313854276874 9.421837545869739
Rh 5.368061320420535 3.6197347465358116 0.5216694955089709
Rh 2.8718406879858374 2.9342307599601547 1.5588095524029104
Rh 4.779505951743418 1.0692744987023506 1.2894731250472047
Rh 3.4517548988035656 7.433077144859409 1.5041517003270999
Rh 6.930525517902129 4.7422114811895755 2.528917594493216
Rh 1.6092413191853638 5.4894162224398 2.116919576096339
Rh 7.1895674277973844 2.150610557653309 1.6905505683120112
Rh 5.689110755820023 8.877170996988161 1.7567141146098708
Rh 4.122440864128503 5.010862085490753 2.2686778079576615
Rh 2.417112191762138 3.782917297200779 4.06103438978554
Rh 5.152412343558497 2.85770325838985 3.0085850704191235
Rh 3.3239570265480403 1.2449960446808281 3.587715148818469
Rh 1.3898177300074535 8.050175117533758 3.0715327783255275
Rh 8.46731264506956 5.124282593588017 4.662071564874932
Rh 5.973148264341081 0.5244420091662515 3.59649468459864
Rh 3.8590339879392643 8.954019404953526 3.6836674475138764
Rh 3.0985391095720964 6.496342714070551 4.012253982071188
Rh 7.983315134707232 7.118193265209354 3.067176302769578
Rh 7.534684303736697 2.7878840025709106 4.187462755796841
Rh 6.4285534441874095 8.997148854938297 4.383703738095129
Rh 5.489278466605138 6.903491993317926 3.1875386486093573
Rh 4.862301526322432 4.7418199321842645 4.747697293929409
Rh 6.52787774846879 6.558436006826225 5.4281782016700095
Rh 7.294754677572112 0.731425171311807 5.8331270365705485
Rh 8.780216520482812 7.7675473964169015 5.3962339804067
Rh 0.8064086100117004 5.944994868795874 4.795950681222225
Rh 5.267515280201971 2.2183649740817826 5.482862860378415
Rh 4.628093410241685 8.275965929803741 6.086630577711464
Rh 2.0743467547483663 8.250296523010267 5.627827585257535
Rh 1.5606944251979404 4.170441620302292 6.516379893837632
Rh 4.580106895323781 9.31976635217766 5.714960553081239
Rh 3.3017952856501913 6.027979386189915 6.4058536418835
Rh 8.767153198711867 2.8321096551516654 6.426510117636006
Rh 2.7080897425540407 1.9587465510786666 5.936041553949675
Rh 4.212353122957321 3.7918836795809123 7.128462147470911
Rh 6.71450522109948 4.213932814884255 6.437594877856676
Rh 6.920357095033138 8.446883633740544 7.086618817759029
Rh 8.150137196521923 6.160763048630675 7.36196661430889
Rh 1.015445368979391 6.561355428649822 7.398294351365206
Rh 6.704681689135407 2.1268516190524944 7.886007187431898
Rh 4.390713858002382 1.2200797147082905 7.839886035396803
Rh 3.1982068127298113 7.8719860659370315 8.141099121690228
Rh 2.4525268187193126 2.725639582617857 8.58489524740203
Rh 5.450220467187249 6.261973909382379 7.910571756807602
Rh 7.274468561048357 4.3618731980942425 8.902976005113244
Rh 2.9297403470605206 5.303088106455418 8.800447082272301
Rh 4.920482765668184 3.632529146217472 9.42183754586974
