49
Energy = -293.11906217 eV
Rh 10.804673256214517 3.3475694999374586 7.898954976018852
Rh 8.282203952419438 3.040555330955151 7.286835618345035
Rh 8.937606546719044 3.5516172262564023 9.657414004707729
Rh 10.135823295943837 3.237203263023641 5.409038448190737
Rh 6.327448404436199 3.5021631345998614 9.1086547271474
Rh 5.734373036407525 3.1911900449681623 6.535588330407726
Rh 11.824076859980478 5.100408047283419 6.3612942252477795
Rh 7.619679832311711 2.383769200161324 4.884785936819326
Rh 10.08504205381131 5.67671487645985 8.988345491252428
Rh 3.9382377264120327 3.9756576783097595 8.285799665336521
Rh 9.314157121612366 5.310751871139168 6.657872552331116
Rh 7.615171937541257 5.74354403907954 9.7701469068882
Rh 9.604588689818176 3.641344218970933 3.0128530866643577
Rh 4.986675935887599 5.535879589996297 10.028866368233423
Rh 6.93237028050413 5.236021789170925 7.409889279394574
Rh 10.324276352639382 5.743135132785199 4.326761803629132
Rh 3.418783080702408 4.13585528090095 5.771900714956274
Rh 2.3816451369189076 5.2620631583179724 9.836910464726106
Rh 7.204539024400345 3.5637718881806517 2.275735570747809
Rh 5.274295030336757 3.410145176013983 4.004429758672811
Rh 10.599831800928051 7.391943487653539 6.339472709039145
Rh 1.5663549091695053 4.033499321311928 7.475715127398698
Rh 7.832637731661606 4.797333375427202 4.48261325280276
Rh 8.403820813808043 7.501062854322439 8.029583886837505
Rh 1.8664054828106054 6.513858742928786 7.729322961456129
Rh 5.88371132830332 5.650195882088325 2.7053134792413283
Rh 4.713460515632844 6.406095936464695 7.666055180305473
Rh 9.131395746204953 9.424318878594441 6.474117998792482
Rh 3.404985295095925 7.6259662391495215 9.54714720402023
Rh 6.750744369536438 9.436951496794881 7.456105002482506
Rh 7.676039045947277 7.185064240759884 5.541894099989211
Rh 6.086040960909716 7.752609094482443 9.228441389309966
Rh 8.516312531839844 6.140786826678356 2.5072611993639593
Rh 5.5418550105951425 5.6297368885476935 5.290457768058051
Rh 4.688890351395404 9.860386546156281 8.782825087704179
Rh 5.353891110288381 8.186475494984684 5.757199663178026
Rh 1.1423714627417842 5.433957739642602 5.311892598284337
Rh 3.3887422239163696 5.248339403140188 3.449641760607733
Rh 3.228360461872308 6.7612998672991385 5.571292154143139
Rh 9.349255417552982 8.171020379595237 4.072975855136755
Rh 3.1508539196637084 8.765805736496391 7.229333256057364
Rh 7.20051610672132 9.791371456408307 4.915660439723458
Rh 6.899449562232259 7.966927908878157 3.1368274628681054
Rh 4.793395326000221 10.619458103381165 6.09275029972172
Rh 4.381495514889463 7.611923775809649 3.31956345167439
Rh 1.0263935981831438 8.10122686514595 5.892734869586577
Rh 1.7552676672746341 7.3064565244948 3.489613079295667
Rh 5.136779207352235 10.015824038619044 3.479545818502301
Rh 2.989820464979694 9.285487940758243 4.717310507225884
