45
Energy = -267.3198916 eV
Rh 4.0802946495580805 6.903981601209861 10.591958358288426
Rh 5.834527912229305 7.758972953412227 8.95621843608082
Rh 6.545401669447504 6.832554167895928 11.207322055976197
Rh 5.1714463937226425 4.605609139465826 10.970818573958843
Rh 3.9117228949057443 9.904112355708591 4.735669702791063
Rh 8.392307723584223 7.264650562757444 9.049075609647927
Rh 5.153365532154272 8.44677545132988 6.552053281497665
Rh 7.504003678018581 9.013247774822583 7.25867447601142
Rh 3.3883138898749996 7.249570654196152 8.061576449798764
Rh 2.8399855210027836 5.047937950483587 9.214605115271885
Rh 6.440538069631256 9.972313634425207 4.833790544651444
Rh 2.792005153784621 7.794375133672568 5.634729289128779
Rh 5.319888890705962 5.253749901740348 8.617029477788293
Rh 7.0341781480811845 6.346204848315835 7.022226684186737
Rh 8.970579264205654 9.729348277867182 5.232072758153049
Rh 7.5138042846258335 5.002918566259384 9.749693082974035
Rh 5.2629757592925115 9.448528343506625 2.5797036758960417
Rh 2.244715003399455 8.658369746327212 3.3292712223850374
Rh 6.913216644187697 2.793550512602992 10.837576658034042
Rh 2.022422836302913 5.561097869453089 6.6946048341197235
Rh 5.296743967621505 2.6964491068771963 8.915900256561535
Rh 9.509999133409504 7.521181348445912 6.69187696917958
Rh 2.9074056683114886 5.705803455712314 4.0674943499725495
Rh 3.6422300970645933 3.6613643451516937 7.1779393840436665
Rh 4.93552074908985 7.416453303782233 4.094840840701257
Rh 4.53048728456207 5.849331154859643 6.176658041702065
Rh 7.828871433286477 8.954396772656935 2.7882969450726236
Rh 7.440356327735527 7.679920738191958 4.887054032125631
Rh 9.931508551703816 7.635122293455933 4.073169776923782
Rh 6.319652891467213 3.8328472386607793 6.64759441417797
Rh 9.118749893904221 5.083707216665974 7.7410975144004786
Rh 6.134586058744692 7.227622388952695 1.7941759892156373
Rh 3.5921343078378087 7.157216768517498 1.9508331004616846
Rh 7.831932571956922 2.859767156543977 8.448309164567277
Rh 6.466195608692966 5.2840543240189595 4.4700279973222985
Rh 4.917687651457766 1.6378139939995848 6.551048952513332
Rh 4.455451129861496 3.5873253221661354 4.697302946109147
Rh 8.977718026991857 5.4919021768755485 5.170364911795006
Rh 4.866329033977134 5.003556271637147 2.5303302943218657
Rh 8.247748031927014 6.293040695902192 2.764563774133805
Rh 8.658509335654669 3.175437363889243 5.993638665336344
Rh 7.018921632826055 4.754766843665657 1.2209323481701084
Rh 6.627868333334336 2.0563310715482466 4.80592966208346
Rh 5.90988617759081 2.757960984121939 2.525324690156864
Rh 8.100448137649927 3.732659338118971 3.3758510412041973
