48
Energy = -285.0845752 eV
Rh 11.631273237872797 5.7829516383516655 3.9495673354468317
Rh 9.400514552082358 6.898547158013336 4.118100668701513
Rh 10.685138874398161 5.867139981890049 6.305133925253461
Rh 9.539182188803974 4.361669152222716 3.4797660554001215
Rh 8.005060674082396 8.94678825583816 4.426499689808071
Rh 11.307347957239738 3.631858744534836 5.265112432319607
Rh 8.765493368725638 7.607595209516966 6.540689250497799
Rh 7.562082378791143 5.866982535846033 2.614407481591638
Rh 6.429377878964855 11.121095100082563 4.629721359857646
Rh 8.43068280378186 4.821292537059955 5.756218365188041
Rh 9.897862480307975 3.6934303071105483 7.465169924078091
Rh 9.056303192677552 2.416173820899479 5.1183291721314434
Rh 6.020506970161131 7.875284631768451 2.952857201142588
Rh 7.423126937489091 9.768246293379544 6.832879120623804
Rh 5.173551122928906 10.141672847606129 2.638441112197337
Rh 7.063156181826564 3.686757345403983 3.8478805795793183
Rh 6.846734943796264 6.658562003403568 5.074921152701651
Rh 7.43051194605525 2.8458857458975184 7.096717265371841
Rh 9.420560746621245 6.088039222483914 8.570781325343983
Rh 3.814809220073122 10.728065338307092 4.727897774213087
Rh 5.008633010181973 10.71786494764575 6.999967807266847
Rh 5.153844557074686 5.459332343282978 3.4830594339180285
Rh 6.463688550223391 10.486770314967387 9.119513232939816
Rh 5.542989086076024 8.869759205058978 5.290876524294543
Rh 8.003314785523667 8.30861472609343 8.885408857432203
Rh 4.232899911378791 6.640075701486708 5.6727263513950295
Rh 1.7038118835588083 6.786698547498731 3.8441303380275116
Rh 5.49497859056631 8.1079956949285 7.782222471530736
Rh 5.669939361953239 4.516114839906147 5.975133962236349
Rh 3.5123163672631277 8.321870913257976 3.777102205040363
Rh 4.634558309665105 2.895332767708224 4.02429817400883
Rh 3.9669738946723205 9.706335602172352 9.139474574366576
Rh 3.167885030633286 8.911381580910112 6.485363650226424
Rh 7.353171484097353 6.25761406036307 10.273537640440258
Rh 6.554981717669616 1.517387208925909 5.0591730607425776
Rh 7.02478122373161 5.976239242812159 7.72381856288647
Rh 5.870743366716519 8.335083049344313 10.387359011993578
Rh 5.277275197548671 1.5851299124173135 7.2104096187679225
Rh 3.4478994273763686 5.1443466557863555 7.570116919873053
Rh 8.064143438738201 3.9946540704365803 9.286433165504876
Rh 6.774717383184489 1.8443088146333468 9.341175762539073
Rh 2.9239306469372774 4.770643334691445 4.544343397869823
Rh 1.7718668696922009 6.720432002221571 6.321777728371465
Rh 3.543075920910966 2.999647569653856 6.306350828710781
Rh 2.846544120286301 7.413293921883055 8.511172057743815
Rh 4.913976427023693 6.1640471178926255 9.391732439494472
Rh 3.4814427957991794 7.77560423015328 10.85695370074125
Rh 5.504387873759009 3.8705025661695345 8.561032447956798
