43
Energy = -254.40625172 eV
Rh 6.240834258197605 10.759085387560493 6.567720764490486
Rh 4.19999331928574 10.018770622172761 5.352780160626547
Rh 8.832246415187264 9.467174929666816 8.531419914779871
Rh 6.346374145343319 10.19136265121099 9.090479342876078
Rh 8.553388987693417 9.703351893410268 5.776544753236752
Rh 2.160696123494024 9.571360299787154 4.059066504848936
Rh 6.383278786331398 9.054046768430842 4.475739889722274
Rh 4.1531651635474525 8.03751969080811 3.5268535781017274
Rh 10.650092314015346 8.44735655571959 4.841138383298323
Rh 4.340557141672225 9.160539781552137 7.835769670905732
Rh 8.534537620120119 8.14388392743877 3.548789004679831
Rh 7.603024923079416 8.776525284943045 10.742946984610313
Rh 6.867544118405309 8.418181862525667 7.286672561283592
Rh 2.4753032932787558 8.226798653970224 6.277693910546641
Rh 8.229125616110734 7.00440762025657 9.070150458490527
Rh 4.870824674322254 7.4785888398158225 5.870160320269092
Rh 9.45436343273281 7.610497951473347 6.865291481792901
Rh 6.354152352628108 6.769686208063825 3.0439343976853164
Rh 1.8561256227254106 7.081170191385945 3.9174204536460397
Rh 5.635457370950037 7.644705838159644 9.45421285394519
Rh 7.446735021881264 6.746972553488671 5.348013838841094
Rh 3.71978241352989 6.599142416772485 8.030232051272808
Rh 6.856085545780751 6.133834347527308 11.105295793493509
Rh 6.28773426745878 5.832233720496709 7.532133939695113
Rh 9.826880947152205 6.035952446948695 4.837642978694631
Rh 3.8551700654777235 5.5496062178731895 3.141730340981018
Rh 5.410485617199512 5.150211748480336 5.053812735413456
Rh 2.915030351981581 5.717087356648906 5.693161202796924
Rh 8.875608657101182 5.201854154056184 7.2759981273920245
Rh 7.745219878050809 4.619752497690957 3.803786590793383
Rh 5.035285437879794 4.970813111585035 9.61721000811645
Rh 7.657270441019149 4.510641125931135 9.42235057417205
Rh 4.28051446944586 4.151571253754021 7.269619634121733
Rh 5.770364000597483 4.389647606636405 2.050163463580712
Rh 7.054395887344714 3.6007142806473738 6.194989685955359
Rh 3.511246722761555 3.405880957468213 4.847172824805696
Rh 9.554584963836358 3.5887092937793024 5.3901258248328965
Rh 8.711913807362519 2.76044417115509 7.930045319496752
Rh 6.115907168137549 2.7009314736055314 8.448777572471514
Rh 8.043401358559061 1.7984708528254434 4.508999915779891
Rh 5.023796984389726 1.8944950455180027 6.215768322122693
Rh 5.826249918909765 2.785374216169812 3.907112440052108
Rh 7.3075959185632655 0.9756330564531986 6.719315206144157
