49
Energy = -290.57284993 eV
Rh 7.27611482898208 7.648277903085004 3.17705019987802
Rh 11.046094038601865 9.765832869784461 4.59852101111991
Rh 8.601015482498692 10.052159911355819 5.282014506445647
Rh 3.979555172817003 9.175742097047602 5.094640383516611
Rh 9.448673538672024 7.857972338764857 4.282307834980855
Rh 7.194378445146669 5.803081448246146 4.694006185311948
Rh 6.3747139457504955 9.113719594031332 4.814837166979023
Rh 8.248640973287158 3.5526331951081644 5.001535856478042
Rh 9.890082116586166 5.432898793071076 4.823595369419529
Rh 4.6999669684667245 5.867138644128979 5.64706326383726
Rh 3.9210179732653434 7.796426918070655 7.065628194465734
Rh 11.768464504857901 7.204679570242836 4.891106123110878
Rh 8.419611140550298 12.027739312272923 6.931169815054483
Rh 11.469862298029593 8.853478641705372 6.91604463395744
Rh 5.023710506681445 10.786128084622911 6.706290225116412
Rh 6.486651246366895 7.404445486618458 6.5256961442206505
Rh 8.494336526537046 5.251062175687205 6.8983155008252
Rh 8.992032779198004 8.022783383570392 6.776630511796064
Rh 10.832868655997874 11.394051266389102 6.529105726228886
Rh 9.714172478115385 4.935088088107875 9.108566258794674
Rh 6.1300409615148075 12.773756736385105 7.460999916953597
Rh 6.2807898307108285 4.117526921261291 6.497672289236878
Rh 7.163601671910684 9.766900176581029 7.461986192433008
Rh 10.894333268562312 6.201053796783299 7.049575601542646
Rh 12.556853967592051 7.263252186840677 8.734279019183006
Rh 10.034719763199522 7.704153638612268 9.153473284465665
Rh 3.7708835844930744 9.958935441638552 8.602403532153215
Rh 7.632525723303623 6.721892792176672 8.894948430269823
Rh 5.181274992365829 5.796946650432868 8.261381454491396
Rh 9.603015553979604 10.213820187735456 8.363937726045084
Rh 11.86634707807816 5.292958442096667 10.10689004848815
Rh 5.625485283371341 8.326230500460369 8.922391259010778
Rh 7.23629885353176 4.168856423420867 8.851148510211836
Rh 2.4837624718851603 7.848439002936409 9.056943425616842
Rh 11.57886537968703 11.949160259612427 8.831404255928575
Rh 7.361820569258753 11.602975591686047 9.295558285965736
Rh 11.943090926545606 9.629779558525364 9.400857253450027
Rh 6.272073378845475 5.695473181808419 10.73978524033259
Rh 5.518485521753774 10.351227854578239 10.363180051305374
Rh 7.86511093377745 9.085505075053304 9.931474111023402
Rh 9.577848904213017 12.010622011243026 10.29825124732457
Rh 11.62302115372856 7.629845396794734 11.138706476471533
Rh 4.24895451071411 7.110127268197216 10.552765489810694
Rh 9.434092650166399 6.319993326401071 11.232133637888529
Rh 10.031019266928949 9.765310660980035 11.063872654470867
Rh 7.324497898052422 7.677718920876309 11.880383433526841
Rh 5.150734203472694 8.707176203494209 12.11079225887337
Rh 8.245654705421213 4.189522034132306 11.16933853887556
Rh 9.538085821449183 8.23075248626685 12.864593912036142
