44
Energy = -260.33220082 eV
Rh 4.618453386818124 3.6531381639733733 0.5847836914710626
Rh 4.593782945966541 1.5342748142262757 2.1385148627005397
Rh 6.720947589032793 0.09478954097267765 2.601334828245171
Rh 7.002211185130476 2.5615426132079113 1.3368238900817244
Rh 2.431454808601611 5.0551152254553005 0.4263757508963759
Rh 4.6497831709850805 6.342700535438953 0.5998602144174283
Rh 2.5408605500934107 3.2114115085525308 2.18328361196919
Rh 6.628563844152033 5.03443230418856 1.5406169355124288
Rh 8.204069783480598 4.1313486735885565 3.245662586157904
Rh 4.709186449931454 4.263612247471562 2.9711279313865204
Rh 6.917913735868346 7.465216613865838 1.2256484342217357
Rh 2.9885725024539873 6.322793505877076 2.470608650340158
Rh 8.808445094833123 1.6013734482964084 3.2644069997471656
Rh 6.375245145594766 2.3313086904125284 3.730784411523637
Rh 2.8036540316289633 8.283623922135636 4.1214951378931435
Rh 2.6066688446749837 1.35248977219224 3.9368031466680637
Rh 6.254350586673 4.517469306858705 5.01599913704957
Rh 0.7385241153549315 5.546148805188793 3.1359353388318287
Rh 5.009954050831647 8.03034162225331 2.701165822947745
Rh 0.6247905873875037 3.032656529866825 3.9861098940299424
Rh 4.552166503457125 6.3927920599088655 4.521937729516083
Rh 2.619972784658777 4.632786034487963 4.507613984630931
Rh 7.073363675660137 6.6191273690656365 3.6768788211196237
Rh 0.5055193652683063 7.340797782303542 4.826311841618525
Rh 2.8604524387973544 9.071484565210607 6.573840234385813
Rh 4.2394002312832715 2.7605162571783786 5.105403778253074
Rh 5.060441191881682 8.746807144476893 5.346389290516081
Rh 0.42255314371407887 4.8507233100317455 5.818750017964145
Rh 7.536314367495573 0.3160071413074745 5.115155408643155
Rh 2.479899065966599 6.677041491110083 6.189026536680517
Rh 8.545637790328215 5.361467118864985 5.570386657852373
Rh 4.967617975351947 0.279016949989098 4.496601063340214
Rh 1.9194581788793728 2.807446677381527 6.250158784080614
Rh 4.331617111403599 4.93388804784325 6.608526021197653
Rh 3.509366709729391 0.7905458122081234 6.543628735916223
Rh 8.129839943377677 2.7719199186862293 5.621685831281672
Rh 6.527820232741726 4.134512708632913 7.5338278113173525
Rh 0.34054866954153334 6.73174488716223 7.45693857400521
Rh 5.947979512090711 1.781724315137708 6.616343176185475
Rh 6.528273692260692 6.697351952563836 6.288483932040046
Rh 4.4824545405874066 7.367565856357579 7.588596300727613
Rh 3.9698750732115298 2.881097783743708 8.006505983328745
Rh 2.103723941762659 4.845271339586378 7.889805694836498
Rh 4.529994728000665 5.25429890968253 9.041585791414581
