49
Energy = -292.81134608 eV
Rh 7.242122009271303 4.230485049574923 10.305167600650229
Rh 7.050759920081889 8.198225921355252 8.321540550186494
Rh 9.511334393083079 8.026464767175597 7.640257391769788
Rh 8.340375678119988 6.151785971285999 8.983529542927105
Rh 5.754472956704352 6.302957735793125 9.59931169958338
Rh 9.099059244573127 3.7392196976816083 8.535419871663851
Rh 8.139613257497299 1.8991944374908167 10.029603859836351
Rh 10.024823003731079 5.561254863928061 6.86050383848396
Rh 6.303318129124175 10.535469689010904 7.80191468995556
Rh 4.533489043725309 8.41286137808889 8.69368867623522
Rh 4.698704600552391 4.013362307235813 9.871716703310092
Rh 8.208470468314808 9.831495098818543 6.265024050643016
Rh 9.414541287851188 7.826681981297338 5.144080472171195
Rh 6.598688115693708 4.403225614131475 7.790526069980419
Rh 5.224383547191976 6.48128764927669 7.092713454651687
Rh 7.698472762878149 6.3838750492197445 6.397923827509504
Rh 8.473085340700665 3.676435474285459 6.036669178773589
Rh 8.090237920552676 1.5762526474533805 7.532526647915238
Rh 3.2723063592189034 5.7890240434796025 8.54061371876587
Rh 4.03838838013778 10.220211212207928 6.842459982173729
Rh 5.872086966669162 10.76445651474335 4.799404314890803
Rh 5.942644159608217 2.0571646093504214 8.717187456753845
Rh 6.027845601023084 8.634500742517051 5.99054442888292
Rh 2.997191644892748 7.961021956422163 6.71600642643521
Rh 7.893431112622645 9.445965392831653 3.7186503012500065
Rh 9.064261117647119 5.375334411483595 4.230271504932416
Rh 7.053217036172224 7.032035703457092 3.9471941697802992
Rh 5.448035059191743 8.959841483341215 3.056334662217773
Rh 8.096658647662291 1.3315215434005203 5.023349704615743
Rh 5.9669998709083885 2.3118367692960176 6.093411707043933
Rh 3.443224867696071 9.403601769835294 4.537317765934754
Rh 4.505911779049703 7.073676622832535 4.592144935409811
Rh 1.1842728757659002 6.234635820558743 6.886929874131383
Rh 5.946440043742392 4.842149904998714 5.161996412029976
Rh 9.34234026572115 7.400129757394926 2.660478766661076
Rh 1.7200374477861886 3.7849481184495324 7.338990451456454
Rh 7.603601670993446 3.3549479766497323 3.6555955942826888
Rh 3.337329845634031 5.273817585306042 5.889197210045336
Rh 1.8480959028893957 7.133638106842675 4.555721160634251
Rh 5.690440109813093 1.67626879485258 3.688238047979082
Rh 4.153148969657446 3.425876116485417 7.48373297727537
Rh 7.168059068269635 8.002095352013106 1.4797739828095842
Rh 5.16833177507037 6.434671677531886 2.127911778733414
Rh 3.0889206606624255 7.857816586272491 2.452999371988326
Rh 7.519780057616294 5.346159689899347 2.098608731649494
Rh 1.217904319305573 4.497607417598584 4.859490567947628
Rh 5.320881531414616 4.031676068927268 2.8601636113407505
Rh 3.116001356555363 5.214246809942569 3.2815445027111645
Rh 3.753610819770694 3.019007692410226 4.782680545323
