48
Energy = -285.60617781 eV
Rh 7.415503664754916 5.039456423083395 0.9209505696597572
Rh 5.707299448738163 7.08460941953423 1.2558436780579283
Rh 5.295720552113969 4.641578350229268 2.242326083957485
Rh 8.401992853472558 7.426916746547651 1.2555318633328116
Rh 7.622342938437926 3.7230604772548443 3.2119290084493906
Rh 5.567954903641216 2.471517811089696 4.319892137489101
Rh 3.491699325146055 6.465649972970987 2.389577243657833
Rh 9.517288669643497 5.337269303413253 2.4509577794082875
Rh 7.1111818712798955 6.176687779232066 3.226427646336738
Rh 6.861419920298582 8.748352500091526 2.8907137706649273
Rh 4.3386701543902095 9.051112217891909 2.512743557191009
Rh 3.743706432040361 3.504205699288055 5.964136388382002
Rh 7.980507038165988 2.5388461106504887 5.384504487747787
Rh 9.618717458652553 3.787662538252539 7.155667613671204
Rh 3.251849732802331 4.122288150839116 3.6110299094956186
Rh 3.656203298253678 2.6991667669212145 8.332488321245922
Rh 9.141995119215933 7.579025298862827 3.702281398519381
Rh 7.236453971876664 4.510629137302167 6.67084232995308
Rh 5.544895618466037 4.88619896347665 4.86299351218629
Rh 5.079278404337014 7.334496950657286 4.242796664510163
Rh 4.456997405257031 6.239387425476061 6.746872772162797
Rh 9.138959453971788 5.215862620810751 5.01221520253441
Rh 2.7245839960745526 6.349385519184009 4.7780258718820425
Rh 5.880230648993132 2.4079610308732406 6.909897775854797
Rh 3.111561097154775 5.264635849975832 8.888841245802162
Rh 6.079167306477951 2.229387951521004 9.512492028137489
Rh 7.18507906607831 6.8691332865485855 5.752731900552953
Rh 5.51732907803083 4.515279809859615 8.511526304989934
Rh 9.708742211165642 7.704895073977862 6.13287958517467
Rh 8.152818430801299 1.8410291698163503 7.956579828594598
Rh 3.3563082246092106 9.0049061686349 5.00323649609202
Rh 8.742934298466638 6.21469154601814 7.9314914543113835
Rh 2.288802034353803 7.62594312833176 6.900976158733275
Rh 1.9125758277018665 4.966853250219514 6.725797276687575
Rh 5.509754935695908 8.717014509889012 6.443714581983926
Rh 4.218574686818789 3.6853084139932006 10.661689213041662
Rh 7.870777300700523 9.301322998840213 5.172381112525807
Rh 5.603900696514278 10.328222421586531 4.45848467310061
Rh 6.305701765693807 7.024967172603308 8.428266879350153
Rh 7.989844938725478 4.061430737354762 9.199912533289531
Rh 7.9538632198308195 8.763924380889263 7.697783564647126
Rh 6.663707564953831 4.106759222614893 11.331451565544082
Rh 3.87199106339985 7.707929090213393 8.952161258671795
Rh 6.651842317490707 10.906892973304624 6.874551392522258
Rh 3.5399011005132626 9.755747238694918 7.525094990293246
Rh 7.751146731993001 6.271849701254528 10.385555432579887
Rh 5.152115250396999 6.074614625694468 10.494878577130821
Rh 5.816071473368311 9.515327103882282 8.951936892727268
