46
Energy = -271.76315194 eV
Rh 5.43243356362862 6.981991179452116 9.047845340572273
Rh 4.310351196269217 4.7201458942953805 0.4698031874789982
Rh 6.97844960235083 5.0426838196828365 0.581255498716908
Rh 7.4363455202141155 7.634510415057635 1.2097228064399659
Rh 3.157277508499308 7.141927278953132 1.1502262487093546
Rh 6.750155343484374 2.439354038632313 0.631548243420555
Rh 1.074258637735031 4.774191235728333 1.928285434395419
Rh 2.998753628956132 2.9352455683697634 1.9293607779261022
Rh 5.4388737954878 6.407853357888305 2.1337524616538164
Rh 8.37781399110394 3.5902753594936705 2.235184308038428
Rh 4.87233530293505 1.3009267323967488 1.8484625513280608
Rh 7.728035595238363 5.839524409639284 3.127761294083455
Rh 0.7800130664897095 2.4389527489010314 3.1567982513937074
Rh 3.352152920052422 5.234247009527591 2.855274679915414
Rh 3.8782986055360382 7.924780006536432 3.6079039484801676
Rh 1.4741706277407558 6.887637306059893 3.486646464564019
Rh 5.594841715746152 3.728694382106933 2.514586205769675
Rh 6.996864384193021 1.6310634815033132 3.202842637238885
Rh 5.118548573299428 8.880822263938 1.577014517575562
Rh 4.998066207038339 0.34780232556804397 4.274750234025531
Rh 2.458064092111954 3.682547683744818 4.56851302038948
Rh 2.6592313175855695 0.48231922832002316 2.52272895849575
Rh 5.455274573461717 5.376501074874585 4.540069984063172
Rh 6.531141889288448 8.022968229319538 3.7637068673600953
Rh 1.330968028108903 9.318352472687524 6.508140641566067
Rh 4.850350089464732 2.8174942576483786 4.837515208641895
Rh 2.6241050725409627 1.2387243954526181 4.847254191771033
Rh 7.428800143681954 3.7378236974533383 4.66101361347578
Rh 0.5138098050777525 2.4765733252875393 5.774368768357144
Rh 3.104496565523899 6.006737646269242 5.3513936005047995
Rh 0.16842615729593727 4.724165180160871 4.287333130845885
Rh 3.9465892838353414 9.387351894147026 6.576889793968249
Rh 6.967311682695694 1.428701889804546 5.773077074942467
Rh 0.7187585325006645 6.391054143978873 6.079426165853151
Rh 2.462217223932882 8.372661734033468 5.698637645225539
Rh 5.1833495058366035 2.0874746490875182 7.3405180542520885
Rh 7.386063520951867 6.29310345654069 5.7370122435390645
Rh 5.119683660602228 7.589173264414451 5.911528885618375
Rh 1.9388317795017271 4.399557844356687 7.060583942022474
Rh 4.665798140847635 4.493436496277937 6.826094768816247
Rh 2.3331958832552067 1.9661476588327318 7.461158325735914
Rh 7.057420789029997 3.908318886910614 7.118902206433026
Rh 3.361923496050874 6.501963292601204 7.826290694321945
Rh 3.8798656869792274 0.8827189200814284 9.047845340572271
Rh 3.6144759347529325 3.567909408872948 8.89498617530864
Rh 6.002043868859314 6.249001153840113 7.913809210443727
