44
Energy = -261.23869795 eV
Rh 9.031776707478679 2.7466618368815667 6.5096493548519385
Rh 8.623249240179298 3.851823581845867 4.074702101424828
Rh 6.662280341515399 2.601933492767848 5.515299722401606
Rh 4.275670057721439 2.7648178761186495 4.63151345351873
Rh 10.070192612754308 6.129929397641759 3.5354714017054647
Rh 9.972948077293 5.054423055373143 5.854322636500395
Rh 4.53927661930322 2.592804559143648 7.260409383028154
Rh 7.788374592995098 5.644553530918784 2.402961616964316
Rh 6.966954148430826 3.03085829879444 8.013497964680374
Rh 6.03310104049664 4.397898986564842 3.681658598699963
Rh 8.827220633488988 4.806707639660484 8.074988880098367
Rh 7.329966672260829 5.097779528956992 5.825324570286914
Rh 3.5287791466943568 5.0569499881878865 3.728359918979759
Rh 2.442556992262648 3.893541629669678 6.0874894862326565
Rh 10.250350084652847 7.581200042736901 5.657851653844236
Rh 5.340869468905321 6.404798479223773 2.1060539399319995
Rh 10.379690276605752 6.809455775391433 8.023171502426429
Rh 9.646760622390296 8.830363809766622 3.4926525528052568
Rh 4.7866562403684485 4.815203044015068 6.269286828411645
Rh 5.012817857507876 3.7892964784922984 9.572591815408117
Rh 7.323680417131722 8.134784887759736 2.1543563945010713
Rh 7.9155683579349745 7.187214089099406 4.439655479919328
Rh 7.463942055112068 4.388648482648129 10.277397833465908
Rh 7.828832831962405 7.3034855037713005 7.045341138785545
Rh 5.3020047856525325 6.784281213910313 4.578193622844306
Rh 8.268697728540374 6.7975799508650905 9.59797696459277
Rh 6.289521278463808 5.491986366919698 8.252912193266113
Rh 6.239077466232209 9.118751520240332 5.557517505058842
Rh 8.713822923739475 9.58601382370929 5.78747119345439
Rh 2.6379174845999285 3.6063893933536617 8.628176359420465
Rh 5.182437291203756 8.934998743595028 3.197676188661473
Rh 8.996626675080401 9.040273491726138 8.430317459304344
Rh 5.049488020850505 7.356432865502471 7.060349177320184
Rh 3.6891567882746927 5.91615598244863 8.812598134501151
Rh 7.459015821953824 10.218792859076073 3.5849977505338675
Rh 2.8253670003466036 6.417114445356848 5.756713217932325
Rh 6.4674445053701 8.550041358559575 8.939668319058754
Rh 5.74261229634537 6.488833428558399 10.46895989288806
Rh 7.114735394471305 10.543827363226859 7.507365766575494
Rh 1.4091584678921323 5.660392417426007 7.692598794041697
Rh 3.6898408023233653 8.787706644781986 5.305516970699717
Rh 4.09181594025384 8.278273161641872 9.723716126429702
Rh 4.584050414802703 9.794705050265923 7.623435705230825
Rh 2.5916581371940652 8.098280242442135 7.645794748348176
