48
Energy = -286.0260448 eV
Rh 11.199218976570647 8.44245529358677 8.374938591084705
Rh 10.544238426412903 8.328694963775348 5.7662106045282515
Rh 10.778236174572994 5.907943976283616 4.765668414978715
Rh 10.585311929930148 6.271782044776518 7.35954541327652
Rh 9.178318611389404 9.634626772397418 9.555747685115575
Rh 9.87445218714473 10.387598128441004 7.157611457787469
Rh 9.406555014154963 6.994168058371599 9.621048486644314
Rh 10.309736144184257 3.9039150317645857 6.719279065367102
Rh 9.551282689110188 3.3106982097424105 4.449692064586811
Rh 8.624744914754775 8.039626058385515 7.415490287199857
Rh 9.07795445625179 7.6492119257782205 3.877274068853464
Rh 9.06465932893316 5.20716022125561 2.8898303530401863
Rh 8.68889446192399 4.773549117498059 8.432220674363956
Rh 7.055166654044405 8.27746114901909 9.55455057306611
Rh 8.213001761492215 9.695501594689333 5.344129181882041
Rh 8.460957211091753 5.57350731162281 5.751089115647412
Rh 7.284871898671983 10.158097917994716 7.773751990374918
Rh 6.358978586896297 3.76993568269557 8.633697584064318
Rh 7.693615454232582 3.1762629335993666 6.442011860553702
Rh 6.698103691396814 6.28595334511626 7.875913012119904
Rh 7.17054447087114 5.676132734495811 10.259555593302009
Rh 7.136799985271743 3.7145170834569337 3.9017498861805113
Rh 6.7699303898267065 7.599373532738458 5.70098943143791
Rh 6.876112848421771 6.261676155607462 3.635594121765156
Rh 7.982807262314407 7.166428157163788 1.5675911525225223
Rh 4.672936097425018 4.4832075063880445 10.42997311452847
Rh 5.843007379073284 5.068682693593959 5.7695091210657665
Rh 5.465360889121409 2.4308955998997357 5.1507078323762325
Rh 4.9999443987955425 9.211919191822572 8.296571846178654
Rh 6.6635456383076015 4.829038270817221 1.6282899295658673
Rh 4.597878835017479 2.49819001001567 7.513783947520334
Rh 4.628509655270457 7.744518682592018 4.081696998644188
Rh 4.91757938802582 6.912626149693946 9.686959200092419
Rh 5.553229028581774 9.768601700203849 5.790517486939705
Rh 4.464497083920783 7.310834303614458 6.780557588416862
Rh 4.247399073984376 5.009744620370797 7.886355885656183
Rh 6.821572727655114 8.88888934560439 3.3321919984559867
Rh 4.5986374590382635 5.0431519607394515 3.4797999742262338
Rh 5.310422946839193 7.067263075816962 1.810100190890136
Rh 2.7084751418126607 9.98306199260604 7.6443880541611975
Rh 2.8056616797176686 3.2622277296804896 9.111759157803045
Rh 3.509533706757498 3.932522117281542 5.609045183124087
Rh 2.504583225203673 5.872986410696653 9.556727184173763
Rh 2.8052519408668477 6.282029685830707 5.090255371317159
Rh 2.969850759651486 8.469243060981041 9.682642231646012
Rh 2.960632382971941 8.902308244252715 5.463336287883833
Rh 2.1088368240891198 7.475683152934463 7.5182235681571505
Rh 1.8270967378557452 4.9638468209162 7.22436864795788
