47
Energy = -280.18125896 eV
Rh 9.007780591764913 10.121537234968352 8.442542767905948
Rh 8.232344319301781 8.15626354108265 9.875112820793317
Rh 6.420702969438589 9.707631236901184 8.556127995029275
Rh 10.290515774353624 7.759982350417103 8.252681871666367
Rh 7.195161093407228 6.086253616049318 11.030869675845556
Rh 9.48748345756398 5.934139806023629 9.96689205800993
Rh 5.925372140332228 7.2240848938333935 9.133363224933571
Rh 9.931871475842994 9.433863198528297 6.169232926262243
Rh 7.459227228921157 10.410845604021128 6.338898471734837
Rh 4.054461032715507 8.791150253268244 8.13619585026552
Rh 7.892610352441656 7.934861160078477 7.376747853038489
Rh 7.804103758952109 5.461335895369271 8.157521980267305
Rh 4.929047764810445 10.690565109795209 6.680395786204065
Rh 5.556022600755611 7.715499220800145 6.251664011300142
Rh 7.636572211646786 3.753067029489534 9.97680265132903
Rh 10.235883905299788 5.20571053628024 7.609429315293186
Rh 5.316625345222145 4.816147067689232 9.806832239790591
Rh 9.823559959007897 6.904274927980317 5.822673200392634
Rh 3.5188350478275816 6.852161027426889 9.724952244022818
Rh 7.9211713735848415 8.464010559002531 4.830281174894806
Rh 8.64823592816018 3.1619752169679693 7.464827053284761
Rh 5.621602254089374 9.623391099219823 4.480868799527261
Rh 3.4046274771023852 8.805627935336906 5.484392526303624
Rh 3.1877721265942824 6.679888560958736 6.979074324376084
Rh 7.387633030452353 5.891619222720685 5.6489122516407795
Rh 3.1099098479780665 4.68615991842772 8.521830566337199
Rh 8.825035206795961 6.523264512123016 3.4449809811538867
Rh 5.3198542317679225 5.311793231017016 7.3040900068997034
Rh 6.691784245102659 7.8311353482306405 2.758164355244842
Rh 9.365509347884746 4.4068512919264 5.247272948441098
Rh 4.0898426344330066 8.092110922005672 3.072168501183617
Rh 6.155473341359885 2.9774668540731817 8.055119169863735
Rh 5.350399316853675 6.22430927968711 4.1187849044367315
Rh 2.87993278478506 6.34734493584523 4.4992507657831995
Rh 3.7075732360580025 2.5681333983353642 7.380021925590839
Rh 4.58772402947748 4.067810897390409 5.338848934492819
Rh 2.2500561307976548 4.371304364507625 6.11232489854508
Rh 7.303740074065829 5.9298048573984525 1.222025784483706
Rh 5.016361068521819 7.094425466999181 0.8963295913928504
Rh 7.257079031328697 4.5818780959155205 3.3627440539311877
Rh 7.081780879377743 3.2601275888710455 5.525112350105831
Rh 2.8454742727700557 6.113054356560634 1.9382060212515466
Rh 5.472775539863122 1.4200822509705173 5.987620379098767
Rh 3.0006709744559608 3.9850711112475974 3.3741936022862355
Rh 3.147136436101899 1.9968489086235115 4.928847851638326
Rh 5.040343441182788 4.850072759997798 2.0714310292824707
Rh 5.519535051038339 2.682277687229597 3.5505526460361665
