49
Energy = -292.95166376 eV
Rh 5.716188310387986 2.6537864209806425 2.3206176710617314
Rh 4.922641176611451 5.1124925048640995 2.190797695677815
Rh 5.071333737586197 1.1970928967096526 4.481101035459644
Rh 3.8620394310561403 3.3127731034664682 3.9124037132994314
Rh 3.1036201071155056 5.847605063259463 3.915349936680448
Rh 7.978361128972889 4.033230119413854 2.476715831609082
Rh 1.7968748834133934 4.037279365290953 5.244222920273859
Rh 7.131397909915885 6.399225958944786 2.047559736468847
Rh 7.430155903845587 2.115744423793447 4.158229321911543
Rh 6.116431685389201 4.4049196789925995 4.30214369541867
Rh 5.157296726420802 7.321677472901868 3.441166721503033
Rh 3.498846400475362 2.479964039604554 6.39441360906888
Rh 6.046626877957882 2.6284961325524225 6.3299483915828025
Rh 4.236635674867063 5.069455448234201 6.084865852515001
Rh 3.304353201737931 8.282149366974535 4.913660017346562
Rh 1.9496623880362516 6.444723794925211 6.169049725379773
Rh 5.103833469995265 9.809686344797504 3.8706112136195743
Rh 8.678640552010782 4.297965848773731 4.938100014884343
Rh 2.320423866210015 4.428521124471439 7.764924196140855
Rh 9.455953921769593 6.044756702459657 3.136226320106213
Rh 7.354063133028266 8.773301921633633 2.9519892613486167
Rh 6.821409375530085 5.178629478338476 6.684835017518675
Rh 8.560294439572692 2.3333268967646794 6.533251868019433
Rh 7.412343916510917 6.70422197279158 4.605281995420274
Rh 5.39441024481534 7.372215587423239 6.047222356424106
Rh 4.703034496722847 3.6270906608446527 8.321640795045967
Rh 11.439905810575592 7.3107519451944265 3.9270250502161876
Rh 9.935679310467744 6.389098834425139 5.6854908649181555
Rh 9.359876215419659 8.646873892046314 4.494901680831768
Rh 5.135517442764954 6.202778464788791 8.402390918513083
Rh 1.6868258095355686 6.704746166305783 8.850047125634047
Rh 3.301400481747348 8.077442193659504 7.51275552459334
Rh 4.67114057062013 9.985381693787222 6.446667633393042
Rh 3.384581204362933 5.210874148876397 9.981570117168852
Rh 7.036892651449374 9.4674137001202 5.43905849959581
Rh 5.93868235551537 4.642572635000814 10.31784170516748
Rh 7.2826726493982585 3.3997106526077543 8.505867263595011
Rh 7.804446752745344 7.550166734945101 7.040269093531374
Rh 9.350583378628041 4.643806415664252 7.408161017814542
Rh 7.858601858433327 5.91143664428376 9.07523286269543
Rh 5.884959661233649 8.715366362109862 8.442275921804143
Rh 11.175447185453613 8.476950961221771 6.314386954812951
Rh 3.8005848746044046 7.806504486239327 9.975688973289298
Rh 6.234400738811763 7.266195791587824 10.536966468331428
Rh 9.068941831851324 9.691269862582415 6.947367189945102
Rh 10.035872566203398 7.048640739655605 8.156414591095912
Rh 3.8360852895044535 10.159849764804353 8.844044977670094
Rh 6.937714710211674 10.786507107216062 7.634561160607982
Rh 8.25715706164489 8.532621820688762 9.352915623480847
