41
Energy = -242.20887333 eV
Rh 8.859955456246103 3.9625466657417534 4.483255136691806
Rh 8.891389152342091 4.7009663600839975 2.0226597016084544
Rh 8.766090196126155 3.319824208824081 6.927142180093843
Rh 9.187812349141577 5.7968526229812705 6.3241362598717865
Rh 9.156457740202619 6.487360770485337 3.848568538612531
Rh 6.813066316328973 3.351825008361816 2.979058878014066
Rh 8.628781685404729 7.205432681005554 1.4365792744688892
Rh 8.913409513257719 2.4746852741617062 9.282356654465312
Rh 6.575086383057356 3.1163711691829756 5.6225925382402275
Rh 9.493397182090227 4.921334357711295 8.774540326848086
Rh 6.816726867902594 5.506774697976752 4.369405135852432
Rh 9.793806075913757 7.436269389961624 8.120270798515467
Rh 9.37572336836435 8.333488273422407 5.763632727263959
Rh 6.569638344429002 5.679033797069221 1.7939927486943812
Rh 9.203448368852259 8.999659768069563 3.313945711149108
Rh 6.576055142370007 3.0032920686839986 8.257065376919089
Rh 7.503938427500082 4.284457081517816 10.257409821746945
Rh 6.826044366086849 5.305717598927896 7.032881230415614
Rh 4.612378852929235 4.099931959543916 4.3279132006105225
Rh 6.960151823399254 7.64089632046902 5.810289716340289
Rh 6.922812507924745 7.900192876476593 3.1846636105969357
Rh 7.6296842659983355 6.606520592948942 9.18080822308881
Rh 4.498756618535464 3.927755186169464 6.967336612689024
Rh 4.666828993507082 6.314607683834111 5.735765148628709
Rh 5.235568601971292 5.106307810790518 9.179060714979771
Rh 4.685350614538869 6.519638202883215 3.1512894936302156
Rh 7.699209973674581 8.88786545431781 7.910231765031953
Rh 7.272981509116901 9.909584353331693 4.837460933283989
Rh 6.163482289370843 6.3035565451201565 11.25482264326155
Rh 5.454290615459892 7.456774433165753 7.949534111559164
Rh 2.474855031093384 4.983201611740832 5.577779330632903
Rh 4.883428632815999 8.75085646434119 4.559726719910756
Rh 3.1677785694245295 5.988917791200783 7.86518857012584
Rh 6.272567507331956 8.645854960786346 10.098472977203235
Rh 2.6699276132348273 7.340563478818658 4.445113165618324
Rh 4.027386781795714 7.157394750311931 10.100089767401855
Rh 5.570264782747117 9.833828244825042 6.801411919618898
Rh 3.348578564381242 8.449886073081053 6.6655775730483455
Rh 1.2330722949806963 7.019562150723433 6.525967801495418
Rh 4.170694072367326 9.522739011426264 8.909178359467138
Rh 2.0133691154850233 8.076976018814431 8.83780319641417
