41
Energy = -239.23094405 eV
Rh 3.0275484900896026 4.5301685301239285 0.3162014703132204
Rh 4.076988888565741 7.009084479432324 1.2605590748358806
Rh 7.380020434397911 5.309560357981762 1.391470192825681
Rh 1.8125522974209234 5.945852608481554 2.117814537131172
Rh 4.608082633294867 2.4640556075438935 1.2600465864376593
Rh 2.1260604816913085 2.766885644287198 1.850418828868037
Rh 4.952340805500348 4.802080223206802 1.8234682201438512
Rh 6.726777991014313 3.0829192823131546 2.846617663309009
Rh 6.361779064266747 6.381087241277836 3.429111286830311
Rh 3.589409624520561 6.974926116006998 3.676641144232681
Rh 8.526502706801661 4.855864024785266 3.55984471260164
Rh 5.1835061771413145 4.431449735705578 4.3937525413291745
Rh 6.094282617597761 8.339125396780219 1.9024717503680684
Rh 0.3467627335228277 4.249512606772778 3.5119173879039742
Rh 4.2551648330980285 1.9740619039821123 3.715775850294512
Rh 6.6355359319019485 0.8281029377763867 4.121185233942471
Rh 1.216712637614313 6.439691482348299 4.728776379487265
Rh 1.6064755580426178 2.1345382948818616 4.382463564423093
Rh 5.375781483908981 6.679913953403522 5.766232512745998
Rh 8.482793870043832 7.407839028868613 2.697370729041891
Rh 2.8470381843969585 4.257335972949615 3.597124645210098
Rh 5.432182857630188 8.748826730027046 4.28283775941567
Rh 6.004345005594589 2.5895116721401648 5.7642810069984085
Rh 7.664004199400836 7.715920902001894 5.301224340077563
Rh 8.345451110451611 2.7254936261738947 5.061115172672899
Rh 7.535331698529932 5.110596970285962 5.79342647778778
Rh 1.0616489839899854 4.1393982021739735 6.065590566706794
Rh 4.5934042725665085 0.5191575981089275 5.884980081220487
Rh 3.2021143581559324 8.037813219481201 6.043473150062727
Rh 6.822876698187194 6.4177324657669335 7.922429739162893
Rh 3.278754049284981 2.730498123053981 6.1876622866984645
Rh 3.200033089055678 5.404934836660102 5.8144311519783605
Rh 1.5728969920648916 6.369035175424393 7.44390387005284
Rh 5.233490342995213 4.558003864446793 7.116698100792679
Rh 5.695996340470976 8.768461855312541 6.973698700035132
Rh 7.38361756169883 3.385782852594653 7.798568782834798
Rh 7.158588109390859 0.7290597432876788 6.819160667520125
Rh 2.9312271905012066 4.267848249564932 8.250631713907692
Rh 4.969408513998846 2.2493481543349354 8.13676437501695
Rh 4.14431132320654 6.67861875483441 8.152647110462102
Rh 5.245407576149123 4.697109293571459 9.544418352475576
