40
Energy = -235.44623832 eV
Rh 2.5091685728758963 4.06200512440245 6.557024951722799
Rh 4.215619776333099 2.9331561918782705 8.151659373056644
Rh 2.7741819400673937 2.222443417318018 4.885272807128729
Rh 3.2957695870160695 4.855705269220151 4.223757110991087
Rh 3.3597754196931287 5.356125888857903 8.633986858410122
Rh 2.8402393617311112 7.970203377651412 8.27362410933549
Rh 2.7927833230565127 6.5786711312466215 6.134692520532204
Rh 3.8924084391891784 7.282538280192148 3.80156447105557
Rh 6.7602047554358515 2.7151552951257023 7.477991464249327
Rh 3.3266786500237 9.066315158621764 5.818201466531831
Rh 5.035512092585448 1.4831287914320956 5.823613475997985
Rh 4.969598723530235 3.9696749202589494 5.987005437815311
Rh 4.840387033036532 2.915486843200684 3.627561326042936
Rh 5.233726114277567 5.268449510363173 2.3513583125496917
Rh 5.049366627653353 7.176928895228934 9.482529554048872
Rh 4.844144888396087 9.798360578570337 3.6451016073101297
Rh 5.016272227344448 9.1139914530384 7.8037426619171
Rh 5.017954970940846 6.280898021762332 7.036231304368798
Rh 5.9346589636965055 4.764236168057298 8.853561967031563
Rh 5.878647612600363 5.87575886673566 4.5912333599375525
Rh 6.45427657265841 7.738413102888379 2.9750154794472334
Rh 6.928473747066186 3.215622203490138 2.366397486870339
Rh 7.396751051754 5.112686613948031 6.493761151256818
Rh 5.654986069727854 8.264724923646947 5.452450058650557
Rh 7.082152661161403 2.870318888123144 4.89942906965373
Rh 8.491737971411105 4.312505854145478 8.671949630960826
Rh 5.461062372634691 10.808072646317006 5.925890519357523
Rh 7.645212239280851 6.546834484668758 9.615026822492498
Rh 6.829473090323734 9.071314762963164 9.61918897370985
Rh 7.19035821748668 7.643782328231136 7.466168915961408
Rh 7.856741254179336 5.420186371388815 3.172202581736099
Rh 8.11405090859783 7.362319191652505 4.994759623453224
Rh 9.213981895576802 3.2954937088207776 3.699829520747139
Rh 7.518279805636462 10.076609761418824 7.214708264914919
Rh 7.511155323678862 9.798754677276666 4.596790290168226
Rh 9.134452970410415 3.2051940587294774 6.391294106589352
Rh 9.19896013910103 8.663017454676154 8.635077755153038
Rh 9.467383486807728 6.495531921899518 7.302362820222616
Rh 9.616664060109462 9.007106113578407 6.147969505579907
Rh 9.638289944623413 5.323869621590441 5.076359791510993
