43
Energy = -255.51706366 eV
Rh 5.616431849742157 10.189335997574988 5.319509687947189
Rh 3.570217596536894 9.012689639498113 4.021777619534342
Rh 5.879644186503295 8.263784776459149 3.5146853536256173
Rh 3.767194479847507 6.483709470483758 3.8406377537234295
Rh 8.065536854159012 9.434813096950181 4.221023579087744
Rh 7.888580683512815 7.8992201184799855 2.0846603217116804
Rh 2.3548498564979177 7.4220504766642525 5.772194625433093
Rh 5.833143774624317 6.071501743605546 2.2316775331553123
Rh 3.204726477039276 9.738833302987306 6.488087339717002
Rh 5.2988708086328655 9.500893956485719 7.834797427350126
Rh 7.663198692541016 9.432829599177627 6.713066052064157
Rh 1.9790559018561233 5.060417064887684 4.796141340499388
Rh 5.013556776922467 7.730575013475669 5.858608654783005
Rh 9.85881220580496 7.610752515989854 3.8635621899183654
Rh 4.127304452347483 3.991132774408758 3.471126404766814
Rh 10.072826993009464 9.189872080128698 5.911181573707136
Rh 8.16047923622838 5.75038149585071 3.3512911454709293
Rh 7.627416631745357 7.187596644335444 5.398942817416131
Rh 6.699197376176264 3.673749220474977 2.8009372541276605
Rh 5.869721289391203 5.341964870029499 4.7406055266386735
Rh 2.385962508722839 5.380676081335365 7.390594237142435
Rh 10.368215557215882 5.077147675310637 4.440525217399345
Rh 7.266037173101049 9.633069621764609 9.309777219608266
Rh 3.5501906158704677 7.602551490205583 8.056558678366503
Rh 9.382127862080479 8.314938449501176 8.27659940515535
Rh 3.6587742281239777 3.6651140003053704 6.0173397407115505
Rh 9.858706660325206 6.661895953373295 6.335999137354433
Rh 6.811036713061852 7.2886035326539735 7.8855618069168125
Rh 7.363504404654207 4.812840344952047 6.774240414642702
Rh 4.928483025426258 5.541767754415356 7.262978591466845
Rh 8.38886545008367 3.5696863622190125 4.721669278265249
Rh 5.344216521098628 7.818154668608389 9.898914315602674
Rh 5.841129784170726 2.780092757655881 5.0659621039003015
Rh 3.9190933965679733 5.5670319738554275 9.574000557792594
Rh 7.979643628824263 7.404396158845625 10.30619715442497
Rh 3.2539699171875673 3.240386624485927 8.554786282181878
Rh 9.802853951281133 4.0854007068940055 6.882509443324174
Rh 5.610605813383257 3.078761066424338 7.680154355286502
Rh 8.930038674901779 5.8035923515565555 8.595037106686185
Rh 7.9684086832719325 3.4262286651142597 8.980218184180519
Rh 6.551436300462254 5.4463766495428585 9.651650112341146
Rh 7.7920692071685504 2.203716795423603 6.745460000200195
Rh 5.274458396313413 3.3920610540256 10.139347052787722
