44
Energy = -260.88733589 eV
Rh 6.6338217999967135 7.638559710833357 2.2903746375956446
Rh 7.653696143120188 5.297314910871474 2.6051950668927257
Rh 8.738080530716916 7.426626398547581 3.7984872512468746
Rh 6.68735589976196 10.797898293715619 6.154191827240891
Rh 5.114298505738411 5.61072815235408 1.8028269977897413
Rh 4.3209802635170425 8.319087948175243 3.2579121694557758
Rh 9.109200248282004 4.945918012173853 4.737171912929413
Rh 8.67152821463183 9.135003310326221 5.989742907557399
Rh 6.5527702319467185 8.76068434382218 4.550066137747364
Rh 10.158160672140808 6.978524066878333 5.969904906138479
Rh 6.229093770299508 3.3177991094715997 1.7405344356708048
Rh 5.891369791976674 5.991210509538229 4.1939902380978475
Rh 4.382897301452421 9.991799092368879 5.327131071937039
Rh 8.06765218485252 10.199217853562153 8.312249440277599
Rh 7.739543217182138 3.000375142279703 3.8176157670851323
Rh 7.6339945669858285 6.667389806578105 5.959139087843505
Rh 3.324421448357916 6.021569405558838 3.6687915303510388
Rh 4.462694274687727 7.558213567339058 5.696481587013122
Rh 6.4510080883802505 8.519253419722991 7.3396574816981985
Rh 3.244891001958066 3.9070841757081114 2.234231066050331
Rh 5.68701570015761 1.1849376520431414 3.154047737052118
Rh 8.842207591858958 7.6183088844185525 8.147947665389653
Rh 4.7666153200993095 10.326559417410952 7.854098451869333
Rh 3.2996679474120705 1.6872052951917074 3.677916933264232
Rh 7.0611742921849086 8.30341080603828 9.881410974859385
Rh 6.715711744983736 4.25000389670521 5.918471489678331
Rh 6.256440724133721 1.7254415850734264 5.51384165453676
Rh 9.016499436928614 5.067509706797873 7.436925156397413
Rh 2.0457132570599628 6.403076302430387 5.944815059677388
Rh 2.9638948061919037 8.540603850690552 7.3899371871198785
Rh 5.756029884152255 6.074717262702198 7.604385972177309
Rh 5.0432259415762815 3.5246665911812114 3.935591679045568
Rh 8.667581145066142 2.731094652855177 6.2198600856496675
Rh 7.510307097558316 5.827104049277446 9.362912040961106
Rh 4.1621970340735075 4.961896835977374 5.934679470376192
Rh 2.2059069876023356 3.912356824090406 4.642858628638566
Rh 4.7072056262695225 8.013919338924042 9.106960597852142
Rh 7.147927705207785 3.510927362072945 8.307795993479823
Rh 5.654957531730835 1.5745037585200432 7.843303690892985
Rh 2.1114744866545747 4.053937326354479 7.231806283490695
Rh 3.1983018149643514 6.112861239657233 8.27347746549878
Rh 3.795356223103989 2.3663019566890546 6.087195988616648
Rh 5.112442038001845 5.614233381651271 10.085275309085922
Rh 4.569519729407102 3.8168667014221063 8.235247538070231
