46
Energy = -273.01351762 eV
Rh 10.685733914575927 4.508932058126039 7.010284553795907
Rh 10.274995511463608 6.366867360349673 5.444495350930834
Rh 9.41023403294659 8.647728306162463 6.467198225319181
Rh 9.358214096611626 10.589019359794577 4.79108285155014
Rh 10.132979429237428 8.372820260474722 3.930725606359557
Rh 8.914251257425244 4.201356960570102 8.812185335414807
Rh 9.483375618314575 6.593126584904536 7.987456701310818
Rh 9.273060577965529 2.424862135574118 6.898924178871972
Rh 9.447092879265501 3.977207133169541 4.67943806884378
Rh 9.17433433341992 5.982807263750043 3.0844643173109763
Rh 8.52107654573945 10.83397150392187 7.402020447146666
Rh 8.451228036714674 8.710125467603346 8.953300368252844
Rh 8.17775030788493 6.298459005070348 10.167246099491619
Rh 7.948782666791318 7.380729869694512 4.749762133704405
Rh 4.932846487083601 2.359418137764626 9.216816655598338
Rh 7.081100293904096 9.74373229083294 5.557693240003417
Rh 7.753993430946536 9.34560251845846 3.1358340506029183
Rh 8.033611643813881 5.113108343808193 6.442766507064719
Rh 6.541458472888801 7.116048435195583 2.616200409175935
Rh 7.262449809132108 2.7950872038201413 5.35831628203036
Rh 6.9487797191427045 2.8761310107244937 7.908499073964266
Rh 6.969004956114061 7.473759743394664 7.123319355808609
Rh 6.928878877408049 3.65474755503595 10.331697848404621
Rh 5.274756969027071 9.223513807486775 3.8308702579361964
Rh 5.449472869451264 6.965752946043007 4.996202989568363
Rh 6.093651233062262 7.695955919540786 9.519046421373178
Rh 6.330108382516754 9.901037487227585 8.122368475276309
Rh 6.938873807527071 4.946883773968998 3.985136384125244
Rh 6.365319550213042 5.341666771901114 8.62201846454869
Rh 5.07229315438325 1.9172174732270135 6.526830527847648
Rh 5.41468195122051 4.605567707786681 6.307041570047073
Rh 4.674683469403865 9.067710722325822 6.35245801612954
Rh 4.426728657375682 6.712135750088406 7.55603692915828
Rh 4.512868253638336 5.538752558379421 2.965402064217583
Rh 5.036214163898925 3.1990309705786135 4.2099412663824465
Rh 3.910977501652958 4.320105008935878 8.368172452705172
Rh 4.000817841536833 8.997883049628323 8.760595379794998
Rh 3.2677964480958543 5.61886948157743 5.182446046135161
Rh 2.6750148681253996 3.70905226865094 3.4883742313963224
Rh 1.9874855829550808 5.522100672589028 7.322536638392695
Rh 3.0986808734783047 8.03623513209327 4.459944490536582
Rh 3.0273740271234226 3.2311113956835005 6.101263258673216
Rh 2.3543897924090165 8.105072087115374 6.996266866109409
Rh 1.8911489967552897 6.101852396820945 3.0584595750995596
Rh 0.9068689186490642 4.336649456216483 5.238575701799432
Rh 0.924527734946828 6.934049839175347 5.301335117040316
