47
Energy = -279.68338659 eV
Rh 1.698630374340274 6.286879537171443 7.21444041924254
Rh 1.5131071401419822 6.1179872751458815 4.669597576443808
Rh 1.542132173878492 3.4888642137718966 5.212330765292119
Rh 3.6433550040708775 7.540282452104377 8.487877773174704
Rh 4.851433277794188 9.270125225302627 7.035192180626598
Rh 3.044387717953345 7.914282333042299 5.78858260739388
Rh 3.4661748659413885 9.638024578053153 3.9241195483534637
Rh 3.2157562486206452 2.675437583516558 7.297541275212773
Rh 5.383900382613166 10.802429601991848 5.059738892577031
Rh 3.3563112328888005 4.916457482536831 8.535653329150481
Rh 2.9419198932740818 4.504116560660668 3.2682253228108777
Rh 6.282112563992663 8.295254874519014 8.914455763753018
Rh 3.453521289231916 4.889135988736546 5.956337766192451
Rh 5.416601937359907 5.931113681825183 9.558707527075835
Rh 3.2938623249650254 7.191769433923241 3.140302605557724
Rh 3.8303988208044104 2.5615573479029 4.730624158391159
Rh 5.153013325246227 6.649733406387219 6.647640680138833
Rh 6.818307428330542 10.863419667777222 7.173583954331189
Rh 6.263575613135509 9.865643600569147 2.8205050214732936
Rh 5.881848988990439 7.454082373853762 2.162917723939178
Rh 4.904527691518065 3.195230379905369 9.663750224730599
Rh 7.906562583691647 10.324391404108122 4.881129815103935
Rh 5.4637029143625755 8.224140119235688 4.609663624166727
Rh 5.683748781810509 4.204370562022226 7.486600609362411
Rh 4.568780460245579 5.467257997276895 1.5349653965717498
Rh 7.285675750473229 8.470657936754014 6.527644953843595
Rh 5.09657004363427 5.715159810923892 4.106019450687873
Rh 5.425644171712709 1.6990172538946087 6.60863555896344
Rh 7.766081523221954 6.722438967670208 10.393592270440001
Rh 7.374440459221092 6.18839171393389 7.872539627479717
Rh 7.898441997938151 8.091368968587194 3.579774837039477
Rh 5.886337220105186 1.2316715552546853 4.120672972637659
Rh 5.340130596212741 3.3610289028830747 2.699061223577245
Rh 6.284198669731869 3.6664148730840695 5.105006136309025
Rh 7.336662391017905 4.1950981185323615 9.699472433305715
Rh 7.328700334358914 6.160336724051862 5.27663229369843
Rh 9.079847588568988 7.994187254237117 8.319143695183415
Rh 7.052915942829351 1.9561194226802388 8.428885679180807
Rh 7.346570193310606 5.233575709465026 2.8612832881917947
Rh 9.623791259790535 8.441668553245202 5.615019661472578
Rh 7.806759507027266 2.6230430076120523 3.16314255091391
Rh 9.548026893991555 5.44040893233698 9.039546537258204
Rh 7.98478455798398 1.8554299442591984 5.772271205806536
Rh 8.366532300162206 3.8182433628079253 7.35726237601397
Rh 9.63970261872084 6.3819939833729915 4.000207451790356
Rh 9.651667574221511 6.001788046200779 6.538874394071643
Rh 8.915098040223356 4.11509623088607 4.847940334839518
