40
Energy = -236.71902044 eV
Rh 9.989382989556667 5.722313453358091 3.346294131591616
Rh 8.916905613564198 3.381412398287427 4.069196001965433
Rh 10.427503976154272 7.533161460748614 5.20747860986368
Rh 9.67138125209147 5.264580373333586 5.8503415617807475
Rh 9.479520793398525 2.8790162205736785 6.652711485878175
Rh 7.56249616355544 1.5913749638469583 5.489698021567684
Rh 8.585656433044447 7.8486010419944 3.474174019819282
Rh 8.450003130582177 4.7623301409790555 8.123307172675306
Rh 7.472307525483166 5.444963759244384 3.44803696975063
Rh 9.202711626883216 7.178810212498536 7.570264470382669
Rh 6.320841046383299 3.1895099543551515 3.8247112821388605
Rh 7.273202872079029 4.271285882090467 5.923644249316807
Rh 7.523367310393722 6.900621635666427 5.618924630497658
Rh 8.484686468030157 9.179539101777271 5.850830009983113
Rh 7.446350142804225 6.423378778113782 9.676057730261594
Rh 7.232815728797845 2.4538464112384433 7.909181718203565
Rh 5.286291480721173 2.6745163111665535 6.280990794352599
Rh 7.022739579749905 9.912250843332838 3.8509522029205954
Rh 5.1981952472921344 5.470473279399751 10.638136902174132
Rh 6.039237536596156 5.920862614279104 7.613596622031657
Rh 7.187201972033946 3.8615495546828336 10.12499262996052
Rh 7.010929005691709 8.372900507897182 7.884931200920884
Rh 6.03060850587174 7.610264137751117 3.5794779602622295
Rh 5.19934732159284 7.748960253650689 9.571518425225024
Rh 4.840424809729538 5.167548259953073 5.402177696593122
Rh 4.952122215119783 5.347495651028651 2.9114847399368555
Rh 5.17264003687555 3.8516742419284764 8.607819478351145
Rh 3.856555738592958 2.9833799935865866 4.249820750307784
Rh 4.412582197817285 9.644916488058081 4.439140494881298
Rh 5.127598444496498 7.822285369261283 6.017580840278302
Rh 6.164064457427529 10.171836829117378 6.218557892025339
Rh 3.6640720370157176 5.989840383264171 8.540952296738599
Rh 3.5282879799619824 7.296333715339387 3.9806999970443813
Rh 3.1691796455024295 4.033649722924462 6.880810761738661
Rh 5.338651474205236 10.118004064057052 8.630385198970234
Rh 2.707101825051026 6.510688958340448 6.296753260038829
Rh 2.480034490248904 5.045400559931157 4.218490236760178
Rh 3.7078352286836296 10.81993245277033 6.632283015914687
Rh 3.5545885066477596 8.545383887831333 7.721970372008275
Rh 2.2078685809011325 8.95239752297072 5.56891555551696
