48
Energy = -285.45140683 eV
Rh 8.500259203247788 9.24247191888962 3.4407679662414323
Rh 7.575540675642765 7.9046819899008405 1.5266649566772523
Rh 9.438876067363399 6.767236947780657 2.964787362978835
Rh 9.275801198373163 7.8474184615347085 5.301366289773579
Rh 5.741257523284246 9.682175178733752 1.6793192661733949
Rh 9.127061685887949 9.144180165144961 7.425926794825205
Rh 10.596557219677155 6.845339862455886 7.188323267097221
Rh 7.051533838104794 9.196948944663236 5.87856772860015
Rh 9.618577853152875 5.282096030277249 5.313672379027598
Rh 4.94880855809901 10.015510701276733 4.639518762323243
Rh 5.279767072883977 7.3056072809119055 0.7631326183797987
Rh 6.241338654890666 8.2013921146625 3.6466388343611547
Rh 7.317821068222141 5.409770381910155 1.7069096900653835
Rh 8.83292272237254 7.132436742252008 8.960464949793078
Rh 7.405826488208792 6.036561103538017 4.180041337527113
Rh 6.836894539463681 8.784785349073053 8.555653473295509
Rh 7.45378121479983 6.795144739753122 6.818824834953389
Rh 3.8543937033772933 8.25962650993389 2.789682323988744
Rh 9.046695748842641 4.816949473090214 7.730712028909869
Rh 4.754508679787463 9.425786069629767 7.165664707518507
Rh 8.788210247621963 4.008884232446353 3.3730386733543956
Rh 8.747693065538591 2.855215531514819 5.952812978879111
Rh 5.2090506339903975 6.517026224435884 5.410937583888495
Rh 6.7918361605414255 7.404753213188249 10.661450108543445
Rh 6.991813708746986 5.364546252079565 9.153295451633229
Rh 6.310269973987037 3.6627238658732173 3.5449147845133204
Rh 5.055122505086515 5.886330425539783 2.785016215229044
Rh 6.8381668009573 4.4455690777575265 6.088529089848135
Rh 3.3435302806277676 8.177167753121868 5.259238737278187
Rh 5.03662724120628 6.959438552590937 7.922259084859501
Rh 6.174627817167353 2.0099981250391528 5.919745083177754
Rh 4.5448469652250925 8.5447448529531 9.68114012883032
Rh 7.2712592072500595 2.954414734690182 8.111601170115755
Rh 4.430487692873145 3.9491687746255124 5.420924138402371
Rh 3.726542452947981 3.7578127270702026 3.0022017356430544
Rh 2.6371321231033873 8.066584557862011 7.70445314696661
Rh 5.846062714983185 3.3500500074277317 10.211766329035543
Rh 4.800172267594681 5.856917088301222 10.350769975714513
Rh 4.919739272310487 4.445957446885223 7.90239830473004
Rh 2.7326218664390316 6.066293826478806 3.7634635172989586
Rh 4.731267770893127 1.5889267181302893 3.7572153413938287
Rh 2.802396681188484 5.834008927370807 6.279930953756914
Rh 4.759310429007308 1.9843844570571443 8.215586889866147
Rh 2.7685554068050275 5.776498903746847 8.793916073480348
Rh 3.5696258652703317 1.636309379400664 5.967412303275508
Rh 1.9578768676423433 3.7879338746803657 4.94634174656021
Rh 3.344639187944596 3.5948486989096216 9.929918166647441
Rh 2.6151834153295805 3.442468242254903 7.475269081959734
