43
Energy = -255.06944979 eV
Rh 7.893764836361975 3.4377990532000906 9.62202240900796
Rh 7.866725695890908 1.1248094777457318 8.618884829499244
Rh 9.720462914916185 4.998867240599153 8.692907503256333
Rh 7.5194044324342775 6.033281791449821 9.592033735063337
Rh 9.161701697263576 7.429121682650757 8.165314254784906
Rh 5.525612480548577 4.453509575795538 10.139387940074664
Rh 8.728047648552353 3.078942071313515 7.148538729456161
Rh 7.080044611589628 8.67096136223354 9.211753168140863
Rh 8.780554620571273 9.804086885950081 7.4905761155897626
Rh 6.5668229438632215 4.471147603786306 7.729972643901216
Rh 5.36508561463209 7.057372286079844 10.443600425427915
Rh 6.798312522565314 1.5171748230733135 6.403809373021274
Rh 8.637464557150489 5.551807339357409 6.472876563837896
Rh 3.46784119864067 3.608630630627385 8.520982769038046
Rh 7.593539570335327 3.1655790086746554 4.736198664259634
Rh 9.802777857099311 4.135388345044624 4.8238755218477145
Rh 8.997206507787157 7.955868789299782 5.665150968550592
Rh 6.654465513750275 7.049953761099403 7.287180296148452
Rh 4.395324005251698 5.9151100045455465 8.332704531185545
Rh 6.331617328011902 9.632938750635947 6.922646635761168
Rh 5.630528481423471 2.2981023337592017 8.667837231887344
Rh 4.800476093997461 3.174902724349406 6.38570952719309
Rh 5.434389191702665 2.145912796710672 4.140581602767845
Rh 8.032276733155278 10.249058400391709 5.032935212926813
Rh 6.255514652699045 5.247704335700811 5.307194479943105
Rh 8.369135468415243 6.066853962451191 3.915927923899728
Rh 8.308265135650114 8.496280784530642 3.0855600731519224
Rh 4.616368131661262 8.409905749175445 8.43923104911823
Rh 6.570323701278173 7.961982125776072 4.81476890190499
Rh 6.372236170291985 4.339812416020481 2.866784260875203
Rh 3.799139611837699 9.565234946793808 6.322518995093637
Rh 2.9463366386695995 5.010711305654926 6.415427511162127
Rh 4.39508798728753 7.071132143165097 5.9192157729653125
Rh 4.067887851689876 4.258561640325745 4.21852575211018
Rh 5.484215759573026 10.326285836266054 4.532403457936654
Rh 7.238589862078316 10.840926484175045 2.7554003675156293
Rh 7.042154106775109 6.58432289228186 1.8103784007180348
Rh 4.982685824524647 6.498056612183361 3.2609026219695685
Rh 2.4115784646877625 7.4859849924675395 7.398504036024602
Rh 1.52198795479304 8.343993371853989 5.280453232702487
Rh 2.5589272645537227 6.278584608293554 4.176256943238389
Rh 5.783858702551791 8.790549863103884 2.446707054458372
Rh 3.653944383026277 8.625473920945849 3.9490432421231563
