44
Energy = -260.27801173 eV
Rh 8.655092741196915 4.207371242292821 8.644568414642567
Rh 9.226066377786136 2.730033881959132 4.467558838929673
Rh 7.885641051208822 2.784680616915268 6.660584163696194
Rh 9.78316100190617 4.55243379680771 6.329277595989701
Rh 7.796516566722769 3.5561732285141274 10.86676589622989
Rh 7.806285359796334 3.1129242540964888 2.0668874306881952
Rh 6.314466377085299 3.069283657865584 8.715713547524947
Rh 6.7335680086567455 2.860519654447583 4.3862478190326755
Rh 8.85656677523957 6.650120509596289 7.80844513273413
Rh 5.328952677870557 3.5450607184292657 6.405210679735292
Rh 8.40733886504793 4.956168022271114 3.6509183744111335
Rh 7.317120729990236 5.200780963416001 5.980918848268737
Rh 5.55883998856478 4.627184519973889 10.643891550458164
Rh 9.236749734039414 6.813446030881487 5.241278651061825
Rh 7.944942623241781 6.114684222824095 10.357779362769028
Rh 5.743024023256724 4.528960695028094 2.792117672365858
Rh 4.078694308855987 4.504037092323202 8.477628072441037
Rh 7.411907307592672 5.578392778660417 1.2885013250318258
Rh 4.128311530195223 3.2275347982500118 4.212859455462437
Rh 6.412906133588222 5.690959728196513 8.411150292897744
Rh 2.9384165183222315 4.523765882344195 6.107758311701082
Rh 6.2912868827605815 6.739424000443734 4.137800586660779
Rh 8.434031450824065 7.396577037197587 2.8241100393819054
Rh 8.486213128227027 9.178395481857546 4.623620528236538
Rh 8.99183888844896 9.239934200598514 7.232429332484613
Rh 5.4886384421807515 7.186738852597212 10.537909575429072
Rh 3.2743959807086296 5.74583495353079 10.580449269745845
Rh 7.206787763707317 7.963902818670512 0.6210243674639322
Rh 7.235274512923389 8.234796358519308 9.013534702811834
Rh 3.8718646349290378 5.795466898227725 4.014588968405557
Rh 5.169842262593238 6.896809832800726 1.8780586159332104
Rh 1.8061009132984027 5.587786774987078 8.09132167082064
Rh 3.679405644226667 7.185047145420672 8.474089154351361
Rh 7.023207826204026 7.86927618727645 6.386495985745157
Rh 6.490131001962287 8.999695051829187 2.7861672095418397
Rh 4.944230839420523 6.1686550367770305 6.358967789281112
Rh 8.135289539390985 11.308731854292644 5.842952993387758
Rh 4.267449052347536 8.3554128700569 4.165656549027007
Rh 3.1913108945601314 8.259204725409317 10.788680864190004
Rh 6.6049417844673375 10.233893039223199 7.541171337907913
Rh 4.923210807048728 9.289962434555115 9.219691253704344
Rh 2.655372721160356 7.1747326261908775 6.041978481113467
Rh 6.1034501214366585 9.970699440314245 5.036024352923404
Rh 4.560245832022838 8.783595709144205 6.686304560394596
