40
Energy = -236.28048933 eV
Rh 8.383509166030995 6.567284981465308 10.01430798216428
Rh 10.194580765302131 5.497234637388722 6.03964512021427
Rh 9.65238615976149 7.253409850437578 7.802914101449137
Rh 8.928175548707042 9.684739198176182 7.089654458996226
Rh 9.108474719886678 9.030456161303412 9.594035128416513
Rh 9.391046306305146 7.882618884722782 5.2512818134615
Rh 8.654571217687739 5.66608582202639 4.000657748257789
Rh 8.270820399787494 3.7387740389782693 5.771578447846774
Rh 8.84121376244609 4.735842660097585 8.151508974611492
Rh 6.647227382538012 4.032743268429305 3.7704135596611703
Rh 6.530046976446713 10.507361938484749 7.524523429146457
Rh 5.990141679974115 7.390510519016364 10.447746861055993
Rh 7.6256002312895115 6.223970246565907 6.343150284877989
Rh 7.176778339820353 8.03786641036879 8.179606555898891
Rh 6.96245257024422 8.755041726071084 5.621730079647748
Rh 7.7166629252070384 8.066563002939185 3.2531513968244905
Rh 6.788584767690737 9.827974532527362 10.018311280460482
Rh 6.9759220393022625 5.900070552390619 2.046790348485844
Rh 6.854957415082459 3.0961283448718935 7.901089505873846
Rh 6.40680269583742 5.5386172124743105 8.654121598094276
Rh 5.189225704304534 7.060611978108243 6.7850614298242515
Rh 3.97260103852506 6.409052265120609 9.032874188430332
Rh 5.949442853107178 6.489328815827578 4.312557721937461
Rh 6.289717412035463 2.12242180882322 5.51554172780203
Rh 4.7637278378355745 8.936177752885737 8.691665068010094
Rh 5.95196816822914 8.073908629242183 1.3471761380508178
Rh 5.60803490701771 4.535172926930699 6.135300832883924
Rh 4.38194741304349 3.946641868804377 8.348973298715501
Rh 4.533451872713519 9.550490553003714 6.133694480487997
Rh 5.249479951949042 8.909892246564493 3.69714998185389
Rh 4.8292207371372164 4.462576886762752 1.9929971199493701
Rh 4.836660439094549 1.5547873406071857 7.538811964388187
Rh 2.766182291621666 8.052738566637863 7.3871703662580765
Rh 4.50635055494693 2.62038234684502 3.6967184352949096
Rh 3.3620853829387145 7.488069265665874 4.95925874190998
Rh 4.119562209678573 6.878079164522814 2.563705900188803
Rh 4.131454565591664 0.7145156728969053 5.225181893102035
Rh 3.7980912644098948 5.011021012730313 4.289669559729572
Rh 3.0487899881831515 5.5350864924877 6.718710917602375
Rh 3.4671857868520366 3.094274579146209 6.0296622885937
