40
Energy = -234.6762909 eV
Rh 6.520868789385892 3.5169714993161105 1.9586191171489138
Rh 2.3500367669094846 5.760725456517447 5.449618646232615
Rh 3.6143084434097656 3.6080752661700473 5.860852226698857
Rh 5.175308588923532 3.1052742434787515 3.9671176042226026
Rh 2.2849793301427 7.503663419443867 7.44092152908192
Rh 2.3899854700800174 9.110230441938358 5.4773920965865885
Rh 3.958111588449631 7.893142784483593 3.3625527470212235
Rh 4.129101939052456 3.034365494823667 8.296174737580564
Rh 3.7590337638958875 5.418667884734271 7.680016480892037
Rh 5.9105647019317615 2.0950289132189703 6.179587239350351
Rh 7.292820072293007 4.884176363258406 3.792576845459399
Rh 4.578158905734434 5.52695351285944 3.983823628864336
Rh 4.24459080524354 7.33378799571322 5.808360045541974
Rh 3.3484401152405217 9.726478117177832 7.890482813883165
Rh 5.905972079204048 4.754448415970107 6.153309556214879
Rh 4.175923707484641 7.59252037549643 9.202522228432976
Rh 9.542506834036436 5.2419731814739405 4.850786432250321
Rh 6.518122727785993 3.4232501193298526 8.253154212388074
Rh 5.4084013901113215 5.248505489927563 9.642677831570092
Rh 7.542316853460306 2.3607320769228686 4.076693507520233
Rh 8.249621988357529 3.3024220468029526 6.245445410224287
Rh 8.001181113145504 5.275285245306228 9.313079253880773
Rh 4.845536298103732 9.728594096936298 5.842406821991807
Rh 6.165070297229979 6.8726476529326375 2.4796230458582316
Rh 5.986376924349228 6.901032456844345 7.640244616064714
Rh 6.7234195609824985 7.07565260354117 5.1243311544095125
Rh 8.221870066067886 5.8506879616576075 6.927089967633229
Rh 6.7171138004299165 7.50440302496142 9.990565434412959
Rh 6.18272852761966 9.13592063687523 3.702480258165698
Rh 8.592879299449173 7.042161663943925 3.3181196321111535
Rh 5.938287796552318 9.34220753030109 8.111948138578562
Rh 10.36682725060817 4.496315887505538 7.1841804755633625
Rh 8.990259982672466 3.0770298209272764 8.68886053937058
Rh 9.42174586639001 7.148980984420392 10.008834633396848
Rh 7.397002489580486 9.372798546329605 5.97626796619138
Rh 8.714700180956093 9.46601773125656 3.833547780026649
Rh 9.495264022301196 7.755840519697402 5.632816675638505
Rh 8.268443581053662 8.230402299655895 8.065267675854308
Rh 10.513912639281621 6.88250857143073 7.75372109435491
Rh 1.5923128623067915 7.434227086631466 3.868037319545186
