41
Energy = -241.14759815 eV
Rh 4.691276492937228 4.088982378511955 0.2513208604580609
Rh 4.700167925077187 1.2214761824044873 0.5436855100088899
Rh 4.772662951631205 6.474417576382881 1.270332341146956
Rh 6.7742278197862245 4.889203897302008 1.6016141376817563
Rh 6.827371118102903 2.6510142170208835 0.323521357622442
Rh 2.757008456407224 2.279764366094325 1.8383277545347734
Rh 6.796935715137815 0.6792619584285702 1.984722789885064
Rh 4.447854398021196 0.6374179041175422 3.174257763188403
Rh 7.027032537360483 7.324352055525594 2.0312328966103474
Rh 2.934558635484774 4.683001048212709 2.102051002117089
Rh 5.169409774347725 2.912946838574672 2.450182023736093
Rh 4.875406348795012 8.51917373060342 3.1551425093141194
Rh 4.298878699572194 6.177038605350576 3.7731964945084258
Rh 2.5261819270423174 7.198039332074845 2.2478064140475533
Rh 2.2301935196891964 1.5842557456117703 4.181990762986046
Rh 8.517827686816663 5.3473369461145746 3.5559672355083607
Rh 4.801228308791553 8.057923600486863 5.7251324639188255
Rh 7.9627762666455615 2.9224804596718146 2.662423020256833
Rh 2.573414369877791 8.208527142287627 4.617301179502701
Rh 1.7885555514670268 5.753549634772872 4.173383180135631
Rh 7.089720472468468 7.755894719641389 6.900121386132518
Rh 3.6423312738518816 3.713203004314447 4.466031685365387
Rh 0.8771608612096662 3.5420546473156507 5.028319091817102
Rh 6.724081117284683 7.01862555456434 4.409393237018538
Rh 6.225929487667486 4.436192877763682 4.149293422693889
Rh 6.5030153649766325 1.6877952671463106 4.369117466776222
Rh 2.728524403813909 6.823504225099786 6.78562219289298
Rh 0.4406022193314216 5.829310604904122 6.26465059595833
Rh 4.281079057864705 1.6182530779565498 5.639341381443193
Rh 2.6072270946011975 4.233274511228668 6.76475119099267
Rh 8.431021708558799 3.248965555519459 5.180888623667163
Rh 1.9645317816722907 1.8247625739658806 6.753344548051793
Rh 4.915150711403356 5.427847765096192 6.187383924129264
Rh 7.559931374956056 5.404663216839556 6.238771538585707
Rh 5.003509963075149 7.212860582931198 8.099152677893828
Rh 0.24844137576124423 3.6664370706596774 7.579906226849599
Rh 6.197140548317557 3.164827586841848 6.4663532805078745
Rh 3.5482331168365624 5.311587935333273 8.83565034931914
Rh 4.255764579788558 2.8315730289795384 7.969156701763422
Rh 1.1458929063176655 5.76499449343967 8.70700252909506
Rh 6.029018080815877 4.764484084475155 8.43343225544297
