44
Energy = -260.75943724 eV
Rh 1.8387030279642398 5.97909855634597 5.53960649403693
Rh 2.0183493907373706 8.213773401265456 6.844719035919849
Rh 2.7185651193479377 3.929191590584705 7.023740660626534
Rh 2.232050685625528 3.4176115703668595 4.60085852354181
Rh 3.5615154980405035 7.788361316835499 4.7849646620413315
Rh 1.7226384890337674 6.020713595977989 8.150667973744664
Rh 3.8237063226689 5.285958987244372 4.218120282652998
Rh 5.363973211037795 7.113327289528269 3.0545308505532542
Rh 5.071521526740666 4.766679790333157 2.0844995054089273
Rh 3.531513394236763 1.7570028733214573 6.044462393251222
Rh 4.60462997399923 2.7121887461256167 8.460479882956674
Rh 3.5163596010225597 7.771269570383846 8.940317181159099
Rh 5.1457169448545175 3.649572472829437 6.2246683514464145
Rh 4.431592835396821 9.102733458588716 6.825886712830155
Rh 7.050713376233035 3.167307081270277 2.6009004020287434
Rh 4.110383204254629 6.306842725623424 6.904042510905849
Rh 5.545456940325945 9.455658965134706 4.199291023811011
Rh 3.8954206634396358 5.08502028293109 9.083225361773621
Rh 4.731286838223856 2.8714356455773142 3.888555207349632
Rh 6.378942218242149 5.119942078964786 4.4698500934123
Rh 6.034851965576564 7.495426192080614 5.67953447713784
Rh 7.451990408292981 5.7578640481349 2.1542794542242714
Rh 5.820101597703657 6.738496948305591 9.205765750454512
Rh 7.128786434106383 2.8913006740577756 7.6158669189239
Rh 7.3615026085443 2.8596165626057757 5.104651524930911
Rh 7.748965900712414 7.996306598595651 3.4836037566781686
Rh 6.671662525020817 5.412039848339028 7.1692381684460065
Rh 8.347103067582468 6.5228307691260765 5.450174854948919
Rh 5.741788335683313 9.271298628185555 9.010847315034061
Rh 6.285936740932828 4.295908369948523 9.59844380381293
Rh 7.82090366332142 9.421051580300457 5.637886890350721
Rh 7.674516571235265 7.9378747753170185 7.708295397147544
Rh 9.791725473133123 6.641438304442028 2.798879139415894
Rh 8.872198866365688 4.469251160948016 3.880696546106539
Rh 7.56918188815487 8.065172495327582 10.405340125535236
Rh 6.316233393847477 10.718269377891838 7.032358758880822
Rh 8.37710389556801 5.812544736439948 9.058093153598564
Rh 9.053391884318453 4.381873258723875 6.655710153549822
Rh 10.109490348453978 6.737238959698984 7.269370027944575
Rh 10.043199466850291 8.273246783096798 4.876744612011803
Rh 8.157880999144506 10.134108272183413 8.979203742812032
Rh 10.762099121911087 5.677693955565261 5.039944678775207
Rh 9.847554818069742 9.330030584085304 7.179569282408597
Rh 9.909461075976457 8.004377261831866 9.383239221747264
