47
Energy = -280.65149945 eV
Rh 6.606525585809642 3.8173060368149447 2.1661359877669524
Rh 5.899850674806256 6.124247821542616 1.3122520004846345
Rh 8.22090399986615 3.57146195788214 4.048140080565792
Rh 5.268681139195776 8.443712573508126 0.5550483794052986
Rh 3.761709016927271 7.2139998597758135 2.233411257602775
Rh 5.683074268635094 2.757721533940562 4.509461254173821
Rh 10.128915754902732 3.280583645429465 5.838553150521019
Rh 7.144035103909118 8.256936110723553 2.208696368428325
Rh 7.674835565683583 5.897906145343534 3.1707845337597975
Rh 4.634881932462498 4.967233133406967 3.2779757440385553
Rh 2.485899259104644 6.0209042582117025 4.147716877683094
Rh 3.7336601919326595 4.10218130573264 5.563057643567335
Rh 3.3035999783144754 8.476681694498346 4.459238149013423
Rh 7.740225581411554 2.276531939224442 6.124263814886271
Rh 4.985981524325508 9.49741488096785 2.8634969602220672
Rh 9.158622206098809 7.922049858011136 3.6342530678190936
Rh 9.689378379439889 5.600111680357242 4.774920566855102
Rh 3.6282876174084917 4.99056323619686 8.2371872940481
Rh 6.251856221623146 5.089443669566633 5.289229852233953
Rh 1.7011405128899064 5.228484427679199 6.529466694312454
Rh 5.6109936389770105 3.39032111152106 7.124542345819519
Rh 5.606379243596455 7.297372821812618 4.118247050182737
Rh 1.3045538084638035 7.681984437355394 5.85301306955613
Rh 8.256164455868559 4.680963781920888 6.929625132144477
Rh 4.81973522019529 3.042657207534682 9.458741676036789
Rh 7.086400147451305 9.441024628558589 4.54033847777466
Rh 2.047592591186294 7.1069136620481705 8.23435014395654
Rh 6.826983453991061 1.588548068356472 8.396291577980648
Rh 7.776183098034786 7.102285467947784 5.680235634024023
Rh 3.2577011818282817 8.997511392340384 6.968034776496693
Rh 4.0362548528908055 6.602041970511057 6.188362227199418
Rh 9.267214183076966 2.5582487214128298 8.191486439855916
Rh 4.747009971188136 10.397585230756542 5.277429124842065
Rh 10.784853705520216 5.537851137939118 7.09981915842432
Rh 5.330465383553872 5.381738649450708 10.18883691403314
Rh 6.27168044117122 6.099886681214572 7.757655754250409
Rh 5.797909298511151 8.589991328641242 6.675745052972695
Rh 10.250268523738683 7.870984115126532 5.996609834600679
Rh 7.222147323314745 3.9271878918492544 9.268032911164008
Rh 9.597047866173222 4.871823527764077 9.258567283293003
Rh 3.017370691608807 6.291866715523051 10.401405681156081
Rh 4.4601400032721825 7.701628011640919 8.800795463876863
Rh 8.2569067359526 9.337182546274539 6.9025080184463565
Rh 8.907451780347738 7.059195758287216 8.070912713889676
Rh 5.621365123481384 7.706828380195627 10.997127889681847
Rh 6.925599013553602 8.480187338930996 8.963186210048807
Rh 7.676608075497011 6.339876660964223 10.205783835699448
