43
Energy = -254.20926296 eV
Rh 9.907197009447401 8.061779742653616 6.8614329842736845
Rh 9.950392719289892 6.262442675149981 5.132682915706949
Rh 8.247416076899725 8.14408776960604 4.873042570339811
Rh 7.808191880001872 7.142241659222929 2.2100271810408287
Rh 9.472721080419708 5.404608232148387 7.638015142648402
Rh 8.081981888640104 9.788503846077944 7.314684266627679
Rh 6.458648450071293 10.099285364412898 5.206420441548573
Rh 9.21892688753764 3.8985482982325204 5.534980493672779
Rh 6.937007165266754 9.30321650234545 2.912676853588182
Rh 7.387770558363843 5.911680296633741 6.283989185010231
Rh 7.947744668682053 5.364534807726845 3.8485061434483216
Rh 8.161814063851013 7.381940054837575 8.510267859572245
Rh 5.806281304486035 7.310480146497494 4.446214811499272
Rh 5.152663659406308 7.497725078721878 2.0480849689514184
Rh 8.235734361764468 3.1363543250251644 7.83324465482565
Rh 6.3891781958763785 9.048638976053573 9.35533084249382
Rh 5.4370671520340155 10.537554312103449 7.488760671463429
Rh 7.621516279917535 4.998448576622279 9.516599819626856
Rh 6.971591497717386 2.935181204046736 5.63318003182043
Rh 6.2119298218497585 5.133048577745061 1.9833225985381853
Rh 7.137801714913113 3.0175357643152267 3.151984448934891
Rh 6.309472217610996 8.152829214281654 6.887000156777252
Rh 4.537618056060514 9.762342043068074 3.4412418305590373
Rh 5.9658877266242705 4.242734707754949 7.678625710316137
Rh 5.020637744491649 4.708288834740495 10.365328711387939
Rh 4.8828603374241455 2.960698889520193 1.8841491387356062
Rh 6.3377701533595765 2.630978565285953 9.612863500132919
Rh 5.2147839532342015 1.7237819905292602 4.3769882440360846
Rh 5.751072579934465 6.6001907514867835 8.966532385680065
Rh 5.366002826062387 4.642996379198038 4.366284844635677
Rh 5.6424558635905635 1.658493484178247 7.288235205234508
Rh 4.110817331210059 8.984587621645218 5.8167890197518695
Rh 3.7209792062993365 5.379885747987927 2.5912963698872784
Rh 4.032112007913923 8.329674927719829 8.270898721405967
Rh 4.6721157764912915 6.14142034327802 6.5063066942270735
Rh 3.8649948853756904 3.219909648510794 8.69661788788246
Rh 3.304568170018857 7.549827544134647 3.8827388130295026
Rh 3.1992067487497753 3.115171044710942 3.740880276722109
Rh 3.9500125952235887 3.2025273146424436 6.158289441574236
Rh 3.280607419795105 5.824236651737883 8.619011518199517
Rh 2.7651909643166888 5.27392368461816 4.989092248531332
Rh 2.3395772236481407 7.211911135762048 6.578510526632686
Rh 1.9351482516085146 4.367241288538727 7.17492708389367
