43
Energy = -254.2900231 eV
Rh 6.221738410977114 8.891931600150489 3.087920529340644
Rh 7.434957779228513 6.627442707110441 3.1018919242225973
Rh 8.817051843263958 8.924544324310208 3.3605987304473546
Rh 4.813718403221535 6.689077186660432 2.9104320282035787
Rh 9.891617919439101 6.52581004999265 3.7888404617565543
Rh 11.312825089870358 8.496923199561733 4.375964446175671
Rh 3.720798850891817 9.075426485744856 2.808416198154851
Rh 4.6859711854148145 9.671010914110267 5.100345835958999
Rh 5.982720351269518 4.596209262150118 3.8677810992544432
Rh 8.081639793656736 5.165583650961927 5.157065656256389
Rh 7.219720265167996 9.854793067441166 5.295223186224058
Rh 8.611837831513125 7.69913517576091 5.625916714049008
Rh 5.928875672499322 7.32479856056303 5.127274872660294
Rh 9.720205617343025 10.159629692070231 5.498615087824382
Rh 3.8223849148006397 5.183464547667878 4.952123442240543
Rh 10.319023344691793 5.816159500832679 6.2855436153085655
Rh 7.331851626133022 2.6574084170299304 4.81609889181572
Rh 9.611571994510259 3.277219206492853 5.894213155331528
Rh 3.133134268335522 7.608286708648998 4.7256995407831806
Rh 10.779249299461691 8.28119206343442 6.867231687379102
Rh 3.382454112581392 8.902591019401306 7.081990077349757
Rh 9.347358834079046 6.95810469927425 8.501397870365478
Rh 8.41767974084858 9.25108776002615 7.634730451182378
Rh 4.71398605132019 2.7167387556422886 5.138387680779095
Rh 7.0552342159762755 6.529542348975466 7.30944593036113
Rh 5.9241621919287715 8.880075440315542 7.319491472437827
Rh 8.614424936843921 4.557514024169628 7.832090866145894
Rh 6.184679356400131 0.6892731477467202 5.875906969950586
Rh 1.1697895243520835 8.337215428583171 6.01689831663519
Rh 4.417873357147337 6.534624892889152 7.035078606817303
Rh 6.11088467327143 4.19336606974172 6.688216022675787
Rh 1.944486674318802 5.977842057474573 6.677104200607153
Rh 7.767971297440949 2.1228981171187598 7.293908545141115
Rh 7.021650254128343 7.877123053783542 9.477155395337821
Rh 7.98024755917945 5.48709370633625 10.113257761770583
Rh 3.4990852566489155 3.947054961505926 7.17903855774282
Rh 4.323026749374787 7.940436413850304 9.227879674407964
Rh 5.164281162779095 2.0293214922726297 7.742568367086305
Rh 1.696318018316031 7.743877663759175 8.497904301419558
Rh 5.584270294954296 5.679876448732384 9.331529662165206
Rh 6.759156808073776 3.401456169388732 9.246040637632492
Rh 2.9821687077322223 5.657396811225972 9.040257606824168
Rh 4.202871862537553 3.536335192181533 9.62123280516211
