41
Energy = -241.32853945 eV
Rh 3.8972719648395544 5.581210925650579 9.583707353497388
Rh 3.152481465821079 4.003750166977293 7.511867389805053
Rh 6.468766612862681 5.39176218443183 10.288059340908404
Rh 5.3985611462279035 3.7502059847904308 8.596705151991648
Rh 7.567371036988255 2.979459009596579 9.67822814110565
Rh 1.6089916711034018 5.872142153026579 8.111324986937694
Rh 4.757281052350943 1.8933872987817582 6.985533783952894
Rh 9.103638798666543 4.995577740086517 10.112972795041859
Rh 5.665482699331838 7.490346555188042 8.925674805576527
Rh 1.8567086192540387 4.888027372735748 5.574835322163389
Rh 3.9551719027028653 3.357689509260519 5.12726197271335
Rh 3.213689186701856 7.8341301435890545 8.59001810319559
Rh 4.603158286761106 6.010846292646938 7.125379702812571
Rh 7.277906576061943 2.582220803385394 7.095417505915423
Rh 8.131843194552426 7.248213060837396 9.263917325063815
Rh 7.47491492350003 5.043781350261568 8.001863752708772
Rh 9.556706129501057 3.360533311223569 8.054959328178084
Rh 6.2363767171365785 2.3047486679045597 4.787138265567496
Rh 6.146607734697316 4.636671219652257 5.7680987943031035
Rh 2.53779769262805 7.2892596325136925 6.186300448812544
Rh 3.96886910473061 5.810104090258584 4.610023317559971
Rh 4.85028710721859 8.613827074045748 6.621668238315456
Rh 9.86483538100884 5.888462696711484 7.755503671557501
Rh 5.731037718352664 4.446544329226754 3.2026305682461893
Rh 8.776925207702064 4.465978678953718 5.826241948957763
Rh 8.126979099502124 3.479093857284691 3.6119096721465676
Rh 7.186050620672098 7.166983156381208 6.632467402806635
Rh 3.6674404743567623 8.408352292857584 4.284461368601306
Rh 7.101302138717792 9.393333725589088 7.886888488240177
Rh 9.559958132776051 8.42912128000989 7.533656491344375
Rh 7.566510046477336 5.983195042111829 4.108957003141125
Rh 5.052376907205761 6.859414920408033 2.6490721412601457
Rh 6.223883587019374 8.194351555406683 4.433009980431962
Rh 9.500435285908605 6.998882243929311 5.429797177818505
Rh 6.107075506946895 10.557290759905653 5.642488921534208
Rh 7.303087532824562 6.301422522521414 1.6818868453865636
Rh 8.354779592863292 9.332183327992853 5.534003958929761
Rh 4.9136966841612715 10.318421418640822 3.3956547308695844
Rh 8.520732463261407 8.146995646915826 3.1978892449517318
Rh 6.401477191452907 8.812097201233742 1.885035182175854
Rh 7.55065773870491 10.540626700801663 3.456816316693621
