44
Energy = -261.40908494 eV
Rh 7.9232922057780755 6.2034338889554315 10.964786790087311
Rh 5.368607143707512 6.350617741760038 10.721514104932758
Rh 6.550602325349051 4.187685706931566 9.81786276526182
Rh 6.843166518670636 8.515947939407637 10.503392774245306
Rh 3.017017166432288 7.0188649124554505 9.920735617842094
Rh 5.069029109243245 8.002463479914676 8.757558743513739
Rh 9.00636681568875 4.9785849234712956 9.003003636849941
Rh 8.773670157958586 7.71634424395861 9.081502845759678
Rh 4.418147019370897 5.181423246903684 8.612623816957077
Rh 6.889128594195213 6.220669508618078 8.464594513007679
Rh 2.7229353866444144 8.590449608812495 7.901099669528497
Rh 8.145210306666112 2.6752558347721984 8.528533516952296
Rh 7.1595611471016 9.52127067955382 8.067114796494304
Rh 5.60422979095144 3.0431024861594604 7.654032324810576
Rh 2.19443525357883 6.03138652439838 7.729798844855526
Rh 10.402400361132639 6.595611750019471 7.546973063954291
Rh 4.864655189664667 9.707346668329663 6.815915343770714
Rh 3.463280597592308 4.085010764912764 6.435954862619367
Rh 10.15163148512311 4.005358922476186 6.915387524019741
Rh 5.74658872799345 5.2172181140222635 6.359815084645787
Rh 8.318181222793939 5.731249262203595 6.351378855566596
Rh 7.741024316340374 3.1941693755122302 6.165107439221182
Rh 1.9424250009519275 5.864712865836061 5.21255288606865
Rh 3.920937925162281 7.139054714961077 6.251831121235191
Rh 7.227609556764584 4.787303130759022 4.127596763182617
Rh 10.591012999861183 5.918746659231592 5.101581637377606
Rh 6.543903785590788 7.721371222200729 6.405218261434422
Rh 9.510755852438974 9.185972452761346 7.202171283395648
Rh 2.681319254193164 9.199446213274687 5.407081290930047
Rh 7.232651561158219 9.946150022040204 5.471657327266848
Rh 5.392559991581437 3.0242594095848716 4.9870482175072945
Rh 5.004873998308566 9.178425950847492 4.319113082362444
Rh 7.4831022611772635 2.2858929600929296 3.703307000686573
Rh 3.183564717116283 7.414765326157801 3.5492910252357044
Rh 8.888617845223823 7.9139909559018875 5.2090939634052305
Rh 9.534147681994178 3.752390829409628 4.3432173293493035
Rh 3.8883726779861596 4.8622719653018205 3.9833163410005468
Rh 5.584194279203423 6.703010371676889 4.246512444257356
Rh 8.88469815811992 6.317246616446034 3.2133266577917383
Rh 7.274718909301289 8.332657868958947 3.2933672517448964
Rh 5.579785299545921 3.782068110212719 2.442742545806589
Rh 5.026439947033069 8.218422020805242 1.920477235276275
Rh 4.017442067285296 5.8333133018558065 1.6332552381927354
Rh 6.532716710574399 6.144072770683784 1.9565654841451734
