40
Energy = -234.9859975 eV
Rh 11.738059473277103 6.906932418058628 5.6839937834353345
Rh 10.217568816173308 6.705630038589053 7.759172047692147
Rh 10.223256256983381 4.915760738484361 5.909940766708034
Rh 9.966477847621325 8.662578462890043 6.004904913991676
Rh 9.463381529243028 9.021336489174338 8.60292700182382
Rh 9.618847650919397 6.75830946431402 4.201346221023899
Rh 8.528937597700113 4.6985143449907465 7.868982613251797
Rh 8.65929802616424 2.7672095823164535 6.201707123592616
Rh 8.126013555767367 6.90874461446544 6.290608982052743
Rh 7.92226866844535 6.989618503134092 8.902035170354868
Rh 7.957193188226672 4.773215185971724 4.71689969944596
Rh 6.7836883675913295 2.8684120476020416 7.975030387438818
Rh 7.902372784750304 8.707897019647426 4.273155630386123
Rh 6.963794315061593 9.369274105037595 9.3372221979094
Rh 7.435731575119382 6.5582235608077495 2.8669296886214277
Rh 7.71800124335899 9.463644842450082 6.799594277009205
Rh 6.78569903592378 0.8266231710286855 6.533541153257693
Rh 6.359249841538361 4.977580650877329 9.333441553474188
Rh 6.22943208298275 5.1262431341208154 6.692727586913675
Rh 6.325673465429007 2.921000572027048 5.245886171533397
Rh 4.123580814346146 5.291701838609789 10.502157258360263
Rh 4.575595608068628 2.1120551959733675 6.969744922661369
Rh 5.852266894395945 6.875621399871766 4.850774422837289
Rh 5.7940632667024845 7.727550439094814 7.489685609527533
Rh 5.640340828042138 7.3151251347710655 10.12734684842954
Rh 5.643935457832851 8.528142087130243 2.9157625688476676
Rh 5.694634494542025 4.6577415712010435 3.474249906340994
Rh 5.668356080053471 9.458982993464865 5.304335503024203
Rh 5.083245186230235 6.368610797076399 1.7020156030879223
Rh 5.488781894664686 10.5265325146546 7.628280355340619
Rh 2.3671895877427036 3.1588323648977763 7.093399501489269
Rh 4.148036940381843 4.553511594593788 8.073724323162562
Rh 3.6633738075312228 6.4855899954435925 6.22501947556577
Rh 4.265183445291153 9.379742804473832 9.56086242012602
Rh 4.002832935843479 4.088083187840354 5.4447581638519305
Rh 3.5336685404545385 6.980299347479002 8.717306982206436
Rh 3.51613661260865 8.38234610710556 4.5003412604954995
Rh 3.527575144226283 5.940793184831953 3.7048175160576537
Rh 3.576002754194396 8.948609759371159 7.0303393924247874
Rh 3.220149730915427 8.006379866364169 2.0639483841023027
