48
Energy = -286.62134946 eV
Rh 10.04571375977571 9.956695882068589 6.942962865372288
Rh 8.319832686679732 9.10076377365567 8.593908516726799
Rh 7.20793373582861 8.740217708624074 10.756811261535272
Rh 8.948499320237765 6.872801895963925 9.72848315694145
Rh 6.158519173336931 10.579855898389813 9.104127543801518
Rh 10.015160583936431 7.451608675888151 7.380855931606195
Rh 7.752871885310848 11.088552101644774 7.007260089752544
Rh 5.062309794914858 8.219875101846663 9.374437837036414
Rh 3.941864269810585 9.992092727644453 7.7539253031336814
Rh 6.340777523069796 6.3392182457431865 10.62482817470547
Rh 5.316084500643774 11.977892988337935 7.025267031695444
Rh 10.018511009422294 5.037320990097106 8.23667139812755
Rh 7.952363462336681 7.5648073440544055 5.935519985769471
Rh 10.721411962416608 8.292468291902058 5.0514090794489315
Rh 6.126014785309185 10.619233369442844 5.041771706268414
Rh 7.732381375273533 4.503702162589575 9.286652778711812
Rh 6.922932427442049 6.886651672595279 8.24425998066728
Rh 9.927563194308064 5.872273394594781 5.236796984038285
Rh 8.02150354581539 5.092511514556635 6.8200967074053205
Rh 4.026922226053756 5.849779844070691 9.362437607155295
Rh 6.1743492851915285 9.064059638628583 7.045000596489852
Rh 8.602922565471621 9.762056745539597 4.864485691950677
Rh 5.550029466272284 3.935751884116392 10.363591115496076
Rh 3.4347451722039426 7.464713209381369 7.438413175148694
Rh 8.56771902701442 2.7004434339593004 7.562620403635724
Rh 8.88290855958937 7.441172526928144 3.4603883726526785
Rh 5.496971343014589 4.730468659603352 7.692217074586919
Rh 5.478156168898586 6.76658331021691 6.1216581489552375
Rh 6.503794198773871 8.387547279436253 3.956874700824528
Rh 7.118693559627377 5.476481420467631 4.4367391529272
Rh 9.06343973214816 3.4808616882675256 5.0936610577246
Rh 4.188084765829645 8.823108654843852 5.259335012575703
Rh 3.6251510915258494 3.208911843474153 8.88764838395644
Rh 2.9717613645360323 4.929644817877009 7.090176099132397
Rh 9.09051290310515 4.9192336410444 2.8995900416584712
Rh 6.104854755751675 2.385855956006306 8.31512760641864
Rh 6.626545204185697 3.0789284790667004 5.828898853947689
Rh 2.669835814369806 6.556561491295103 5.141741666896381
Rh 6.797180556259617 6.555984847042165 2.174631972552184
Rh 4.6298000782045445 4.65782596610616 5.0114429642884515
Rh 4.592259155859515 6.830657627583256 3.5332281458498094
Rh 4.151644109086484 2.60092770601849 6.460908226963268
Rh 7.191230926585963 3.2054799019427627 3.286789612794127
Rh 2.2828739965242537 3.9087534385113862 4.7652138149952075
Rh 4.921085750577524 2.26248241333878 3.9999400599072867
Rh 5.0912250804307115 4.48118680502958 2.52976063762729
Rh 2.6181337166778644 5.425422654914848 2.7439630168241393
Rh 3.030933586646006 2.9365835319326945 2.5434836096042512
