40
Energy = -235.05288869 eV
Rh 3.1306058777849275 2.695735105823972 9.366701203996177
Rh 4.5434272652677565 5.068397808773811 0.0736017087203273
Rh 7.004273592275521 4.765804475877538 0.9864067165831847
Rh 5.422571334686856 2.58026316323651 0.9162783293350582
Rh 5.935098246756724 6.974850966181547 1.8094669908767058
Rh 2.443451232927674 4.368977678471921 1.5187881100955385
Rh 1.180068134692131 2.214246780032695 1.6933947616186993
Rh 3.414099674725139 6.668545950541774 2.0156234754415965
Rh 3.456682752352484 1.0423286030411256 1.7535975131727002
Rh 4.946083059384787 4.564990836344621 2.4641228687683876
Rh 1.0715895743104202 6.106123247989265 2.825585400200101
Rh 4.494545907045811 8.763787844025961 3.207211098595341
Rh 7.035435851656685 3.1000410114255947 2.9436862175112823
Rh 5.939242696057778 0.5176210668663304 2.5804641238072787
Rh 4.55020868907283 2.2760701522066054 3.620095821432483
Rh 7.076853420953926 5.578169414851907 3.6724025415045594
Rh 6.702007982016066 8.03257016163653 4.213232847080018
Rh 2.0474214108481967 1.8059794264497413 4.024484378726344
Rh 4.583903466300402 6.367450081964043 4.2770936801588375
Rh 2.8977673401412107 4.312187565780261 4.030664686382877
Rh 0.9120248534550137 5.8247554469953915 5.333467955112592
Rh 0.43823810839491983 3.7520761444518143 3.7021958046537975
Rh 5.362769799384128 4.068003888957857 5.131685721576262
Rh 3.8372597331223086 9.467695060982583 4.130173402609211
Rh 6.722387697241413 1.6604720135345787 4.973793087477247
Rh 6.107369783671137 8.763787844025961 4.874407028352583
Rh 7.891358110592486 3.8968962775657356 5.417665391388904
Rh 2.4845736102760845 7.644948863953507 4.345514975877924
Rh 3.7073381999049237 2.3062814919003376 6.081733508494779
Rh 6.416378688089631 6.208075162840732 6.158685096658748
Rh 1.1875014919486049 5.349891762929754 7.846114670363546
Rh 3.2998266297679546 5.258321965226381 6.4015139925835
Rh 6.913898653335706 2.4748638240985295 7.37928356457979
Rh 4.679409844228058 8.235727029119309 5.900617071286344
Rh 1.4220086742215405 3.391778912342566 6.091587424485496
Rh 5.366422608992155 4.275613164985118 7.681960036484376
Rh 5.271454460196148 0.6329074956630272 6.78669255887794
Rh 2.327594250545846 7.556071212783307 6.87237717689555
Rh 2.972258986232408 3.51722188938735 8.232375519522794
Rh 4.583201300102552 6.7125321614696105 7.955591512559033
