46
Energy = -272.82749612 eV
Rh 3.7492761718978 5.474435323023165 1.1817850994376116
Rh 2.875325526332679 3.065914028403715 0.8507981984256903
Rh 1.3308226260343299 4.993943288239061 0.6591150420460661
Rh 6.41656641066389 5.579676831375576 1.27589156881979
Rh 7.79167314174043 3.3769328631869198 0.39007616120782
Rh 5.33712796017849 3.1919494285693872 0.9944991570617758
Rh 4.280029738126281 1.138399909670642 2.1006993410543937
Rh 0.9074836690713093 2.3394138879159545 4.664652995099558
Rh 1.9021497725712941 7.038887975092525 2.1805386311015322
Rh 6.946859606267685 1.384815773945498 2.0588892067503313
Rh 2.7967674547706856 5.544099855884095 3.9367007244169545
Rh 4.926241100544101 7.156917216731439 2.7584559578694208
Rh 0.7378009567143328 4.575527031638919 3.044216263012175
Rh 9.0675632292235 5.1540448668654975 1.8920621857423285
Rh 2.7832676400330567 2.961390045895248 3.23944822593173
Rh 7.2634535379285445 6.249235424220904 3.711126393483334
Rh 7.252481109423709 3.7251508333442778 2.8745749978672746
Rh 9.43011337284283 2.584775786406323 2.391798119274574
Rh 0.7563405070772773 6.96020427638385 4.527925600887971
Rh 5.4454525522488275 2.0675784968366355 4.1251651235675855
Rh 4.904231174168842 4.467086857684755 3.1921448395554126
Rh 5.613700118269822 8.634735401106713 4.864641328428846
Rh 5.517484341461579 0.028067175229582447 5.574955550196041
Rh 7.963987346779231 1.9449174641722689 4.587633932459066
Rh 6.566252582257362 4.243014089544954 5.292421276630964
Rh 3.113470445729215 8.118048497120576 4.440272054464935
Rh 9.178348843704525 4.370031986082313 4.384956220778403
Rh 6.234634782587559 7.198386577609469 7.028985264862608
Rh 5.0610935626839355 6.220743357454809 5.130937735779667
Rh 3.257842780377926 1.1430247155644901 4.997328593441875
Rh 2.805881628130845 6.326620110531438 6.394008723997267
Rh 8.290078813515727 5.97671403672814 6.2266276232605255
Rh 6.228474877118873 2.1772554855247566 6.727884281355649
Rh 4.015150508157796 8.513039828693874 6.9268687603776655
Rh 0.9470321049904835 4.609722715394514 5.718458406158614
Rh 3.9679537749131644 3.849129263832719 5.61016439876455
Rh 4.072192050399166 1.0450693039805332 7.399392149646695
Rh 1.4519754802291067 8.670035027638894 6.373824569396953
Rh 0.20741193400682797 6.553563845397642 7.119583372961106
Rh 6.505645850211889 4.724826906809741 7.758951340386041
Rh 8.531305830426561 3.3975556799457616 6.698617715971782
Rh 4.357301987458211 6.045063863892347 8.327066869447126
Rh 2.1549324366430147 7.526805555947007 8.573927529855796
Rh 2.1202753945532984 2.6409567201166997 6.867464694673086
Rh 2.0176559267099416 4.848919769183567 8.207513525996616
Rh 4.278496831256236 3.5229801116138377 8.076557738526587
