45
Energy = -266.29147585 eV
Rh 5.98019924853721 3.421605018428507 3.579554119525706
Rh 9.099214480490819 2.6043158806976203 6.5221827277345845
Rh 4.806896369279143 1.2341736665987608 3.874673020302976
Rh 4.699614341977545 3.012161043830276 5.8624268227321785
Rh 8.461070620667495 3.5412240917250335 4.27064896572679
Rh 10.308928532600731 4.7394885759954875 5.61379001495949
Rh 6.7836159716287066 3.19732826050446 7.433857698801223
Rh 10.246516172240609 7.045352410076244 7.04050655669697
Rh 4.681525901217872 5.692535657543248 3.879248356929565
Rh 11.682878198979868 6.631379344085811 4.78960773808224
Rh 6.6871762931519925 4.933047789729257 5.64309077932205
Rh 8.583278812009176 6.606473031918581 4.972641552638571
Rh 2.349683892566959 4.13435772714234 5.653795789137645
Rh 8.776222638664219 4.828209150737458 7.642045728398361
Rh 6.488639202961593 5.511518998120658 8.81097084939951
Rh 4.614843143615018 3.7219647559802858 8.568472986788862
Rh 2.746679470056404 2.3540652607026247 7.469601054002039
Rh 3.661387196759404 7.825179193457084 2.829886963927105
Rh 8.817688306373151 6.690910236588324 9.375709006555345
Rh 4.337038562123033 5.556780931495906 6.76120578538888
Rh 6.943244036626087 1.7656909099383922 5.274368799274238
Rh 2.607148308680434 1.63332286125735 5.070958897012728
Rh 7.578489377838912 8.908510008831753 9.051102021386907
Rh 9.949704011023417 5.46439420297181 3.1782866534640055
Rh 7.666264266187339 7.112362607638861 7.206053923909845
Rh 5.843559196229331 7.397188444261268 5.489925821237145
Rh 10.160488346499024 8.562538908976345 4.788001286412933
Rh 3.416123073715861 3.4523366745908297 3.429013719887299
Rh 3.416569367406317 8.654986222743103 9.573651929731327
Rh 2.1385893187994847 5.7482747436060055 3.668797082483589
Rh 4.002905814373491 6.062225527515755 9.422309434209375
Rh 5.396794477506808 7.767352859413421 8.130490514515644
Rh 8.932092834157974 9.337887949832252 6.8992833577101385
Rh 8.707311704630825 7.68340792016745 2.6800672387471978
Rh 2.1745516363348516 4.739139270447685 8.169537939309194
Rh 7.1954112289301175 5.564784721098673 3.104165260863836
Rh 5.387360613369524 10.208715421769842 9.042179886685881
Rh 2.4715073681452067 7.258561131495296 7.731356401027891
Rh 1.0801521186218672 6.221784054803029 6.004397984971544
Rh 6.120713301893398 7.864614043367515 2.9669198789382074
Rh 3.190760001977498 7.549772505014041 5.282170242982198
Rh 7.64612557840859 9.095107605439297 4.660931673963616
Rh 4.802536488570733 9.49155225235731 4.655776441421346
Rh 6.346899319616886 9.785654820406329 6.744926393027841
Rh 3.7715245547551817 9.397547850579407 7.062984824672946
