41
Energy = -239.41044969 eV
Rh 9.95805255229324 6.606631027812073 4.5127981322068
Rh 9.847384321541343 6.057992990726883 7.093315425558771
Rh 10.155622655578764 3.6123025443887244 7.759202816189898
Rh 10.156200513495495 4.114223898210189 5.256273058167698
Rh 9.215933426460076 4.84259172028264 2.8288407439713703
Rh 8.216688339316677 7.744244786830611 5.948425745908309
Rh 8.263281770832204 9.428295680351757 4.059885875169771
Rh 8.971502801154115 5.258854989428313 9.57641783811604
Rh 7.835978341116396 7.038726339839772 3.0407349426377555
Rh 8.15280276204384 7.429702925978011 8.398020234902217
Rh 8.19837847506234 2.5990955870814187 6.477807158505622
Rh 7.896101822640228 5.237798917998071 5.142663532136013
Rh 8.2956468045124 2.509220033538731 9.02972304353483
Rh 6.8008432494081275 9.855776795199438 6.34861360117094
Rh 8.1475494775885 2.882035536262219 4.0097445546326025
Rh 7.661439632509269 4.804029821586803 7.629041614907382
Rh 6.556348532117943 9.062726090633946 2.1451888600807045
Rh 5.1764586954143414 6.794001809586526 2.547503488845073
Rh 5.795357694707629 10.772900689262702 4.172543667521197
Rh 6.058897282221884 8.236772864865305 4.527538566632188
Rh 6.396359758135113 3.8342350754771513 9.934261018995622
Rh 5.187923988504844 5.044881311913298 7.4397722860058275
Rh 6.530893967405967 4.7189382531133255 3.0146989743215302
Rh 6.263883203331519 6.247805460527452 9.506775016436013
Rh 4.102789217763595 9.216337494969595 3.038492764388501
Rh 5.435254330772318 5.99381250775078 5.117595662931639
Rh 5.819371028636124 7.79765473770885 7.419091076237743
Rh 5.901679362740892 2.6049936359375736 7.734883996569995
Rh 5.944140082758441 3.3877044318363922 5.228787048053631
Rh 4.228036534842632 9.442749596063443 5.730849172536983
Rh 3.1401783413500617 7.159721034434173 4.114439740496371
Rh 3.5344747136329535 6.832481278978967 6.572528699582465
Rh 3.6507163052327987 3.4847082897912176 6.325717428308704
Rh 3.9580493012430287 3.6424769694573027 9.205685187533346
Rh 3.9110583092403637 4.5695717980310695 3.920980328841557
Rh 3.3409622498894938 8.834590169850053 8.02489556868692
Rh 3.768816973994525 6.379995945460068 9.087915076295978
Rh 1.7985232132300961 8.507178479168482 5.867399050617776
Rh 2.0008323101577883 5.271766324341181 5.499823694382104
Rh 2.0489015222744715 4.663188211084276 8.021557869928392
Rh 1.404169468141093 7.073228286297865 8.02256864733571
