48
Energy = -286.32822478 eV
Rh 7.3489621940570915 1.9954412576513372 6.675798277426498
Rh 9.732668025251073 2.566428713437051 5.715174505725772
Rh 7.925777032110919 3.503794742242825 4.249161037949608
Rh 5.527305643143764 2.7801623065896135 4.844044155092584
Rh 6.821969502756445 3.075071995665841 9.080694026660275
Rh 9.020873825323918 3.6575655110316267 7.931253876730494
Rh 6.806589696590659 4.39319500554405 6.610282220435939
Rh 6.2433337822968 3.7636706895983396 2.351841592391697
Rh 4.87778111776621 2.8843303909964866 7.347228017185447
Rh 4.345592930860236 3.4304593090204496 9.867384265633289
Rh 9.295505557042915 5.039386118473618 5.888549903521948
Rh 8.079807115366647 5.369722920394665 9.569964918262952
Rh 3.597762667440473 4.293561591857462 5.599148064395997
Rh 6.201747170877137 4.786312520745968 11.15042709429289
Rh 10.199223885692154 4.665696364312867 3.6462734701894233
Rh 9.912232746680536 6.294830435667515 8.00267128415815
Rh 3.9467665683752338 4.437586480264285 3.11085262927345
Rh 8.048402832444246 5.514015327290517 2.5757544646640573
Rh 5.648498446029832 5.4059670639713175 8.749574824300348
Rh 6.034499409054242 5.417190301462531 4.377055134979303
Rh 7.435630537032034 6.761474649140579 7.274223669396806
Rh 6.02531418822385 8.250944511992767 5.394009999272994
Rh 5.587637407009064 6.455880356678214 2.189667510535327
Rh 3.1772167839914514 4.834788918044446 8.101269995133995
Rh 3.8486891978759568 6.799810193540133 4.146001196472512
Rh 8.116934083981679 7.012607432391727 4.721765173985958
Rh 3.9088302913883277 6.028760666763963 10.428443585580162
Rh 10.658319058239272 7.0774983632112125 5.238489252277908
Rh 6.269861734646567 7.312881794710554 10.398128171707606
Rh 5.258165290759702 8.836517957095914 3.177814649790106
Rh 4.885586670204791 6.238940077489517 6.534540580612629
Rh 9.10170368027478 8.543390981938268 6.699139509755404
Rh 8.491959253649116 7.987075698681796 9.23957422108651
Rh 7.568473417099043 8.09398113149129 2.521005610841909
Rh 7.510111631017695 10.169997062108855 5.488035281958555
Rh 3.1151290339502333 7.39359500017334 8.327201836986378
Rh 5.516961353884854 8.348270082567684 8.054374990468066
Rh 9.978465374160727 7.069394707192918 2.727305416794729
Rh 9.41049088118088 9.175973325100571 4.109959842653603
Rh 2.1628375790137664 6.324510214465897 6.182114673633302
Rh 7.124890739734909 10.510154794159632 3.0996426924079428
Rh 4.075667084871637 8.64959601263484 10.289431276334767
Rh 3.5325328823644275 8.553721685686922 6.019320706219643
Rh 7.4185166486877545 10.017309948109954 8.00760472095572
Rh 7.04918228842585 9.64127828051124 10.607283906135642
Rh 3.080346278463646 9.93959435069422 8.216483122578875
Rh 5.135831222829849 10.474857483676328 6.623955515592864
Rh 5.292821992380439 10.693313675197963 9.213819639733808
