40
Energy = -234.06300638 eV
Rh 6.23573258531534 6.588197912524748 0.623905495806171
Rh 4.005787853706587 2.6715872862766687 1.5266689705875245
Rh 2.5467933406116687 4.908119763035935 1.7817631002024763
Rh 7.818672401563055 5.150897402089094 2.1249074955784892
Rh 6.541870880747878 2.7678800065715228 2.11451940770654
Rh 4.503638052411059 7.3651500686919 2.2444153233368294
Rh 1.666851627548626 7.182932338681868 2.7827076207506503
Rh 5.096210173784481 4.854866335850853 2.104850158554815
Rh 7.1667006010805885 7.528749112921158 2.7408906449313566
Rh 2.2371402507115126 2.756807452969671 3.2540445296917433
Rh 0.36722823807221716 2.6961079545435807 4.986670536646701
Rh 9.292604685230335 6.5352132043405815 3.6091778888408697
Rh 4.893481387394114 1.2987965599527667 3.652216761990313
Rh 3.432197370641091 5.823300638665392 3.994911184475119
Rh 9.152868922007574 3.9960558887092725 4.349070583060515
Rh 2.8186994542548285 1.7910488974562098 5.712822631654182
Rh 7.286801042735367 1.8782782876932804 4.4694390884800415
Rh 6.664686131719961 4.290726079428738 4.144529636540365
Rh 7.662028722389656 8.384336351700298 5.154497992432477
Rh 5.635140548388034 6.912780360440488 4.604096057717332
Rh 3.377689590377633 8.3304287319172 4.432439570302544
Rh 2.3166632746390334 4.296254149650545 5.681244707038944
Rh 1.4547708098148295 6.814519376788259 5.449408497957452
Rh 1.1350946770803065 2.947347392880235 7.484769476310441
Rh 9.707249020622662 4.939104913676535 6.226497103874994
Rh 5.391388759676207 2.081688273275062 6.23042356572424
Rh 6.202240951562549 7.316275289182067 7.094586534068518
Rh 9.707249020622662 4.9397408094140225 7.058978216791855
Rh 4.349772423024944 3.5185546792607005 4.382907398520691
Rh 7.927518850505866 5.940988717834762 5.571988750781948
Rh 0.7894587128275017 4.918773998601405 3.7028995490308527
Rh 8.788571229019484 7.3733377604356924 7.463822450366317
Rh 7.736723310478054 3.40813190818898 6.464824750080224
Rh 5.413590065741767 4.790363415081676 6.362630913928518
Rh 3.782368147306796 6.795090865387557 6.5014985109177
Rh 3.594997190528967 3.376153510626446 7.752086713844575
Rh 2.011631895441327 5.528699248937778 7.860738238574117
Rh 4.711561549461533 5.669266585175647 8.639546659330083
Rh 7.426035363089542 5.339064636014032 8.187275610222764
Rh 5.98638226682619 3.2906699001683406 8.471613738389877
