44
Energy = -259.56408829 eV
Rh 4.7356800698758414 5.389787445821689 0.11317561258545494
Rh 2.3702680931732036 4.644809898119351 0.686884338577993
Rh 2.9277944278461523 7.14524850295853 1.145223108277061
Rh 6.873170378445787 3.0384717683079323 0.34196344667704953
Rh 7.316673648377494 5.8253400333187235 0.23447870809636046
Rh 4.3343918069901655 2.9860995958714978 1.1873858295538586
Rh 5.600463719259349 7.175840421536711 1.7755663415809844
Rh 3.7885979905675677 5.457848205692954 2.803777707052744
Rh 1.2602646049369353 5.661185033203626 2.8943154460939966
Rh 7.974901063252001 6.244647504769385 2.7546549329129726
Rh 2.2728417099461296 3.2260424114783537 2.8077575694411925
Rh 6.144372788455983 4.609207343113715 2.068883374536093
Rh 6.380366399854763 1.8752681168089793 2.6302763923331756
Rh 3.7590922232883566 1.109233514698463 2.989819441996947
Rh 7.025208290035209 8.572028947373191 3.3792840680110876
Rh 2.683401558176422 7.568349864771632 3.763419133932674
Rh 8.3435399211492 3.578633225432295 2.5926121100276243
Rh 4.7140906753211045 3.2994942383768184 3.808963922797242
Rh 0.9233636334355951 3.9506519578145802 4.768209652759761
Rh 5.167910724627194 7.23451377475426 4.2724071062175195
Rh 9.145813878331417 4.837527843463787 4.654229494950952
Rh 3.3985483417036857 4.924792567249367 5.349803392475548
Rh 6.578054837383998 4.881727890312616 4.52715221779148
Rh 7.622917944570359 2.68713702169889 5.011616487831686
Rh 7.775981465719443 7.040923110960997 5.32065395977403
Rh 2.9270255330267942 2.2610454275854424 5.312307158568728
Rh 1.3026974554544009 6.335976302275694 5.670336958879683
Rh 5.3428285449807555 3.256833536253506 6.319494044510084
Rh 5.463343404644029 1.1054906287100306 4.928387390859222
Rh 5.896617363142276 8.554781454887639 6.397920151095791
Rh 1.6753333298074926 3.9803509059836983 7.101317137364635
Rh 7.772588991972988 4.711569395665437 6.844367742307245
Rh 3.4580846625672237 2.172052175063254 7.810148464432002
Rh 3.4745499886004194 7.507364336684025 6.224543501740817
Rh 5.528485342650167 5.990768416514131 6.5315488920972005
Rh 6.811434481497097 2.737358985456118 8.238767887284714
Rh 3.9803944856760567 4.667487708193112 7.989009069875708
Rh 7.3965141899024545 7.154707944492186 7.934354806879855
Rh 2.265827233693811 6.413252637442855 8.204279160454792
Rh 2.3038922653073537 3.7220481154311793 9.604203335805177
Rh 4.795702224542816 7.326424886898696 8.539919062463758
Rh 6.306819783822068 5.114280487376497 9.01345550397456
Rh 4.888223034272202 3.1194903336241535 9.822586312024272
Rh 3.9895980225108527 5.601576616347973 10.328210155890877
