47
Energy = -280.46469195 eV
Rh 4.540996954517526 2.8595386402964644 8.51100809572805
Rh 5.619626290361652 3.0448398788399618 6.158107656896792
Rh 3.152361242463383 2.496933338786586 6.320627760434913
Rh 8.175335006059559 2.9944928471691252 6.020376434249277
Rh 9.568836428983417 2.2804457110148832 7.984989223182455
Rh 8.191218768292538 3.500572695040574 9.710742180233897
Rh 5.876119049927357 4.3813162999322515 10.546486208832523
Rh 6.963840682546634 1.9662915232756248 8.088617396479874
Rh 2.1441455224290604 4.060329228610157 8.019168500317221
Rh 4.156114077790762 3.7269481602653753 4.265015273378029
Rh 4.070524220845227 5.353922355391791 8.895084122303615
Rh 6.707978281244265 3.651021575908658 3.9057911685020903
Rh 4.664405929977194 5.508719470071469 6.276482379157113
Rh 9.077699360719658 4.532050285274707 4.0199719297801
Rh 2.1299367085841796 4.673462372352514 5.484642395821505
Rh 10.645827286904929 3.8224535743839225 5.971421914534468
Rh 5.454772262350537 6.8687327744390085 10.527596921210758
Rh 9.102386572700501 4.821440256911374 7.705055109755739
Rh 7.287813045442541 5.470084854528931 5.805065065007977
Rh 7.793439128503648 6.031605386921599 9.679144320305292
Rh 6.452294626342376 4.526785123689621 8.05816718756807
Rh 2.5102694497499862 6.560686923298273 7.172782906483028
Rh 4.926640218849073 4.405118811243751 1.9864306074123181
Rh 8.444970067593491 7.302922350451302 7.511510404130249
Rh 5.890202590160475 7.13486249942731 7.979079805754621
Rh 2.5383909049155684 5.031198233477894 2.8277153846294913
Rh 3.6606925420945235 7.958329085009982 8.978223253374862
Rh 7.401001846838971 5.324868702031537 2.1009426764513193
Rh 5.1284452885928555 9.337504478148789 10.656840549802471
Rh 5.627210824804756 6.103429378444984 3.8939899507555853
Rh 9.94878171765543 6.26433825725978 5.702144948243988
Rh 3.1874266899157515 6.838435273098057 4.579826666605175
Rh 3.207178904543037 5.369887817700578 0.37524893761794914
Rh 7.333080252443209 8.583104610792864 9.5454416824095
Rh 6.671573834103695 7.985958965158747 5.649926016243054
Rh 4.202528731082922 8.363279227610638 6.3809220039436605
Rh 8.30276555938826 7.0053915718053155 3.8072912685306655
Rh 5.633545242483137 6.1815787395428226 0.3435471252927508
Rh 5.381640671251716 9.767832983678433 8.21349079800241
Rh 7.744575107302434 9.805170211357192 7.336586114354039
Rh 3.998578590707437 7.054057892335862 2.1194370043185424
Rh 6.4988104918666965 7.803599893305001 2.0827878220777585
Rh 4.832851134169948 8.733818411623151 3.8980217318918906
Rh 9.20335241335579 8.762647180657225 5.4606630084959455
Rh 5.754974606167521 10.41643133986097 5.740853830980112
Rh 7.397064877264802 9.489422417177712 3.712521951560037
Rh 8.17301223506522 11.217273499554661 5.364522225604866
