41
Energy = -242.7994329 eV
Rh 1.999701022652433 5.145910821130639 8.002178837479516
Rh 2.391430047204713 7.603045124364153 8.460715719515244
Rh 2.0892311293039394 9.247919508768382 6.4751964161863445
Rh 1.7373624111851589 6.756501492873181 5.966689903445671
Rh 4.298851265873841 4.796159319373028 9.08892514706069
Rh 4.7363876259595505 7.280042405131894 9.448090964524685
Rh 1.5690976665988716 4.212634822351138 5.590887487361146
Rh 6.464961051006082 4.37016967326701 10.322151000825563
Rh 4.165706127136162 10.57499041786802 5.512210922020158
Rh 4.436584459993133 8.987179571885765 7.500343699587787
Rh 3.825070221250918 3.7358323867521026 6.704659867961782
Rh 4.1160872766009895 6.368731785899893 6.988900154179294
Rh 7.077264092037062 6.777134824846542 10.401126791450018
Rh 3.7788869045647164 8.085185116020186 4.973791025420205
Rh 6.48510080765264 10.227175176383216 6.537576955784976
Rh 3.5620708550258264 5.441377415911996 4.552956235333563
Rh 6.031823447484207 3.2522546489286834 7.9250003811373215
Rh 6.55193505587273 5.879004408315871 8.019581847870143
Rh 6.866344630688201 8.474216080125071 8.447132374097572
Rh 3.4219805523363287 2.892592797637277 4.290909019762539
Rh 6.196842898409526 7.647244957564667 6.0307905425744055
Rh 8.971999461193512 6.774519333170413 8.450220653469527
Rh 5.834518492559635 9.347594663565614 4.0376008313843155
Rh 5.933348195859518 5.0267229535328015 5.615639772270393
Rh 8.593237054473885 8.691581701781754 6.550657884803135
Rh 8.353550652917114 4.156800862284786 8.618766940269891
Rh 5.6795391811083835 2.473254553764792 5.405937710673801
Rh 5.590036069131841 6.764893917393951 3.5786562856885835
Rh 8.149756182628083 10.35652999791873 4.631236656352059
Rh 7.939818624473022 3.4379083304079714 6.1885249489961245
Rh 5.474553974839845 4.0897451758575505 3.2608938819715148
Rh 8.342694701873542 6.1011266189241375 5.99715139453645
Rh 10.695095681174125 7.115961650533498 6.481893579250509
Rh 7.942711338454991 7.854753182874116 4.030029942047368
Rh 10.17827062175982 4.69751157460734 7.034573031119161
Rh 7.75324296086317 5.24590251862384 3.634694470309891
Rh 7.6350661688673815 2.6858042557588346 3.768800273313674
Rh 10.258462976096183 8.824904144366968 4.60744893641679
Rh 9.836690411589952 3.893859949920116 4.5144075992400925
Rh 10.038057743409926 6.3690319117961485 4.00011925465573
Rh 11.88963989622189 5.188425282753095 5.210525532060888
