44
Energy = -260.14639268 eV
Rh 2.384454204625421 5.433592966422972 2.349050704144232
Rh 2.6705321003853837 6.8336884765090975 6.335837258425833
Rh 4.703078371048174 4.291460046110489 2.897123791978463
Rh 3.0398224810636747 4.856436860450612 4.734639278722853
Rh 2.9712301568970756 8.87581406084415 7.801879569152206
Rh 4.299554670819199 5.905485595205923 0.9087111526531337
Rh 2.814203124416252 7.3775677476737815 3.746350331051953
Rh 3.687178348890346 6.486939055621284 8.71323980232324
Rh 4.831261022386203 3.0956440091144963 5.296648143552854
Rh 5.062389184546547 6.382009099797924 4.4240338837236415
Rh 2.5217277330292287 9.2550256051002 5.391424719177784
Rh 3.4001575868961442 4.452102251091992 7.174136064474867
Rh 6.872470415015164 4.42424188604766 4.312024229337158
Rh 4.92022691548469 8.741238449642516 9.324368055036222
Rh 5.505408755436756 6.55140945781268 10.493501566412823
Rh 6.568693210065856 5.963546512706426 2.2254580989561097
Rh 4.785869723428522 7.890671885243752 2.2682849568295484
Rh 4.9561999405715085 2.282912660788477 7.770592997037679
Rh 5.115220186539965 7.547389248092828 6.870089297712882
Rh 5.173410052494613 10.180244626532486 7.1458828192625115
Rh 5.7515639286278475 5.012490407665618 6.5738131751861095
Rh 5.357482792201195 4.497342090654779 8.994143582203494
Rh 4.898068655648032 9.028798026083898 4.746206365770545
Rh 6.995688017117934 8.11839114004878 3.5818657110466847
Rh 7.017811947490369 6.472357706366667 8.312156763796912
Rh 7.189301183733793 2.9813108675317355 6.5977369207724355
Rh 7.070335381308873 2.7653681257169387 9.157090468671889
Rh 7.113489785710606 8.462367788541192 10.861818721378736
Rh 7.494687885594902 6.760023530816422 5.756538496208245
Rh 7.277163172709371 8.965251056652683 8.382075460712496
Rh 8.636694912505531 4.4392461350058525 8.193839900637323
Rh 8.037969177388481 6.0263032028023895 10.568138600701328
Rh 7.2169066662657615 9.349079969993918 5.857713982392926
Rh 8.751314457934257 6.097576858432674 3.5608329765038627
Rh 9.600156373182998 6.661786713492835 7.2555028798422745
Rh 9.287710853650276 8.378877002332706 4.70731926101449
Rh 9.014530784825526 4.656668672301398 5.714357735535958
Rh 8.906415498095775 3.7440409864317155 10.608915848232954
Rh 9.298588896343855 8.027609678158756 9.587244060429096
Rh 10.439764497255343 5.7239727590549965 9.471284024756525
Rh 11.679206670341214 8.585873104591032 5.90089510878012
Rh 9.494364991736179 9.199719092410707 7.134493601237124
Rh 11.456677071362472 7.925617036174705 8.304155082485138
Rh 10.841304680833971 6.402794013832685 5.098871017642652
