49
Energy = -292.78436407 eV
Rh 5.365186393530385 4.2965495329945345 10.155790929133701
Rh 2.791548476133211 4.811566845103371 0.16394456573150634
Rh 4.082856323293843 7.139243961368658 0.41894278179178207
Rh 7.052098315246562 5.841803457864647 1.256546427575035
Rh 6.161607002113163 8.276552127592126 1.2625337393177651
Rh 4.026270381224099 2.687716012508146 1.1798534928815958
Rh 2.290775290724625 6.377829122846039 2.1856519732240574
Rh 6.552957138256251 3.2356371808665716 1.7418154489176012
Rh 1.4381025842500765 3.81752138182787 2.1062942384462966
Rh 5.905063245891518 6.892492546369046 3.3568458331319007
Rh 3.9238720521008092 8.35720625040137 2.6910201208531936
Rh 4.628420438364379 5.208319581626849 1.856517343806658
Rh 8.259494126668871 7.364122616462347 3.6734960341604426
Rh 8.246366196406218 4.802824119272968 3.2361487075643733
Rh 2.60940804414907 1.2525911088948702 2.846368413598004
Rh 5.098926687724186 1.6803689657765182 3.463750125849676
Rh 6.271380548002275 9.320204298399613 3.7310808044260653
Rh 3.371799937792616 3.51415127171067 3.5346771669942076
Rh 7.537684388029604 2.28733531223384 3.96098548404152
Rh 1.3387885045445933 5.1824975423076705 4.364646451768099
Rh 2.0548785673165137 7.717018020223633 4.4854938808724345
Rh 5.884311338656211 4.316905373798294 3.9067573685370625
Rh 9.47742421039188 3.7149834196297595 5.161533275057238
Rh 1.1461387998574974 2.6615768511760383 4.5398338426302995
Rh 3.7360388413706787 5.901436773078616 4.389851097682657
Rh 1.0512378023652438 6.330975442271339 6.554408205955166
Rh 4.423372164532153 3.8205505576837995 5.8640243632734474
Rh 8.41722871420071 5.964552078887973 5.748463974629474
Rh 7.055241660944067 3.730055598360575 6.129307801805601
Rh 3.3356996025654593 1.5365240163687548 5.461929035946675
Rh 2.6562341924126427 8.373646320815768 6.941495914128343
Rh 2.0752031390242625 3.729540832240328 6.70158466344549
Rh 5.891806949045166 1.4793243297416219 5.945874911564252
Rh 7.108193639387098 8.220641861079145 5.992166542388714
Rh 4.538663149146593 8.373119582987265 5.275619566590172
Rh 8.442100979807796 1.6790795160874836 6.480418839691445
Rh 5.876454697393751 6.0623937310806415 5.8747040549966405
Rh 3.472666924125354 5.9956827044513785 6.986269530996017
Rh 8.836583391054589 4.233406229295992 7.72197425384623
Rh 5.4691038840117185 4.58598478105832 8.079727479053464
Rh 3.015484267877687 7.0767977325781315 9.20350490057406
Rh 4.1762288425701515 2.27983299301907 7.84815927035028
Rh 7.297286417630752 6.456221945911898 8.090159054112931
Rh 6.789867138663874 2.344185205578338 8.345096729294227
Rh 5.109965882984755 7.830052111182041 7.841557492260862
Rh 3.0574551117158575 4.453937354789511 9.023970232152772
Rh 7.362807869251937 4.513134703208491 9.811787969752967
Rh 5.309245399209115 6.19869932816287 9.891091870701274
Rh 5.103276427179793 3.1960134479650484 10.155790929133701
