45
Energy = -31.75278837 eV
Rh 6.780267489251463 10.512138182577182 4.910769471844366
Rh 9.145863508248627 10.585616425576953 5.840307066159406
Rh 8.749307245287921 9.311344280121327 3.680839496500898
Rh 4.9470867229542845 11.39571930593403 6.427086466759315
Rh 7.1773128648105695 10.370983642082374 7.602633794333569
Rh 4.397595517279204 9.53784848953424 4.695344401560567
Rh 6.415089430820249 8.286462743840609 3.618563994636926
Rh 4.048774172552005 7.425083049898024 3.0746732151889997
Rh 10.259214200382974 8.075201110181569 5.27761396765989
Rh 8.524141384375168 6.66953643690172 3.771093123882803
Rh 4.828914318257582 10.969235181168633 8.859449474465524
Rh 7.64029568048888 7.893082578396793 6.2409028443662455
Rh 7.4489027142031485 5.29647491940758 5.707328610477976
Rh 9.783231328145503 9.011598509579523 7.662536696243459
Rh 5.30524819169898 8.48120668173114 7.348790437099644
Rh 2.9632322947316023 9.784359838726484 6.858123176923787
Rh 6.124569658919049 5.779090905014558 3.0730741396891412
Rh 5.196395122241859 6.67124221310032 5.62405439814638
Rh 2.4750795205602487 7.903428038709909 5.091108865905211
Rh 7.786990269681806 8.165410468557841 9.111549972380514
Rh 3.6915474670900723 4.921380286364895 3.310310274722215
Rh 11.286178555624446 6.805633873193125 7.174580718005152
Rh 7.303313872138811 3.599681858267985 3.363344934224341
Rh 10.485567242675982 5.529120600592769 4.976605759785125
Rh 11.472449674254111 5.563081159460868 9.396862835283232
Rh 10.552645265886607 7.889674721977017 9.75890923313348
Rh 2.664764825878432 5.427049780287139 5.582450850774917
Rh 9.369510405284165 3.227805941460845 4.984586616398946
Rh 2.6008294732678796 7.206638108752765 7.580765851676529
Rh 4.823555252462568 3.886928627212891 5.42472553754106
Rh 6.29306848724989 6.18433639946056 7.970628543778686
Rh 6.540743179451106 6.512268988049034 10.804147704420844
Rh 8.808653295028048 5.917725816846378 7.832761941884416
Rh 3.135291927472113 9.10651341217349 9.274486325405654
Rh 6.935199742141497 2.420500918085285 5.549921822477129
Rh 5.537611798601989 8.864006452819524 10.197078271279896
Rh 10.847522473305983 4.1668199838556585 7.127532587049748
Rh 9.115735336751356 6.048134541914282 10.719348542323416
Rh 8.511827428492808 2.994432275869413 7.526035167529746
Rh 7.561487120227576 4.216916891407906 9.74236367212803
Rh 4.060451678298107 6.751933962233131 9.722092304626038
Rh 3.8726911577624987 4.951163361803268 7.767682542761091
Rh 5.096501512684147 4.434819663181511 10.022433027711335
Rh 5.9692598961388565 3.352104675098519 7.784333875166033
Rh 10.049575949741701 3.5866027505262115 9.527191896243954
