40
Energy = -234.31483876 eV
Rh 4.432457738245358 5.096681295676551 9.611625466097083
Rh 6.003146694027926 3.405681743306151 1.0537392235469198
Rh 6.284348205434933 6.391102050682757 1.026675582950763
Rh 3.371265901087465 2.991869177737721 0.8115226847908495
Rh 1.9960250098526584 5.384946160662957 1.513589492660119
Rh 3.768064517066015 7.255414298844343 1.095746330005301
Rh 7.642407036009428 2.384050211292584 2.8024868007520447
Rh 4.354991734401644 5.015483789118871 2.065350748857257
Rh 7.989886475024143 4.7444779250176845 1.9610314324924665
Rh 1.0414906817521308 3.0841415252253674 2.062359195334049
Rh 3.1603577457324845 3.0376664556366246 3.3911781940483876
Rh 4.830498318680175 8.334438517271249 3.0964028286342633
Rh 4.9772961131080224 1.5141787633775274 2.4360412154204645
Rh 1.3206475780999198 4.807225234021804 3.9657770002851316
Rh 5.742661963630661 3.540459206611701 3.7974670599164067
Rh 3.0594482974610093 0.5666505244327054 3.8660358092628218
Rh 2.57615308524543 7.137300253884483 3.4348254478328912
Rh 8.248788897452556 7.066611577855231 2.8854331969030667
Rh 6.033747006042342 6.275368416875829 3.5594574035543394
Rh 8.107493070110467 4.754099533929836 4.459100895948957
Rh 1.1818765380588119 2.2402635993987023 4.681805379308677
Rh 3.768197474616726 5.306030700786075 4.528410055795696
Rh 7.422699225843317 7.191896201848427 5.553486485438611
Rh 5.350791428709732 1.1004069848385494 5.0317796863675746
Rh 4.622388026668209 7.489820501645219 5.608615879268816
Rh 2.0271546521305686 6.553707112033992 5.961799026606794
Rh 5.981745464404123 5.109840086015734 5.828220999388195
Rh 7.041637868084615 2.8365371041466494 6.067651662134708
Rh 1.776425566484006 3.8877637560775864 6.446893074259613
Rh 4.195348803001191 3.136937313322789 5.862204724249155
Rh 2.9280257897024717 1.1761585005733504 6.349095105954852
Rh 8.0729693305667 5.185676590474634 7.15990367975337
Rh 3.8816800904114666 5.32123203597945 7.1855849024561245
Rh 3.5403783558378845 7.6288622680339016 8.05184125857392
Rh 5.989547477307645 6.720329915529584 7.845277745520213
Rh 5.284774775866694 1.5633224470460632 7.608152597103005
Rh 5.90994490032981 4.008468713940494 8.186688489372337
Rh 1.7944994566001682 5.4357391696954 8.463716591736846
Rh 3.3870089356726956 3.1580493756697967 8.45128885795294
Rh 4.284431434429638 5.543812624674006 9.611625466097083
