46
Energy = -272.20705692 eV
Rh 7.510894586452493 5.885186126938414 4.1508102955094115
Rh 5.447143769121332 6.112176086754095 2.6665884523877206
Rh 3.1512848435339693 2.8290446027813783 4.539233838091973
Rh 8.961984270329049 5.585806536481046 6.516082593345326
Rh 7.656540499240008 3.3611553694528222 3.3074572364048436
Rh 6.831680164949094 1.3941825256359 1.6985045232053362
Rh 3.254152314734894 4.542361688976471 8.792679119713629
Rh 5.490684181345803 7.720197272088613 7.579445862313013
Rh 3.725485028720736 4.981822791417093 6.384694546821276
Rh 7.783160794905006 4.3647080187171685 8.435504569755391
Rh 5.343699418524015 2.0033494821947095 5.768794987760299
Rh 3.25282893578672 2.5058564612920113 7.154740946020704
Rh 1.1955368445985777 7.014218267442309 4.86907776762892
Rh 0.9356632907762121 5.53929827828838 2.725591038462016
Rh 3.2511582382671884 8.293160075351082 3.988182520187657
Rh 5.414766509342489 4.188919625954686 4.519573387040317
Rh 5.628108419322163 5.694335356936137 9.151916225419553
Rh 4.548974396337831 5.327612889744818 0.43902035598239453
Rh 5.486371622733848 3.3958696662116257 7.8840647584615455
Rh 7.605787626722194 3.3283071710135705 5.974929036286963
Rh 7.166812230748619 4.943366798207028 1.314742436164002
Rh 7.201135331399791 1.166628960219145 4.32489533176871
Rh 2.4925438326410565 1.387088475706284 2.4522133157608024
Rh 1.9157360418304314 5.497955425024101 0.27767218669630517
Rh 7.882826011758783 6.94420908720714 8.450111542367875
Rh 5.7412986968635265 3.213274371653676 9.151916225419553
Rh 5.384556958140217 3.3802642002078223 2.064098301154583
Rh 1.4256415038033543 5.980926112398868 7.584770428964619
Rh 3.1268104889881254 3.289284403216938 9.205283136908292
Rh 1.9592889241000648 1.128165464284968 0.04773281077443716
Rh 4.449062613648654 1.31864005408017 0.720885748994018
Rh 4.857142897867411 1.2238769332090007 3.352857656216071
Rh 3.4220120570547494 7.06653410771022 8.953525091721957
Rh 3.177066127076662 5.545807785767493 3.9905598949250773
Rh 9.547853019220128 4.315481022683001 4.530174065296731
Rh 0.7508193235918547 3.264583510068231 0.8984918885303321
Rh 2.923293187011906 3.829855745793452 2.0790030955537655
Rh 5.257846444802948 7.09381741998857 4.953277907102094
Rh 6.3069049916465465 5.470758484966514 6.652747432237876
Rh 1.0648186224532685 1.9811213705059194 5.736866311364273
Rh 3.1284476766529545 6.959393278567731 1.909979244578342
Rh 1.0105291717000142 3.498884335829429 7.830182259487002
Rh 3.1585933958852874 7.45696107200296 6.486496289226098
Rh 0.7456706798460352 3.0106408006380727 3.452467430426988
Rh 1.1897040666232543 4.5543285866492935 5.461464707241945
Rh 7.513118719496549 7.686022670336825 6.020982721861301
