43
Energy = -254.18618194 eV
Rh 2.5787941603040125 7.047816671020045 5.033120286970691
Rh 4.061789496338424 8.702161131705681 6.375466309474293
Rh 3.544441037292552 9.187710263673713 3.9398876020375226
Rh 3.187019884294275 6.831480599231149 8.000361097010533
Rh 5.87153656706732 10.419046913591185 7.1500756589980705
Rh 3.2643981062718277 6.955650478394932 2.5458928009846256
Rh 4.6619152043050045 5.910764547757004 6.134105934296216
Rh 4.586629592679908 8.805506618575144 8.844356449982378
Rh 2.2805917119726047 4.9047027124968325 6.341305659332271
Rh 3.65311641592715 4.908924406051902 3.994220704723214
Rh 2.8907657621343303 4.416478067840847 8.782162004438455
Rh 6.4721373659716495 7.800232504788694 6.363937490819461
Rh 4.1464775302837635 5.9373597229818 10.317226177512888
Rh 5.956909775986788 9.777564653795096 4.738941506180221
Rh 5.286290070097543 7.274838423383134 3.950065466716229
Rh 7.122971272464176 8.804112976867764 8.595018921524971
Rh 2.271597801442833 2.469130171205931 7.389676613504905
Rh 5.663113855793869 9.152090943448519 2.3181511971911464
Rh 5.751358776421962 6.571733998579395 8.559352618741503
Rh 5.493758015016432 5.235043777451471 2.3037521239715426
Rh 8.318430682937223 9.494413593206056 6.112809369523263
Rh 4.132908001202946 3.1364325827077253 5.779096705329283
Rh 7.175231103457809 5.333352670224374 6.69792031427357
Rh 9.191280419351969 6.983579983765783 6.501191193753386
Rh 5.161412787685158 4.094204601076535 7.890213080563436
Rh 8.035133422445286 8.990686222079619 3.5558343353432473
Rh 7.089566408490039 7.075377753584152 1.9286156127823577
Rh 9.570946342949773 8.675114944018077 8.242855778992002
Rh 4.594335092075161 1.6709880900230383 7.887784710545723
Rh 7.686457107534762 6.654958453108838 4.403890004507182
Rh 6.165595495755516 4.217448021736033 4.552542428278016
Rh 8.369857706542888 6.446779929062448 8.827075606955876
Rh 6.673383425601872 2.5666431497130784 6.520582569070509
Rh 4.6395956768804005 3.2772335219204902 10.245250320585715
Rh 8.53563201537455 3.787396139543953 8.123295856040386
Rh 6.79427472684914 4.646265036483958 9.828475991427254
Rh 10.245285049842423 8.368570597389654 4.692602401507531
Rh 9.519206435402108 7.113398176106257 2.518788210171172
Rh 6.788668961820106 2.211742835862859 9.124331321157179
Rh 10.431789397786348 4.871372689513367 6.961926356196314
Rh 8.667619649034247 3.779220814484312 5.435529442984053
Rh 8.152198294543242 4.725859331954762 2.9777459483289634
Rh 10.157179143627268 5.6872317946029405 4.51755079515271
