44
Energy = -258.46780011 eV
Rh 9.148295737430656 3.5036968890059548 6.174083757985742
Rh 6.907247323240675 2.5911643986091444 7.130571376742331
Rh 7.058286351770609 3.552376760272155 4.829680316118162
Rh 5.478488456815556 2.864649650363573 3.079121230971612
Rh 8.17473021474035 4.783578498577417 8.06893373834994
Rh 8.790146536516565 5.4138409883258065 4.470605725477514
Rh 5.6682349903498315 1.1471418235983795 8.630063937571355
Rh 10.12656256006439 5.947026850180518 6.616441914628119
Rh 7.206247227726396 4.744692524769734 2.4557022996121174
Rh 5.048016900593035 4.303238981765748 1.070473315697864
Rh 4.671202032306313 3.4276839174081313 8.45179510617969
Rh 6.921993349744602 3.0860899449110852 9.629364739799204
Rh 10.427275335966831 5.274892647613572 9.125729229322262
Rh 4.532273207222007 3.450779411716979 5.4845427215824465
Rh 5.940748864524544 5.0508825849244285 6.865001977383671
Rh 7.624950909922538 7.300861857317739 3.0942194706422153
Rh 9.57707697367282 7.822810069481254 4.854384777617458
Rh 3.8942548741980763 4.798464082058031 3.3342151616554374
Rh 8.292328382394846 4.957558769564386 10.606126695664814
Rh 5.4623421056215085 6.600027033165962 1.9592886414676043
Rh 5.936278993243704 5.85625828854198 4.41179710654764
Rh 7.697814262559265 6.844970120576111 6.303618802481817
Rh 4.013204572910492 7.465281536836953 3.856792571422753
Rh 3.093004715330112 5.715229536171895 5.493029179237294
Rh 9.880267230444712 6.931679925212341 10.918566102148452
Rh 2.6279023666947454 3.8625382685965013 7.159887615353678
Rh 7.918997304838478 9.69285454268285 3.863951691299343
Rh 5.203740221563965 7.471767239360351 6.339314600650369
Rh 5.999532137825128 5.4548379853385605 9.431099962860548
Rh 8.992062183179435 9.15117099580902 6.928182431002315
Rh 5.69698524665399 9.070274972446247 2.8318439315737387
Rh 9.058545002435464 7.324452378825206 8.599755722079607
Rh 3.795482915585216 5.994482567271275 8.048334377623588
Rh 7.338312789274216 7.339265542910883 10.463303453411545
Rh 2.675261707297962 8.185969028738038 6.0775700470525456
Rh 1.3358610877049344 6.211008571283033 7.175012925214143
Rh 6.071567809849848 11.337827279752945 4.127797840191025
Rh 4.825946365835527 7.713195741947918 9.596356260260576
Rh 6.7443808708199775 8.375090604615707 8.178743199141818
Rh 6.682775845323551 9.590947043149598 5.958037284319919
Rh 4.409806197716936 9.464164540624727 7.5893765929419175
Rh 2.458890211628205 8.101837426479158 8.607741188772625
Rh 4.342584211409261 9.731865097418758 4.917903197101398
Rh 10.007981127594872 10.249460794322301 4.949525495384118
