47
Energy = -279.84025368 eV
Rh 5.15732482314852 10.48700838909378 6.118827026333936
Rh 10.250662364056744 2.888808934053589 7.002142236333767
Rh 10.15478488250608 4.005526442442808 4.651992613778882
Rh 8.325228100199563 4.440597927597685 6.370000456423701
Rh 6.264858286170306 5.170121370889414 4.723837304507344
Rh 7.260898154414476 11.609207083497836 7.056176008174041
Rh 6.553257165164684 5.136258558635328 9.189541545537141
Rh 3.464013347888895 8.290772270238458 2.8700463617819514
Rh 2.079495772617929 4.93870864062518 8.770779875013826
Rh 7.7905100651299195 2.2282038543977034 7.718260607312499
Rh 6.018809180596001 9.145098842388332 2.925885079307111
Rh 6.817089002578986 6.458927604225004 6.948775364321614
Rh 7.872374016277734 3.920026291104229 3.320519968831639
Rh 8.944627851819908 4.207370668725458 8.885901789206988
Rh 1.6952660282532825 4.901172925306337 6.177324859769058
Rh 5.629978504780904 10.223451678498288 8.614388653960589
Rh 9.0371339038194 10.248833953067631 5.8550755055694435
Rh 4.707163269302611 8.243708294380424 7.3079675591479605
Rh 6.776051986564414 2.797916173261007 9.997487670568784
Rh 4.401303407584589 3.797794529516786 9.651010304741035
Rh 8.386346053818718 8.578320358052135 3.8998583053180846
Rh 10.333587071788402 5.6168277301314555 7.133535509543894
Rh 3.1681658295675548 9.013028516599668 5.365849613666476
Rh 6.966899267792219 8.7692791063457 5.92571377446148
Rh 5.942750782625617 2.6612485809287456 4.766862784652071
Rh 5.280858620177207 1.8263422783775922 8.116783988268958
Rh 5.96295217548294 3.9065520138460847 7.010607371066285
Rh 4.434276417872458 5.827343451387048 2.82018102960265
Rh 4.286447431095128 5.76073097526717 6.452723493988975
Rh 6.279687470455669 7.694714975632092 9.26524057917246
Rh 4.056706876898376 1.5349373897912615 5.850053736455551
Rh 4.168504036651949 6.244964667898549 8.872687440228512
Rh 6.945899546218316 6.706697142535668 2.796847259267744
Rh 3.7381101252446407 4.0644671254717615 4.597931882512653
Rh 7.91245294766743 9.30835891434975 8.124164164591779
Rh 7.018428078699822 10.936177149858379 4.387918065298634
Rh 8.742212524770306 6.1145647688507125 4.444964282497335
Rh 5.230277081805627 7.597641053394985 1.1539370007760006
Rh 9.364225100945967 7.787893539056019 6.293262980556611
Rh 5.144808003232702 7.515643453843848 4.637484375475618
Rh 4.26512945369693 10.690376665504699 3.7791410417878284
Rh 3.375168017916545 3.429257120884117 7.30209520571477
Rh 2.6340895339801293 6.56504700390562 4.582555284644799
Rh 6.513639125556853 0.6716258448055117 6.150666500536643
Rh 8.452270262605284 2.1699269912945423 5.191002527206354
Rh 8.618671452520966 6.82560078443766 8.625705931286298
Rh 2.3088390469318867 7.2112820770908606 7.170636764579506
