51
Energy = -305.16246824 eV
Rh 8.506397156472294 6.738863734805046 10.522489546198427
Rh 6.065806024641001 2.4016380246377054 10.264131571772548
Rh 7.340351932669529 4.561380726681555 10.194114173691926
Rh 4.600495913600202 4.514788451268279 10.012570066859357
Rh 7.374582150564549 8.862462052438568 9.649031727209586
Rh 4.020626938836718 2.0649937112330865 8.676879872252254
Rh 9.470210172921647 4.927599276808767 8.665990141712157
Rh 5.968474429152117 6.73638505995516 9.93614122516519
Rh 7.9067752414542944 2.782162371169118 8.414461111216745
Rh 9.065849812867445 7.493571159557106 8.154861795221418
Rh 6.254975489342459 11.001710442227255 8.791773999095986
Rh 3.538712138179468 6.691203378818501 9.19317930507482
Rh 4.86328794187392 8.856376869196195 8.88537655948454
Rh 5.648815678772779 3.787664612705133 7.89056471028199
Rh 6.225460239873157 0.8295454749482079 8.234802292066373
Rh 3.0803483462542633 4.46585341961648 7.8399831745477435
Rh 7.100251054234577 5.7942349094938415 7.916519665172373
Rh 10.44639946703514 6.067032578934639 6.4297560427878615
Rh 6.549132903685962 8.194806181393052 7.150966503948006
Rh 8.604223698559847 4.164264288972924 6.352754963285244
Rh 4.475287457040524 0.7872892799216525 6.443084849611024
Rh 4.718689488343414 6.289524462148585 6.938598236995522
Rh 8.3168802338493 10.044767014281382 7.5636259113269295
Rh 6.696359332090487 2.2237871016526003 6.118101766997234
Rh 4.052268909637938 8.735020518894826 6.422286422379292
Rh 4.147193836007034 3.115421902736715 5.9057490832734265
Rh 9.621650038560174 4.987859133922658 4.136822164614523
Rh 10.27381122739329 8.859882846883353 6.410005266450378
Rh 8.121674987240555 6.676136028881053 5.713427910995759
Rh 3.950117433457832 10.93933332188597 7.612981225221299
Rh 2.2495069345955203 6.872773514366589 6.950648970993193
Rh 2.23909364089638 4.649862169342731 5.408784714342681
Rh 5.864893239812988 7.5458945303554925 4.748356424570586
Rh 6.11446996871533 10.561551363165817 6.2640371946257725
Rh 7.329220538515962 5.810370214270327 3.392362181249641
Rh 6.154041010664536 4.8362873262796 5.460897425496208
Rh 1.9952540147385411 8.79844865953465 4.9982288485377335
Rh 7.629796760338417 3.2419056109834816 4.026625103984744
Rh 8.105132637923601 9.174854352141585 5.096044607848398
Rh 9.403924475526972 6.681195588439479 2.025812016785896
Rh 9.966666110479542 7.595352988065878 4.250333200514469
Rh 3.382734568457919 6.699883800059479 4.580767412018872
Rh 3.9083298655434637 10.799919269726125 4.937445201268433
Rh 5.032068707557144 6.642588719683271 2.470372560316128
Rh 3.9394149861198944 8.798412920538901 3.3520309688374947
Rh 7.437502789914441 8.249245776754835 2.6860783841177773
Rh 4.323893934161123 4.473067117819413 3.799585711896059
Rh 6.090871159690465 10.064325976240426 3.7720660707477722
Rh 7.11393388161542 6.269509952561277 0.8618137131567972
Rh 6.010599193183412 4.1492719790046255 2.021481863773956
Rh 8.59987513173467 4.209820387587011 1.8068237428012366
