55
Energy = -334.70228194 eV
Rh 6.475672664524426 6.549212060946031 8.796557091390799
Rh 7.74725685821152 6.53480539463807 6.492923813379331
Rh 3.8906046108818333 4.40549210069601 10.347772001678903
Rh 2.537747257586519 4.401164191885216 8.109855718184356
Rh 6.451914057645477 8.677013175162651 7.253927955219275
Rh 9.104926801660927 4.424754989784217 10.293326264027648
Rh 5.158872042940751 8.748098492160354 9.574146119076028
Rh 9.156076437026915 4.386143366732802 5.703982934806163
Rh 5.181983406886267 6.543653921986452 11.058704507276744
Rh 7.805917463782 4.408781051728769 8.03565998992391
Rh 9.134505761560629 8.70152223620969 7.297040717381761
Rh 7.813254607398713 6.554277024015464 11.03192349426509
Rh 3.8760174970600554 2.2503510157224014 7.344414366368619
Rh 10.3967419295753 6.5562201508727265 6.4692399683215935
Rh 6.408097789339842 8.68581569640697 2.6282002223748986
Rh 9.073267982858571 2.2709222977007197 7.288413202507106
Rh 3.7255866334252365 6.450662857868856 4.239737383489012
Rh 7.731783202543833 6.526472178189799 1.9685906267601532
Rh 5.145647322370304 4.398547170472204 8.063983793508445
Rh 5.0503137755394105 4.318459714251321 3.469069569480695
Rh 5.0884040051124435 6.513684591853735 1.9970825644198997
Rh 3.7755131531878408 6.575638742479842 8.848073357247145
Rh 6.431027469743733 6.510393535411662 4.216201677073076
Rh 3.7979133537980516 8.622105024278387 2.746488494145711
Rh 6.475100220114729 2.1735958311944565 7.354023115889019
Rh 10.361493117355453 8.707491221513132 4.931538237957674
Rh 6.412477940654309 4.434443765606994 1.306234892676184
Rh 9.175435892249986 6.597475608449208 8.791640577988144
Rh 5.094692500842382 8.650958006386077 4.99385457400559
Rh 9.0201589896292 8.646904848689504 2.6910443592116113
Rh 7.789815772826797 8.758349561485108 9.548301752926312
Rh 2.498813394268233 8.671707885946894 5.013415225683128
Rh 7.771104936152781 10.803413606478964 7.977187787505823
Rh 10.413846563472562 4.432467462471462 8.026863194115515
Rh 7.813514062717781 4.331185536820421 3.4414842254679945
Rh 5.130513419848783 10.793435470213883 8.0024087523944
Rh 5.158426196496253 6.524275388452905 6.519751878292682
Rh 6.434873653621773 2.238122317560794 2.9018451156243037
Rh 6.429343694646665 10.886212184598055 5.730844079756107
Rh 3.7711124954890227 8.679945433645162 7.354307560732168
Rh 7.764947779389161 8.662433807273679 4.965867461053023
Rh 3.8128731552882473 10.779064396388412 5.7344073588693165
Rh 6.453117196838425 4.373948059088506 5.768774540573695
Rh 9.136408195591372 6.4750007140488925 4.183431103747989
Rh 9.045348726103624 10.801957591604024 5.682981354325174
Rh 7.7810605102079915 2.2516284668065008 5.061292079569297
Rh 7.820612043666729 2.272634030615798 9.577253370094851
Rh 5.1007744139557785 10.77608788716409 3.476119871620887
Rh 3.7508485946727266 4.362652995899084 5.759870061930307
Rh 5.172825591848976 2.2627090303812243 9.606750990746525
Rh 7.715716737429286 10.789139056632816 3.450475854331921
Rh 2.5104215775201455 6.522638113941962 6.551662758787367
Rh 6.49899160037445 4.382547586548648 10.392901874329773
Rh 6.495045527176406 8.599407461998053 11.734505366601372
Rh 5.126618881946283 2.2393551576970188 5.089024257942398
