53
Energy = -319.10205846 eV
Rh 3.816196189485229 4.35728035015574 0.06768850754023784
Rh 4.587371536128364 2.302233382580388 1.4823445057962503
Rh 6.345659868729024 4.221294579669512 0.6817681453616009
Rh 2.6113637103357066 6.2176727441540285 1.4775934416354009
Rh 4.998537447735097 6.634659623992013 0.7803894216349071
Rh 3.233068693989708 1.3190354256612447 3.538297131302832
Rh 5.633749630684504 0.3842333013996439 3.0002571604004626
Rh 4.551926428908125 4.693053934836083 2.449431121330451
Rh 9.428689918230509 3.2389809150822044 2.3140736557055694
Rh 7.266701539232178 2.2525235226400975 2.1647411388838225
Rh 0.44322739661300864 5.264399994951782 1.2645420539504977
Rh 8.821094745413106 4.077532297599011 1.3921988501813298
Rh 7.496056758826252 6.497859995343186 1.3100317789277343
Rh 1.2010090014749446 7.57886602426876 3.2208697378642115
Rh 3.6776327141864176 8.32014776244071 2.4301310353378183
Rh 6.047362537480101 8.846616084548199 1.551637144294574
Rh 2.2032355559874275 3.386556425444294 1.9815138578877418
Rh 5.504910774028058 2.7017214735365185 3.941067413852599
Rh 7.2837689180835845 4.786105927511212 3.2105763447774405
Rh 3.2363088686200685 6.352618070694661 4.063843922211805
Rh 5.999417202825199 7.088298216473538 3.3331356602120157
Rh 3.1471006390561937 3.7630350879942265 4.486841575925489
Rh 7.452917151988842 1.1881756629295173 4.722657805617058
Rh 0.8849657271151237 5.00357500395043 3.755425878424229
Rh 9.100578614221945 3.10332922625711 3.9058596608605236
Rh 7.528018552315699 6.288513400490626 5.386696805287943
Rh 2.8346624672401486 8.71040768091291 4.989091583267512
Rh 5.297238811177198 5.084244490066761 4.845303812181647
Rh 9.428689918230507 4.7960223447051105 6.333486734927197
Rh 5.210538192012799 9.420953625507426 4.138820341247375
Rh 1.1440405418061432 4.016393857252942 6.229660284922713
Rh 7.275950903620595 3.643102342716729 5.6725122217895105
Rh 5.185698781899728 7.4854813781055185 5.813626361283927
Rh 0.9723827510733649 2.3900984949206197 4.19584798926187
Rh 9.120010519533034 2.145145053125378 6.467035085242114
Rh 4.4851324450649015 9.65394381381602 6.792490609403253
Rh 4.9257129766067065 0.6857626463070802 5.524069760536985
Rh 1.2234980659540835 6.658083616303214 5.708154532934513
Rh 8.178020098780035 6.425835884828895 7.882285233922452
Rh 4.788458253817505 3.13802041607902 6.452918428472165
Rh 3.4151017023972523 5.396024026792306 6.542912944719783
Rh 5.956334592515432 5.348511409768247 7.323894787000517
Rh 2.560430582359445 1.7615413788515815 6.106323236812023
Rh 6.739803095431234 1.6474097339404117 7.313233321930633
Rh 5.5495590592742285 7.710975050745656 8.334525371096941
Rh 7.933561119686244 3.827249032930347 8.247167996968995
Rh 3.012820476548276 7.731007218998917 7.450383228281294
Rh 4.2838241287366765 1.2092563202517865 8.047040968822637
Rh 1.5362621373094203 5.712304747657043 8.196045619330752
Rh 2.837572187585655 3.4145998517292284 8.19231169267316
Rh 5.429461654473429 3.361474752198417 8.97272847384358
Rh 6.498289311165261 5.572330994122516 9.758206540449077
Rh 4.001766356401881 5.688047655504334 9.05885533621656
