51
Energy = -305.2090594 eV
Rh 3.661783179540359 4.5945764598132435 1.884006346069655
Rh 4.632656771543135 6.648938430111644 0.747335525151548
Rh 6.1454266074947785 4.556730829747919 1.447643313303445
Rh 2.354430224765269 6.7285114293898785 2.6846248362581004
Rh 3.0023820141981945 4.8051857200751344 4.307861319210323
Rh 5.136086188362638 3.305609909752689 3.593852373268451
Rh 4.963935381761832 8.754312278026175 2.2708246751269034
Rh 4.725071385319415 6.554338228326489 3.3533379414044067
Rh 1.587785494909353 6.821232057808207 5.132012629034293
Rh 6.891819511128827 7.050467537097665 1.9375502696173514
Rh 3.377063913770829 8.622170282384797 4.335960047905548
Rh 7.60071750319772 2.8523849662881435 3.0407015142650557
Rh 4.117207437107419 3.034918212064994 5.938343985028978
Rh 8.435822645288221 1.9572847639868451 5.276503417512603
Rh 5.044253199205016 5.465401459961465 5.723121482262566
Rh 8.622313345310095 5.017560004815515 2.0193126443062983
Rh 1.8528243639010125 9.211182549575557 6.416125741909202
Rh 2.601735090735644 4.924747934520158 6.905784191324036
Rh 5.822241555721228 7.876798574723569 5.446076811699977
Rh 5.039549218029197 10.521448844502457 4.107943493375623
Rh 6.786248855453358 5.142903295926224 3.869969345285007
Rh 7.118214771079914 8.942394977462941 3.742881485035958
Rh 1.2660438531498344 6.958313783664801 7.778700691939615
Rh 8.740439752120517 6.911999989358932 3.729271209684327
Rh 3.5021577373393984 7.32888781932878 6.606441460909183
Rh 9.149561660507253 4.391782901370221 4.543441976818724
Rh 4.381627560956893 9.768425647236064 6.574644356989995
Rh 7.737876552262045 6.256878176682561 6.02815694282938
Rh 3.1360740087063688 8.70847911114928 8.675739117723516
Rh 6.839028501954749 10.320724014780053 5.945494007960861
Rh 9.074757765883758 8.553861766059327 5.604581317456563
Rh 3.4319665257574785 6.124104712606836 9.067707074987064
Rh 6.748319399344316 3.6342885769115805 6.023963748776006
Rh 4.984499335618545 4.180366501053358 8.012992575533463
Rh 5.6368040068927545 6.876824524911792 7.910522857733411
Rh 10.39294827301729 6.201412583140935 5.7805813803666055
Rh 6.139695561665302 1.8899072956573895 7.724617043501328
Rh 5.58990167204328 9.289519993845385 8.924613775678345
Rh 10.524673754605443 3.196356514424753 6.165022520861372
Rh 7.475748768276214 8.611351162977428 7.5627223717937575
Rh 9.473039694743786 7.240969333315983 7.925938152060108
Rh 4.611933712136107 7.773232055638145 10.6467508131924
Rh 5.597856511457573 5.4606439288449 10.151992375698553
Rh 7.71250941707257 5.298611110949538 8.412128776113127
Rh 8.540292245690104 2.890822779842505 7.736423246920208
Rh 7.244592816293052 7.461622098309724 9.98029145023313
Rh 6.864186592918472 3.295676443920468 9.7307733746179
Rh 10.213941548370538 4.803175510600183 8.032325146966894
Rh 9.449780635549423 6.069619059294273 10.170266159977768
Rh 7.647837510848393 4.993030647926699 11.52395497793732
Rh 9.39469123722586 3.5024284788115736 10.13370885969387
