5
Energy = -19.67343746 eV
Rh 8.194167753728964 9.155682385153122 8.773825426888633
Rh 8.234826707750452 6.799628124463835 5.133694777884726
Rh 8.345055697993855 7.179154550320393 7.34482673653116
Rh 6.436987783394677 7.52484966872891 8.63400605615222
Rh 9.319980566606807 9.47564259586593 10.64483606268251
