55
Energy = -334.82864909 eV
Rh 6.025100009073265 6.100928316120557 8.352576913594836
Rh 7.306293040364817 6.089898923466767 6.05110146454914
Rh 3.442897429119279 3.969400007802365 9.909144710546984
Rh 2.08239914658468 3.9594726123474 7.6565501162542
Rh 6.005390970435096 8.230890023728865 6.807920159715822
Rh 8.645549396416326 3.992153126938241 9.867685874894345
Rh 4.696006724453249 8.304998238485165 9.132103253272904
Rh 8.717003833480902 3.932858348012546 5.25674514492845
Rh 4.7258159291192285 6.114490836131055 10.619608457738043
Rh 7.372445873298753 3.9693107693027994 7.593785444813731
Rh 8.691739466798518 8.256956860252568 6.862523033754265
Rh 7.3566090773282315 6.126712533292551 10.598795063092723
Rh 3.4291471715344914 1.8048095814854133 6.894417437346744
Rh 9.950537125864894 6.108570963269098 6.0355475875915126
Rh 5.972489308435769 8.239499428378199 2.1873136717789268
Rh 8.631616037680752 1.8262602038230358 6.8544209645031655
Rh 3.2933632793270267 6.0062456856513515 3.7792355512820417
Rh 7.301770966125906 6.075446236398528 1.5270332542505523
Rh 4.683585978954163 3.9583473603644252 7.6153854583602225
Rh 4.61456071748689 3.8727944884960652 3.023044413056158
Rh 4.650679956953723 6.064251645328165 1.5472083001492105
Rh 3.3247464598422907 6.132553846135806 8.405723925128271
Rh 5.991885170010149 6.062000429879326 3.7729218964163644
Rh 3.355806217304815 8.177125848956845 2.293431385398248
Rh 6.031154178700774 1.733580960482885 6.898206112719214
Rh 9.927618472471673 8.251116827637249 4.5010325036139625
Rh 5.97963546564478 3.986948187009113 0.8589830156029951
Rh 8.724622740382241 6.157742174564026 8.363789901378555
Rh 4.654706863663271 8.20744392952745 4.543561223544628
Rh 8.591663954274285 8.199471509360297 2.2518579872600126
Rh 7.347305488431312 8.317079948687688 9.112152072764026
Rh 2.052051122364526 8.217183950479562 4.566734412740611
Rh 7.321485130485703 10.356251091758564 7.536831082663669
Rh 9.972865401093054 3.9939702768613965 7.5961640934287065
Rh 7.376092378583009 3.884361175506246 3.0021212558487345
Rh 4.684633781305395 10.345450678898006 7.556966488094669
Rh 4.710640233841984 6.079079655850178 6.071338630372473
Rh 5.999129075237999 1.786374784697088 2.447401594710927
Rh 5.986998505736572 10.447624092593523 5.270389672369882
Rh 3.3204097346468737 8.233994166322368 6.906023122687175
Rh 7.323873362439139 8.218399315591377 4.52231464351437
Rh 3.369706590315342 10.328149297446037 5.288916206372923
Rh 6.011277790825808 3.9237697831983676 5.328201860423921
Rh 8.691121009721735 6.029178547183516 3.737021392934396
Rh 8.605671444951758 10.349641982244096 5.249262452152444
Rh 7.349654979398926 1.8056529101155863 4.610874960957435
Rh 7.38035634753089 1.8395340472961381 9.136303888394293
Rh 4.650275771306652 10.337289120463755 3.028622891710828
Rh 3.3053922280254606 3.90988730282565 5.297963693070674
Rh 4.713258670024455 1.8272757753694078 9.157409315139889
Rh 7.293023320412621 10.348475034785848 3.0082498785160015
Rh 2.0667708224369745 6.0747924715927235 6.095862026703557
Rh 6.045329737444782 3.940554761780689 9.956387950555417
Rh 6.037326196397934 8.169571656901796 11.29393513155201
Rh 4.678729227312255 1.7943975803248984 4.631116367186593
