52
Energy = -312.00073214 eV
Rh 6.305359422349402 5.0321096330278365 0.5887470722903293
Rh 8.605202240408419 4.765604016274409 1.7204812495030863
Rh 7.506597238801301 7.254639040779648 1.072712573097771
Rh 6.564570522878159 2.940677147884498 2.179525285718069
Rh 10.223143868733908 5.307965710524759 3.6037418724389343
Rh 10.204646919048791 7.4872367013442025 5.106135524500036
Rh 5.194147133273695 6.9044522798808545 1.9475814303192103
Rh 8.352560055776964 7.131847704091492 3.3538980906009512
Rh 4.3339829139975965 4.311359189086919 2.049830605473757
Rh 10.34505187363475 3.724681900604933 5.604216979801877
Rh 6.62287441136012 5.241287516581755 3.2124845241402067
Rh 8.37452699665607 3.4023074699265514 3.937031366770357
Rh 10.629052123950485 5.897852986468467 7.070987677502427
Rh 6.357848771327612 1.8839655818621197 4.573277275003067
Rh 4.25408429449671 2.0446425156370647 3.0666536808745413
Rh 6.35154575601154 8.766267123995025 3.374097106019482
Rh 7.9915527956685155 8.730947882229653 5.4156270118174685
Rh 8.566367688158186 5.564873494757793 5.572520447354079
Rh 8.212645868177214 2.438894680287802 6.3499487135762465
Rh 3.9771704187025168 7.90852613368881 3.9517004178728734
Rh 9.555671651878004 8.226725900879686 7.511532638285523
Rh 4.04271450903177 2.8937536226699727 5.3723164685821025
Rh 2.727788924542688 6.246644482871335 2.3490898562667097
Rh 4.281702883176299 5.300390165220781 4.4198765263724455
Rh 10.059731603502286 3.654832571262089 8.0972262754021
Rh 2.2878112331667233 3.972351706938935 3.6376306841392094
Rh 6.1704919800196105 6.848934426534309 5.200998212743386
Rh 6.385590591431672 4.175400131467727 5.536650377562188
Rh 7.4633124726827225 6.870935977083839 7.424350136475099
Rh 1.8079122808139112 6.716476170677464 4.663286513320537
Rh 7.063940835874129 9.527207704846012 7.625549886602156
Rh 5.7807939211319335 2.6317347687471977 7.453823810059994
Rh 7.693030219761589 4.326991183055772 7.987663069781572
Rh 5.30905292365502 9.211662915259453 5.751623462914489
Rh 9.211733490574781 6.104313912026204 9.146750452786593
Rh 3.3062009512126624 3.0612753770012837 7.802527370935423
Rh 7.819320017847399 8.208344022630842 9.664350263309242
Rh 3.7780799695289833 6.991462451511574 6.4214001293828895
Rh 2.402048745510109 4.7638358733046955 6.159585515087547
Rh 2.6979961059599082 9.20282221341518 6.363631230048962
Rh 5.236757704744051 5.249716653468546 7.531003926441513
Rh 5.339975052853358 7.781186474657959 8.602748741823936
Rh 6.617385742779879 5.878717115476662 9.813922215807604
Rh 4.707666865148169 4.06552886384289 9.709414269993774
Rh 4.52215373257532 10.076341554144435 8.028970139716256
Rh 1.20384682145646 6.923425241378298 7.121153488918003
Rh 6.338174326297536 10.274251787473526 9.986463926769119
Rh 2.7631045959892355 8.103071912607733 8.68369094510657
Rh 2.8389984614845534 5.469750642689961 8.60660473317967
Rh 6.151715955824264 7.92804394943005 11.540038681903654
Rh 4.220325669033362 6.525203341045917 10.47465536057848
Rh 4.178941944483261 9.115553278245386 10.497061330861246
