51
Energy = -306.1285577 eV
Rh 2.8876329019958678 10.077915286059845 4.477446513016717
Rh 2.4045825964245973 8.05337646593076 8.565600912466772
Rh 5.583215215932443 2.5166642048898114 9.027189981513443
Rh 4.647240264325931 2.7943813324813025 5.0104315602337115
Rh 4.978185121184152 10.291316533829324 5.898695215089226
Rh 9.014628301334552 7.754613609772559 5.984897109894807
Rh 9.534809853352032 5.432038217989969 7.275058853770688
Rh 4.5299435031509905 5.432335521807218 5.0136891610956145
Rh 8.549777396713518 7.49209315977546 3.260679906343513
Rh 6.991459857139434 6.122428809461267 6.19262743400574
Rh 6.876459517821713 6.363953745028463 10.622525719990689
Rh 5.402574654434766 7.824719275959132 1.6907530073045212
Rh 3.146620104871011 3.565398051654106 8.754346525634332
Rh 7.733477250806237 7.086293462924926 0.912444232067554
Rh 8.019294197427298 3.6608132273747307 6.314012008331083
Rh 6.664721409618037 1.6656471511136974 4.105387330855494
Rh 9.128904975601454 5.501046848340822 4.778554999111203
Rh 5.630981976947589 6.752548144000213 8.26486266611553
Rh 4.832472288172381 7.833247064726018 6.030756833979048
Rh 3.645559653237883 7.719271007015239 3.725266256034083
Rh 6.124305827805229 5.392262387668874 1.8173176790227061
Rh 2.5720698339614065 3.4558266425007753 3.7121523418906404
Rh 8.092242313637492 2.1561638607824563 8.326707425391858
Rh 6.772909619960327 4.355103381258856 4.118713312216896
Rh 4.449981519943077 7.427144564288136 10.340129835621843
Rh 8.574891505476895 1.2229631449165475 5.720922763637339
Rh 8.733224258994202 0.7776805040193787 3.0934448472076865
Rh 6.271421168472043 1.7071262631516237 6.652703962974403
Rh 6.255665126986494 6.985510388885736 3.890742820761153
Rh 7.514015853468463 2.8001022321773537 1.9630614098916404
Rh 2.5434533827074928 5.818943565161115 9.801357141862574
Rh 2.7066697511500077 10.292682110362422 7.142746509453829
Rh 3.632136006529681 5.47160807186612 2.6316360456654344
Rh 7.134650008070644 9.206532818525195 4.652226889356874
Rh 6.961012806532521 8.83377370652724 7.085622918147496
Rh 8.647139253021791 5.089462671156976 2.3377757512732824
Rh 5.0744401356632 9.788309356310304 3.299689894805132
Rh 3.268814087792793 6.04863069311369 7.367534708520308
Rh 5.283515610731347 4.241100076715456 7.205040502087129
Rh 9.13475326475801 3.0772133315470667 3.947276123842026
Rh 4.618062844994053 9.200020786351063 8.289365345710172
Rh 5.003858548087999 3.2522438504279028 2.5598543065814576
Rh 2.051486672918059 5.892853636189079 4.81625777618679
Rh 4.9722928963887485 4.8940847013794615 9.843271677018501
Rh 2.6901847803265024 3.8455144954566087 6.270992792516642
Rh 2.304228586773076 8.12394507718128 5.963089887702095
Rh 6.6239724859191575 8.768094408562959 9.722008272237117
Rh 8.235601591386027 7.135597495506158 8.521612694912978
Rh 7.3194235756187584 9.464367335015822 2.0675776728574506
Rh 3.795738323778875 1.6681028957699175 7.18197753509517
Rh 7.398323638253023 4.629960747688853 8.714989249297718
