55
Energy = -331.32956859 eV
Rh 3.7836648261647405 4.298988524558492 2.1342795835985124
Rh 8.549363667920161 3.0614404889264892 5.638385327343122
Rh 6.028948733391338 2.7869683414354967 6.122110560324229
Rh 5.453211542848672 6.042369465376851 4.264711615854937
Rh 4.123112413073917 8.308924164882955 3.7911971297594675
Rh 6.317672319424504 7.92373433425282 2.4474781291158023
Rh 4.048568075027751 6.914658975500244 1.6667869176994163
Rh 2.8230097335547994 7.229560947045875 8.104712585007306
Rh 7.338915600301453 5.050132777646005 8.382767209645548
Rh 6.941959996413909 8.162564048730511 5.029547632053444
Rh 9.18866943395588 6.699700321326701 7.658556623124416
Rh 7.697373931396828 2.5980218750948088 8.088828347978941
Rh 2.8871584344109404 6.044450918010329 3.769105934253844
Rh 4.238438367380674 4.230497454880797 10.938081729439954
Rh 2.909491221946483 4.680316276736928 8.718104539278093
Rh 11.861171881121765 7.272361996561767 5.585720475173014
Rh 8.612449145032192 9.397553288330672 6.9202146466987084
Rh 10.51712064590681 6.427763923790542 3.1655427240294673
Rh 4.647029949473935 7.532736309241655 6.2235942519731955
Rh 2.274222216862669 9.612149779333366 7.67088305096515
Rh 4.234049416044705 3.7743011504888018 4.507032430507733
Rh 6.9697804349584995 10.40042962723175 8.69384802478343
Rh 6.011121738469714 5.3341904784088845 1.8789292267002349
Rh 11.560891415890048 5.824404731748531 7.666650056524152
Rh 9.429945359153809 7.422967957605993 5.200204827590752
Rh 10.602353685112824 9.617971443436717 5.425424664736482
Rh 5.7800637104191654 10.244170718059435 3.7635026760487413
Rh 6.765864150493109 7.590165464489152 7.6568887461686135
Rh 5.025057169371565 6.16418153724806 9.059926436524501
Rh 10.352405394440012 6.801381512365002 9.87718942137737
Rh 9.668682795797206 4.138842698930718 7.65813785808411
Rh 2.8664048876087587 5.426058687212037 6.221522251347603
Rh 5.640585676833995 6.292831007283807 11.54393115431686
Rh 3.3948671217263797 8.89295909948141 10.141365712895125
Rh 5.391808189304317 5.113202790615776 6.717197736371081
Rh 9.357215925060759 4.001713877451861 3.3522486303165144
Rh 2.21886310994916 7.861709887780537 5.6286677467469435
Rh 8.013785780068432 6.1001009871578615 3.2217732179361196
Rh 10.97451822478213 8.421142587240524 7.7525843373933085
Rh 3.5480313483855883 3.015399919886385 6.85663009574854
Rh 9.302163242039647 4.369470213956296 10.078848936655445
Rh 5.252560582096387 3.4024419805500403 8.720560797144111
Rh 6.804693822789193 4.111464111884814 10.694650895786557
Rh 8.278186585379013 10.422303163591348 4.586366893913713
Rh 6.242513870701757 10.320335902157037 6.238494360961064
Rh 3.7932493203050828 9.997625158580174 5.638794356320771
Rh 7.877601623197775 6.496671316207985 10.400808095118686
Rh 4.733916324619061 9.390453727070684 8.079555508145239
Rh 8.748831276453899 8.59049753015307 3.0253399789345092
Rh 5.991032725762932 8.377834876261378 10.101061982887751
Rh 6.8348680480405415 3.848554827406439 3.883855429875521
Rh 10.415276851333914 5.050255156331899 5.397394179793834
Rh 7.745803155022374 5.5265558908622525 5.805145001796131
Rh 8.626445116297747 8.662536917748646 9.36935751933644
Rh 3.0910767280852713 6.506045793055735 10.621568739499292
