55
Energy = -331.73369229 eV
Rh 11.084505359477726 3.8049128109484838 4.417970097288147
Rh 11.088959093740698 6.387067358176779 4.382395150149575
Rh 11.089002033640641 8.960442767626137 4.432611927757738
Rh 2.1396197217362958 3.7609234150033655 4.434477041467516
Rh 2.099375730173835 6.360533974642022 4.378631874359708
Rh 2.0976640832700015 8.959991998253653 4.451771282555055
Rh 4.374376244099161 2.487878045850793 4.382055165528327
Rh 4.333511748654672 5.07474298028269 4.138889409358056
Rh 4.3146591509212495 7.695638986213048 4.157365312874575
Rh 4.336738492293653 10.279120335422457 4.389295308990911
Rh 6.599873219340893 3.785832788532789 4.13313712994679
Rh 6.619498783800164 1.2137898441108768 4.420650142945651
Rh 6.593858738051212 9.020711615860037 4.157776498981826
Rh 6.590414199606382 11.574234734752071 4.449984185142663
Rh 8.837906161786519 2.5319596580763815 4.482367949837965
Rh 8.860292485885187 5.098009628199288 4.13220896843331
Rh 8.862582437359793 7.705625836053575 4.138013755485988
Rh 8.850363336364286 10.285059780151858 4.375917422715813
Rh 10.060088749275643 2.948461954049958 6.675825928803617
Rh 11.300870132496861 5.119129035710402 6.582128030406757
Rh 11.32406761516274 7.608044862123612 6.616143637281159
Rh 1.8860473801423447 5.114996531422535 6.588451265023174
Rh 1.8707286488041528 7.597474438916665 6.600738838140379
Rh 3.159660732840562 9.839214304450891 6.6116931521483515
Rh 3.198544104556183 2.8887617499802514 6.618091901846269
Rh 4.394450055815405 5.095068986171034 6.592054605786831
Rh 4.3831134605711615 7.654263507017749 6.615821617087625
Rh 5.3032972695143155 11.08697548858002 6.610541259801848
Rh 6.618107583195153 3.853768057738576 6.575868928527811
Rh 5.3723570695537 1.6795610629342377 6.581858301441793
Rh 6.598410270815881 8.942754882014476 6.615996123818884
Rh 7.889589007233988 11.096762516001442 6.597925096937923
Rh 7.873557085020439 1.6792849030730894 6.682755871547424
Rh 8.79398603749126 5.117899336490855 6.574653653172963
Rh 8.815430860491428 7.665648837070015 6.5909810855633975
Rh 10.03720376583484 9.852594790494237 6.585301881462381
Rh 11.088006637207 6.335889220819089 8.80651980405123
Rh 11.067646034255322 8.963369714899246 8.755610242224614
Rh 2.1513778095522054 3.782742422353707 8.759729132600729
Rh 2.1186197846507215 6.355894653155747 8.815737963212156
Rh 2.106299448672391 8.942417331916662 8.762487978239724
Rh 4.424184001140713 2.4647119808763125 8.806917857261476
Rh 4.339784985950418 5.054858742533135 9.04493350328314
Rh 4.354995562833114 7.670025142049363 9.06774284371589
Rh 4.356420024951622 10.249140534915451 8.829906207077032
Rh 6.6287994252594675 3.795685039018587 9.010649911422846
Rh 6.600606876485974 8.975327799135853 9.067798609228113
Rh 6.605003992600791 11.559411523060154 8.760378471767632
Rh 8.86346252607374 2.518801550586108 8.855751732700023
Rh 8.840094741297447 5.08494860904209 9.01022097476695
Rh 8.879819868094533 7.694460864848979 9.04467288644847
Rh 8.848622096510699 10.269622847023006 8.813041564928618
Rh 6.614050362424702 6.367371565468065 9.04035972921433
Rh 6.588447586892101 6.4098779929915555 6.570335416330938
Rh 6.592957893497598 6.400211170278202 4.126765876275546
