50
Energy = -298.84863006 eV
Rh 10.911935889252055 3.5933506418960546 3.269050845854193
Rh 9.525611548467921 5.725128437879323 3.0949755593290584
Rh 8.37043393031371 3.357286166369952 3.1250522353100694
Rh 10.879563557093936 5.177575169242492 5.233827432060796
Rh 9.715988627919021 2.588543487060734 5.281638548713708
Rh 8.126144140293892 7.981720481883403 2.9621618615210283
Rh 5.773662438720099 3.375200529340755 2.999689964454965
Rh 6.954089316147331 5.674639795627179 3.0364531562524113
Rh 9.598945599436695 7.472854663752255 5.006859556303475
Rh 8.373044775882812 4.738307101223504 5.2554120922496885
Rh 10.761040799195415 3.8141675414676484 7.39065739083105
Rh 7.07877631429962 2.370433674592396 5.16232492501609
Rh 6.491379701190397 10.240555101505759 3.2775836537696867
Rh 4.376065708676597 5.602372127451293 3.163251645011422
Rh 8.43948227331222 9.738760025381866 4.79024496113995
Rh 8.324893425223955 3.1302478306165034 7.398178525590293
Rh 3.1295764723989414 3.400760298079324 3.226762484039536
Rh 5.598939477180214 7.8672458105753655 3.212405609584042
Rh 9.490424024498017 6.104349808229135 7.200509465486586
Rh 7.041945514521205 6.9688178638725065 5.314896529838126
Rh 4.490948261159591 2.403704980783935 5.061616862733043
Rh 4.769757458808114 12.028512759769225 3.769747365864718
Rh 6.792119847636315 11.792020593085534 5.356165062589401
Rh 5.686010605257027 4.690120636436485 5.221526383785761
Rh 8.315181950682435 8.42563065573941 7.0424635136189115
Rh 9.149214197871222 4.701788542692589 9.327308513230923
Rh 3.9821321247683272 9.618835126984603 4.2030894023331316
Rh 6.032479283371634 9.33716470473726 5.69542405915363
Rh 8.037185540385483 6.99544173667354 9.118047126833316
Rh 4.399012012040274 7.129637749800663 5.351622871173254
Rh 7.510371206173612 10.687538830844458 7.4969225918859905
Rh 6.952947951249728 5.315423747300982 7.4900573427273995
Rh 4.401737834242287 11.347089502982126 6.155935175447266
Rh 5.735575572743771 3.0019928778825165 7.26538133655218
Rh 2.8615121435013737 4.939073970960141 5.192492270098238
Rh 3.1085835490985905 3.058373045463177 7.0041002858727595
Rh 5.818586162577421 7.612929233696157 7.649232138528224
Rh 6.773127864564749 3.7166735088307656 9.501091733303287
Rh 3.549407119024884 9.084356460606658 6.781749033945571
Rh 4.325248685042206 5.32805694475782 7.3162590551208995
Rh 6.052349297766077 8.184279478625829 10.137966919663405
Rh 5.338170349783909 10.048789038195801 8.35881351478782
Rh 7.255252495198412 5.675652662081093 11.050401578875087
Rh 2.3090120289420963 6.884725478245356 6.9074516760608455
Rh 5.102613946203648 5.865113424198304 9.744874647389736
Rh 4.238845986576153 3.4886002857495657 9.338411774457086
Rh 1.1778735684432713 4.657277302043419 7.18145084538016
Rh 1.7390046277637026 3.0618390945938927 9.09662139923935
Rh 3.646376314894866 7.850976386238507 8.979674108787696
Rh 2.5609289748815343 5.493809991281212 9.198002605511423
