53
Energy = -317.4855123 eV
Rh 9.43201163518038 6.321825658162191 9.49851977622448
Rh 9.162942853446424 9.039537334472614 7.140395975020659
Rh 8.168665778025767 8.731044007914727 9.741850379727511
Rh 7.074182125455168 6.299402113813987 10.68548606014458
Rh 9.668941128933914 6.552687865784659 7.026289689349691
Rh 10.050958785888323 7.921328360077711 4.9143537981882055
Rh 9.437625437468645 3.993235825019534 7.140206891327941
Rh 8.311453217113783 11.104281165002098 8.200034237873643
Rh 7.630060337039003 4.295968818506054 8.967666129733825
Rh 7.590871004054201 7.593685746295059 5.560096427777409
Rh 10.199199677293366 5.315147127161453 4.917920830704482
Rh 6.234342724536302 10.568918670360004 9.744554325103422
Rh 7.433505052671213 6.9316080164882345 8.178768987508114
Rh 5.543821239212893 8.116249778685376 9.732359175597267
Rh 5.644369935106403 4.129024883816095 10.703026684999255
Rh 4.294760120187966 6.327402588802153 10.921423860930021
Rh 7.2768524100732614 2.5859963097940835 6.966283637115486
Rh 5.328603202172832 5.581243636643868 8.619594512711057
Rh 10.501888933430422 6.436557240657028 2.6358100093665375
Rh 7.935700128804198 5.332095284728881 4.020410426935939
Rh 8.680859029582486 3.04257281629644 4.838576819551317
Rh 7.130132274330489 5.066270763612373 6.478569366529684
Rh 5.86416196685825 11.617610506778345 7.3433470078107215
Rh 6.6201459580187105 9.230030504841169 7.587624893565227
Rh 4.941951683765804 9.805078383494646 5.744571435336298
Rh 9.772881928140839 4.001934902442881 2.7210804031527434
Rh 8.320272757926064 7.556098332324564 3.015251053421651
Rh 5.237215494949558 3.0354728851890873 8.397379169205738
Rh 6.720719028038549 1.382912416851462 4.560155676079834
Rh 7.52417673132618 10.415607270120448 5.549474220146722
Rh 8.01446356307837 5.446460093156006 1.4859552216290626
Rh 4.194481987541662 9.742438804768057 8.331406139991472
Rh 5.555127583474161 6.480494836839122 4.224130796386143
Rh 4.439099650119983 4.589072904513387 6.442251273060435
Rh 5.221492491248948 7.244422107353509 6.639036536221846
Rh 7.351166495481691 2.966665601347767 2.5490654114040248
Rh 3.2630612812055104 4.473068684903675 9.463266295261015
Rh 3.300908252327373 7.219538299298393 8.492885056070206
Rh 4.827286228712897 1.9645140713709666 6.129284870417669
Rh 5.947661332977062 3.7956724856103405 4.558785408788187
Rh 6.28852809002752 8.95985584001997 3.747327381241495
Rh 6.187044310930301 7.3154205805685555 1.681815674789209
Rh 2.8274409908692406 6.509005433490053 5.9018720384562275
Rh 2.866550141146026 2.3921671046074233 7.8338683677173995
Rh 4.3500017057436065 2.34584637604184 3.470948597582737
Rh 5.615186847822576 4.849327939402167 2.2299953428895485
Rh 2.659279397766497 8.912613080392521 6.505313119833301
Rh 2.0201039476061347 4.686853086642177 7.265016198318435
Rh 3.7306902805232336 8.340514753119347 4.180548239305571
Rh 2.5845815444960643 2.9304939146530073 5.298828108133657
Rh 3.8218653868351566 6.68987877133741 2.2698870512447202
Rh 3.4338925434346574 4.81825774684717 3.9595370702209123
Rh 1.748983796274038 6.803478081717146 3.687194463282841
