54
Energy = -324.85083177 eV
Rh 7.58128236582842 2.2764009080628336 3.3569531452064663
Rh 6.11943131378025 1.291225945367037 5.322483362017992
Rh 4.754399218284697 1.6843119972372322 3.2653113442565793
Rh 8.644210278393748 1.9334980983046803 5.745074141370076
Rh 5.601896647756387 3.5129374399986606 1.7189178301478372
Rh 7.033695712296681 0.9921368394643071 7.665581834462241
Rh 7.630775232502971 4.825998452069176 2.565282693640299
Rh 9.488989662959339 3.8699869901381128 4.127207212976291
Rh 4.453350663767695 1.0851115838922905 7.433481509474707
Rh 10.246065668789901 3.8346288081124755 6.864356039122873
Rh 11.086472217679674 5.569467018654518 5.1613592720429144
Rh 5.888249348022187 3.8472889455607295 4.312852382711682
Rh 3.7682666165665 2.6446566945772174 5.460855240112323
Rh 8.05418589889483 3.169358259423242 8.329862345286072
Rh 5.858521585417353 3.1847229273680004 7.024904911616328
Rh 5.177128630394095 5.86520497169049 2.6560971318742324
Rh 3.496091447124958 4.0355319770312645 3.3300381298501898
Rh 5.46562399963864 2.911780924823187 9.40556468606712
Rh 9.274778088265862 6.473718976179887 3.597267616811452
Rh 7.100060449965456 7.573117796734079 2.4687087227019213
Rh 11.18972388767149 6.313517139489594 7.555360955831951
Rh 7.8930795642871905 4.246072241080878 5.939302546689403
Rh 6.9644316140349005 6.228880746276289 4.701125948707035
Rh 8.944574821075026 6.571375068119526 6.4214052426773875
Rh 9.19754072782961 5.318748243737045 8.72960200442931
Rh 4.45080042430933 8.170410400921517 2.1024806448136393
Rh 10.643953591053965 8.102971567858688 5.344645319071626
Rh 6.627532833306076 5.707085123170557 7.646435728130206
Rh 3.2790231651836828 3.3798573621277233 7.869644195052457
Rh 4.41270519610995 5.092070044738441 6.196383330709421
Rh 8.210876592254971 8.649657268195362 4.569963545175293
Rh 2.7945068508941633 6.533566853727614 3.5029046943170354
Rh 8.23150763546391 7.633617613151318 8.77082380693284
Rh 4.713657726959159 7.298582648344444 4.909871887284767
Rh 6.974936020735226 4.988590229377978 10.010396099395749
Rh 2.0790573319017884 4.864717228550551 5.358050813411375
Rh 5.872029917454525 9.392891387755865 3.824727561768764
Rh 6.690068140498468 8.036733291832476 6.595352740269016
Rh 4.54384879024771 5.228459697514709 9.27895879054324
Rh 8.983826372936418 9.302846928045032 6.943647649113575
Rh 4.313900582423348 7.268999476906078 7.476927713841023
Rh 5.814839499450722 7.568511965355822 9.499292620667605
Rh 3.1998622661650495 9.214145411689303 4.101215823877762
Rh 2.2505244280702557 7.398246980100867 5.903603469169979
Rh 2.2926399712433656 5.72854764343453 7.9377472749563465
Rh 4.5851722967393185 9.553656145403354 6.2659205847705675
Rh 6.959350479245186 10.578242099506946 5.939733887511025
Rh 4.8156715415069025 11.480334489952819 4.764441310521081
Rh 6.7693230287890165 9.799288763678128 8.466274444045174
Rh 3.256078069684268 7.30322858783512 9.86861949111665
Rh 1.6878462203301627 8.318449526585576 8.185994995805633
Rh 4.070514358788921 9.520027783822751 8.741707145005927
Rh 2.1980143281628166 9.980833159415411 6.414857855380344
Rh 5.146112864810874 11.57870707015041 7.539080002273482
