51
Energy = -304.30369937 eV
Rh 10.806237565180592 5.458735407440668 5.5986766109514425
Rh 10.95527939809652 8.116674664414756 5.471274744590481
Rh 10.557043865267497 5.980049569270383 8.108129535277158
Rh 9.290476244661734 8.063964007524211 7.34705966299135
Rh 9.330226436251976 9.160443705044043 3.821786164491712
Rh 8.653189096024091 7.073858040415449 9.56946533755711
Rh 10.350355196621393 6.742994673533985 3.194964193489508
Rh 9.447702398593465 10.233886489826453 6.180943101409679
Rh 8.97159492290639 4.558487810239683 9.655106383081801
Rh 9.845307816423048 3.5774243486770696 7.243505967726939
Rh 8.77007971346098 6.807802988824942 5.081072570551956
Rh 8.5512415458521 4.752134966056973 2.7375253344981365
Rh 7.290252192216619 8.89682202101343 5.473297435597437
Rh 7.041956959132185 9.57510320851576 2.7946976412994182
Rh 7.793486175416844 9.98589747743487 8.287032871874265
Rh 6.719694467661749 8.564936555049357 10.31457641752621
Rh 6.645098921868397 7.755503553551088 7.845563727483895
Rh 7.820314302271306 11.299427355246896 4.5339844381178
Rh 6.6032328394851305 5.8368540182100945 10.385066245557175
Rh 7.485939962288169 3.249339180767455 8.207020915245739
Rh 7.8020780883007355 7.152866647861864 2.805112721759274
Rh 8.168102473091317 5.626441700298437 7.33771104115002
Rh 8.634308894239343 4.198168773217184 5.110941171162542
Rh 7.779269571480552 1.9405745320910521 6.091098967947979
Rh 6.96249194353282 2.8475484916717364 3.668683928121703
Rh 6.11913828018895 5.284891378910195 3.253136397932621
Rh 6.235409062354184 6.429909287651217 5.6963888645935965
Rh 5.7446942703986075 5.2932127118706935 8.040590549641967
Rh 5.186480165568781 9.780352574215708 8.636352136155695
Rh 5.396299610735235 7.900958595738305 3.654861811732614
Rh 6.092306219344269 3.8447512367860814 5.894316195762957
Rh 5.192265226914513 10.457089633721697 4.26145940870809
Rh 5.244576192998135 2.2038704778877194 7.643298492813623
Rh 4.111172060479937 5.2019302373813865 4.915286038800824
Rh 6.179372065380078 10.923920556645408 6.5614278856548935
Rh 4.741159758720336 8.793103904558212 6.171275314002449
Rh 5.67005090697648 3.45716393565972 9.928988050349748
Rh 5.258108807985862 1.53141891686694 5.121973475735053
Rh 4.625988681154018 7.319840229119261 9.489724157179989
Rh 3.770949940097197 6.0837260080343745 2.639660030268789
Rh 4.025471020491489 5.274932267456538 10.778231585408566
Rh 4.403219142496046 3.2561778887483346 3.4061904487265484
Rh 3.7464777836198078 6.492932627981923 7.027130724712028
Rh 3.619691804309639 4.0078062459253765 8.54662831604958
Rh 3.062189003025112 7.5113596511648835 4.650919624901896
Rh 3.399492235897491 3.115678365298152 6.044927318705487
Rh 2.943410695491122 8.663143241361952 8.006302807922665
Rh 1.6838839277496855 5.356244011537444 4.562665562235886
Rh 2.2683409988170085 6.252183684898933 9.056669616050685
Rh 1.7251592175791897 4.740266365966972 7.012284025896726
Rh 1.296346856230113 7.170850183520537 6.5802253379680025
