55
Energy = -331.09861764 eV
Rh 10.040331996874915 7.0560343626597986 5.76412170138981
Rh 7.141292957262199 10.090290597887385 4.267688261065619
Rh 9.459183293460068 5.319162027331459 3.8656141577564873
Rh 4.5624689027162395 9.739883076659977 4.70706310397303
Rh 3.5354050298989517 7.804044948585226 6.056918525286821
Rh 7.468481544352337 13.139305028365172 7.445642042007362
Rh 5.953537493339808 4.596817932203658 10.552676044169473
Rh 8.322973801077142 7.713432572162006 3.9870279316716863
Rh 11.109367589321598 4.649346329947899 5.795824358174474
Rh 7.496021541856386 6.148561697186023 2.1600698405875534
Rh 4.538955834753864 9.85507811977415 7.379878360082325
Rh 2.846792830627596 5.48403170474731 4.733343146172547
Rh 9.002509970370292 11.118392182077613 7.788008645396083
Rh 3.3031400622153058 5.23954444043495 2.2843927648249815
Rh 5.066213221021842 6.750122328969835 1.177192128796002
Rh 7.10615677516631 9.694407664415667 6.9279459689429785
Rh 10.463343960619634 2.7684523941889583 7.497364005656583
Rh 12.605423848021818 4.088118313598692 7.777269034179206
Rh 8.083497749399413 7.373328919818782 7.417625061122031
Rh 8.812131574678865 3.3255739616170574 5.529026904506833
Rh 11.505967964460593 6.399002742560834 7.795800035590789
Rh 8.083248117138591 9.182019441493312 9.252671755248558
Rh 2.310811676070818 5.7829117672630215 7.167106617556318
Rh 10.870929485391914 4.603564835756135 9.529459664754318
Rh 6.003798393245319 8.41801487068771 2.810789938868367
Rh 4.5143527791200455 6.784884439287667 10.869125098568121
Rh 3.1787389990545782 7.919634231740611 8.667203485237904
Rh 5.870474697615417 11.673254870139354 6.045232339580789
Rh 6.741336457254552 5.176434525812671 8.037301599621923
Rh 4.990809130749223 5.669043277376986 6.1688331562358325
Rh 8.373298678063536 11.952753852258747 5.444111882654272
Rh 4.273014170737097 5.490927772506099 8.744681972319741
Rh 2.026038217524774 5.922308566990466 9.811004423886489
Rh 3.576491013019149 7.643994758078987 3.439026312664927
Rh 5.389834697127133 9.02218454351727 9.83764753440757
Rh 9.276942024754717 9.520732469378721 5.611969391303006
Rh 6.959399941250856 6.970326954087716 9.99366541265303
Rh 5.193075672847395 3.1195086432701453 8.42358057328069
Rh 7.9147775510424605 2.888078218519756 7.929678779871365
Rh 4.590714242901623 3.5652947431448676 4.003879347398856
Rh 5.443323831914191 5.947215295633321 3.6440335607845027
Rh 5.6501501855918175 4.232192354844685 1.6570706964348345
Rh 6.2048138111772575 3.370965256416859 6.040554063820028
Rh 6.202980081383559 7.834984461995931 5.348807388280534
Rh 10.315865031972558 8.733255645564185 7.8145181721798425
Rh 2.5528364530865484 3.6072503424081 8.675628471949226
Rh 9.527180461397235 6.911558667410277 9.505915227678305
Rh 3.558264189005154 4.2267675145599855 11.01543832309432
Rh 7.561274970759552 5.6192564349880625 5.532315258215355
Rh 3.589060321724458 3.509604295620118 6.3633195567802625
Rh 8.358053029183155 4.641535871598979 9.988346623432255
Rh 7.207344418919495 3.9257830609926976 3.6137896748324767
Rh 9.319948530973726 5.055032615549167 7.54629103043079
Rh 5.5512300690690495 7.548843204112144 7.8305831196030065
Rh 6.415873388770438 11.19643351313553 8.745410186350728
