51
Energy = -305.42323368 eV
Rh 10.536533103648516 4.157241533684493 4.4944785100068065
Rh 8.907178409439432 2.180326898532496 5.1290720846969275
Rh 9.62021792783805 6.458461574975951 3.879853881279915
Rh 11.02303696238868 6.01061112738452 6.138101126599552
Rh 6.6146074978309075 2.187302088330774 4.177320551572763
Rh 10.581922010168231 8.43126221305026 5.188399401769811
Rh 8.248086192295403 1.8679127532500082 7.535001110743034
Rh 8.075201712126345 4.35758181473252 3.913986446887621
Rh 9.415296285809742 4.129096857999476 6.803070209492009
Rh 4.461761907233342 2.1279165475999418 2.9119212576046283
Rh 7.634586871168838 6.1293908645432635 2.1867308276896216
Rh 8.008943103113404 6.265172481374115 5.7364527602354505
Rh 5.792697874282351 1.4468308259860434 6.896853103606255
Rh 10.210287955017755 5.649366503654538 8.729351590909246
Rh 5.964703261304268 4.172165019476226 2.4938477845180462
Rh 8.8737356616839 8.77180526080885 3.2341551171483056
Rh 8.889018403632702 3.566217789046246 9.390946719159572
Rh 9.554164347945154 7.6685776720650365 7.364900818393228
Rh 8.111653522430013 8.960732853244744 5.634407098722845
Rh 6.817349047210346 3.786481135181867 6.235354700828637
Rh 6.350099719601766 3.186096989522649 8.734779492335889
Rh 5.632637609763023 5.4691828605137385 4.687920261117591
Rh 7.605633335515713 5.429495582965845 8.236204845033523
Rh 3.5363436748675174 4.466324972226796 3.44664840784029
Rh 4.801053612200938 6.527266727524968 2.443594604651445
Rh 6.665060893550446 7.721389139290192 3.774466452607112
Rh 6.937027280583287 4.807932143206497 10.662429572546115
Rh 4.467419441590246 2.881221236736844 5.2960510134454335
Rh 8.45564940687459 7.4319374614973 9.669506938235285
Rh 6.7437027491681905 7.7466556952543115 7.5843578654464485
Rh 8.226623519415952 9.698989887044533 8.258596069949311
Rh 6.4485621514928075 10.230336316910927 4.109367273517161
Rh 4.325458027627264 8.917660089982427 3.587395731830804
Rh 3.102571966504596 6.760208970573475 4.438932843810836
Rh 3.045243611483165 4.818111932986905 6.100848704519837
Rh 3.9850348386678123 3.1257832414158293 7.772783846706131
Rh 6.911228166982923 9.30887659351773 10.44261414112716
Rh 5.1836446899184265 5.629090975795327 7.234730457042434
Rh 6.072327392633336 10.14088730225028 6.616521034318583
Rh 4.98280510982627 7.797010510495953 5.751031311677841
Rh 4.534520370552425 4.858450529517323 9.659703023628044
Rh 5.882879077505087 7.005207268378317 9.886185352162467
Rh 6.330057882151154 11.316386470194132 8.898333191768886
Rh 4.928369619256598 9.162953548553707 8.85881377485865
Rh 4.033592524551143 10.828359961418217 5.227140840355909
Rh 2.076191366963779 9.031815914930464 4.754550878333611
Rh 1.8235100304121392 6.97077219267749 6.621924486748238
Rh 2.2203992815526514 4.871586077240065 8.448831064257242
Rh 4.013744310475053 11.334106524729648 7.735488605702955
Rh 3.538152546246212 7.026006224668302 8.533641300153917
Rh 3.1932091550467248 9.023074977556625 6.991445989842895
