53
Energy = -318.40255582 eV
Rh 6.292386573150663 1.2193036495661285 5.916183565781939
Rh 3.9183931882405347 0.8855986924844153 5.130774580254543
Rh 4.533412549266601 0.8529473340155446 7.668271325048525
Rh 6.6941435604732265 3.2370121146708195 4.475560935596465
Rh 8.39881467225499 2.702940919181372 6.325382290554354
Rh 6.739872482524744 2.171826128611943 8.342162474542159
Rh 8.52747680759564 3.8851383418196654 8.610737544515484
Rh 5.2758531152881 3.3916998146761044 6.711183507747036
Rh 9.815961396118679 5.052842604237013 6.705120780053193
Rh 8.224755415507278 3.4088050980202627 2.4350682260825645
Rh 9.717116316713902 3.744886898077053 4.527646828016943
Rh 4.1331963806375 3.1891044137255853 4.329925589707492
Rh 2.864068120345127 2.6751842989622463 6.731997913097338
Rh 10.605299637034518 5.397859599054775 9.040508595731144
Rh 7.53685300055329 5.638355762081795 1.393479427543553
Rh 8.009001339697889 5.421109996684056 3.9450026283488664
Rh 9.51537725920431 7.21181574922107 5.0597195967315125
Rh 4.1665884675201 2.964958327319434 9.034037416088063
Rh 11.324138952768138 7.021843847981775 6.95661996287959
Rh 7.189675562033943 5.035776296059286 6.399781243719723
Rh 6.1208781999013055 4.757589563801529 8.961609500091116
Rh 5.621419356373209 4.057475916375171 2.39705634280974
Rh 8.1922800790456 6.132868576963475 9.715749278681109
Rh 8.291867678616324 7.074897839063282 7.443437680838954
Rh 3.439193248351336 5.363121732724838 3.0839060107357046
Rh 2.367470707474709 4.777488628122561 5.41664758533232
Rh 3.9363167249025977 5.200193298553754 10.218942763491816
Rh 4.8106188976895385 5.696592362945711 5.302537930604525
Rh 10.120019155148274 7.888098914583241 9.018353550477176
Rh 5.767707072542066 6.5138082527713905 2.9038912202454723
Rh 6.799123002012356 7.421761091655014 5.243353227593972
Rh 3.5271719974157736 5.068168065355902 7.701930243282056
Rh 5.851378614058456 7.051525371036921 10.092952181940586
Rh 7.698905798103242 8.764235108352182 9.4640165445047
Rh 9.818077843770139 9.146884697365449 6.724571365501831
Rh 5.618111381219685 6.9648680813891986 7.505369214951955
Rh 8.044808515381837 7.746268066856485 2.882852403402957
Rh 1.5332752971180976 6.809686980978771 4.215682870153288
Rh 7.072477627091783 9.337322034779996 7.032819885097123
Rh 3.4639849227505635 7.343808119034297 8.926884975611841
Rh 3.8109202391363164 7.790139178399691 3.910068512395889
Rh 2.9096505878114947 7.219627631948665 6.3575133056826125
Rh 8.38449479653135 9.59759770183237 4.619481283689919
Rh 4.6830892439961 9.085602426186055 5.865180062628819
Rh 9.546231226746242 10.429737704458448 8.919727784095553
Rh 5.188929283600006 9.23988644408853 8.894600649299765
Rh 5.964620759038087 9.2182249365466 3.573714235420039
Rh 2.942608651007578 9.46016053190011 7.65091904646383
Rh 6.380427808428823 11.0726241501527 5.2793209503933385
Rh 6.987556314604465 11.152441429275326 8.781336410160705
Rh 8.604970820633183 11.347956373686213 6.64145067564047
Rh 4.814016934600918 11.240344724307276 7.304397010201901
Rh 6.626259330508234 12.943051728987307 6.9711680523867
