50
Energy = -299.26293285 eV
Rh 3.1220213946931654 6.095426937622204 1.0114560988064962
Rh 5.55284724461811 1.302970547621147 7.104680791359944
Rh 2.848893063187565 7.481269504393243 3.1871966255888378
Rh 9.327048047540435 7.788332114013819 3.3934065980136805
Rh 4.5915410014590075 9.494375003401334 3.5536766789396323
Rh 8.67401661769645 3.965748422591299 9.114810671563191
Rh 4.706135481597425 5.775809308454539 3.739341205419692
Rh 8.764574530779235 2.818451505083717 4.798694520466457
Rh 2.328163334716277 7.2862871884455975 7.57587109594798
Rh 6.2400694972891335 2.297309845565301 4.860420036327376
Rh 8.520286815734211 9.985666895384329 7.4321089924534744
Rh 8.468670182234504 6.303978431278948 9.976349034048463
Rh 6.281829645219491 7.559082826158353 9.612783804491654
Rh 5.360951267947126 3.913007839278497 7.682998919929458
Rh 2.416786486146403 4.75533528893187 3.110761223774925
Rh 7.18328847690922 6.375700736687837 2.839652821855824
Rh 8.450383689543079 6.926961178450623 5.57066751332465
Rh 3.2834865796153467 3.566228860653543 0.9859025262158924
Rh 6.613017163620426 2.4158780821349404 9.299411155008757
Rh 2.4641238572953936 6.015974472060099 5.316323837598225
Rh 7.600352546447457 2.94299580766774 7.020304157693356
Rh 10.220170542110553 8.720899712811011 5.859714387222659
Rh 2.2702306990181085 2.2016949244034274 3.022045342488373
Rh 2.7581021641764463 4.7568262623128446 7.524501260683154
Rh 5.967983243790329 7.747214051190418 4.7446648069267425
Rh 9.257136397343334 7.52173980791828 7.916130002255274
Rh 7.968083402258841 9.387055951684193 4.98299068969636
Rh 8.445594667391747 8.945855037168377 9.840775028087371
Rh 1.8391837463854466 3.323035659092519 5.307239001828214
Rh 7.071972577378891 8.924290254461347 2.679174550515771
Rh 4.843508854797137 6.293196575222179 6.601935127766758
Rh 6.777341718147315 4.929211854481103 5.207353355933954
Rh 9.16862016775324 5.149693665556311 3.917810712304779
Rh 6.313567343355408 10.07644678827187 8.785211159323273
Rh 7.178669851358851 3.7572275820478653 2.9229232071427265
Rh 3.5524764174352663 8.364217722890581 5.545039843224989
Rh 6.211087207211301 4.917923763099806 9.960518294107942
Rh 5.043466452668341 7.559806315120171 1.8961273129798843
Rh 4.170715303516604 6.220022153945197 9.128632452679664
Rh 5.452319606745019 5.006920648027239 1.4120191251102725
Rh 4.66334350720521 3.131868203873538 3.0151534198516843
Rh 3.810778656139601 1.4961191170141317 5.028776403981473
Rh 4.379060064211415 8.625470516490534 8.064436531268466
Rh 5.598378749896872 10.032086427197436 6.019157053450686
Rh 3.9288689715190257 3.6666307747756464 9.707849157673602
Rh 3.2784989433491685 2.3179270135905568 7.442784052699316
Rh 4.2322405732935175 3.9721262428016653 5.438399570622749
Rh 6.7787180100978075 8.122240672907981 7.2399134285808495
Rh 9.384096926095308 4.745665213314448 6.538713078798006
Rh 7.291627661640343 5.674125643030359 7.717522684546269
