53
Energy = -318.29296102 eV
Rh 6.980679413671475 6.049431373695072 2.3245196980905707
Rh 7.419164826027993 3.685961275632235 3.3856310527309637
Rh 9.382803454881229 5.013056884101726 2.4450560215073818
Rh 5.080903779921791 3.345250027726296 2.660561950318571
Rh 4.335896764684111 2.4982689317247004 4.860367149497302
Rh 11.339647490286014 6.684646066099023 2.6611100028682557
Rh 6.699949621502683 2.8464858168949654 5.632752539662756
Rh 4.60077314889136 5.7933598355940825 2.2796379681038834
Rh 9.011105535777924 7.59436354600806 2.5309523406491485
Rh 9.037091550275926 3.7195211756425492 5.737409358833643
Rh 8.343794111399387 5.921820670897093 4.524836407859001
Rh 3.0076797226239935 4.5289561595418215 5.696019068429837
Rh 3.470172217798639 6.58267597258475 4.403900737562489
Rh 10.845862814873447 5.26576769071186 4.6667793381357034
Rh 5.465211655887053 1.268804369754474 7.03786795305761
Rh 4.219424845738311 8.411333970583035 2.7725896413612596
Rh 7.2629933209630195 3.0060878903202037 8.09430148528811
Rh 5.522228508036568 4.957025632057891 4.668104938262976
Rh 9.96582569199117 5.77240637845651 6.9903388411167455
Rh 6.784034705608393 8.732124631931422 2.222218808970895
Rh 10.410654551165187 7.788291919530603 4.715753607684964
Rh 3.1689050857357204 2.368853605201754 7.225519438379015
Rh 7.285222725512797 5.356117046318407 6.858683289826295
Rh 4.989619593137607 4.184768550973593 7.26019724223218
Rh 8.336968136501591 7.671426857802924 6.422348280436749
Rh 6.106353207270855 7.4931584417918655 4.404384513612198
Rh 4.929978498169228 2.5401529936060756 9.227279585581952
Rh 10.687679873396014 8.461124772076694 7.138763230743815
Rh 8.721035392117656 4.867167094981996 9.03600200044195
Rh 8.16452222694485 9.224386934800734 4.332120854656524
Rh 9.890388304023835 10.338459252794868 5.6427411259710745
Rh 3.884940969147894 8.854506479399157 5.354591433421151
Rh 5.7393104200287555 10.132029668207956 4.11886524746507
Rh 4.999470518780508 6.703228373606299 6.613156989201576
Rh 2.652593285881466 4.740167509758494 8.249307710118948
Rh 6.1456270471317715 4.921085140252801 9.48353107523018
Rh 6.237597452398807 9.023250425927587 6.563047360077528
Rh 9.241155586946608 7.462113764712921 8.890388353393474
Rh 2.527387773521456 6.955310112163714 6.923595279422212
Rh 2.375055042756027 2.6379405647568452 9.635604670804701
Rh 6.615123038095565 7.380248830396303 8.620568092196205
Rh 8.51271328284098 9.843428678590703 7.759168738755265
Rh 7.356424905141665 11.204292298391787 5.919289952127113
Rh 7.762988986072997 6.552257342024315 10.75066362812531
Rh 3.853890448411164 4.5002237311032545 10.494945357271446
Rh 4.706119265804543 11.095983147373541 6.333981602846046
Rh 4.060923269165239 9.042479236377966 7.943829504492525
Rh 4.030441140653852 6.735467922806483 9.082170435071601
Rh 7.714340588236417 9.175251060190853 10.118518703116461
Rh 5.21317668184309 6.467987631445677 11.337375311717796
Rh 6.153133058771759 10.562253560238727 8.535504836445085
Rh 5.181336004579844 8.801656179570802 10.222113611151876
Rh 6.659640542551634 8.306490861087681 12.268850153850805
