5
Energy = -21.08147782 eV
Rh 8.067651553443797 6.792925220713479 6.588827543544116
Rh 6.178178039580196 5.528018907362909 6.092636532892981
Rh 5.81968992338259 3.390463984188146 5.546742625773151
Rh 6.7386611231412274 8.620793553501239 6.965384013594715
Rh 4.840310063580799 7.332012126543626 6.473231326694579
