54
Energy = -323.86708911 eV
Rh 11.113372555808125 9.122140308026824 5.098065933338732
Rh 10.897456306059382 6.976022488544716 6.664682855658108
Rh 10.22761815386981 9.34725122236026 7.688479335129084
Rh 10.379937857640636 7.311914145891734 9.23617442620798
Rh 9.72093992587134 5.0150599149971224 8.327193459957808
Rh 9.839938858153111 11.24888549979161 5.878905775632478
Rh 9.598148036899643 7.195238319131673 4.294202358364389
Rh 9.193043196942451 5.203449372722615 5.787532126163231
Rh 8.757573532121647 2.982594758686254 7.071327383647596
Rh 9.087978775493772 9.888323535453752 3.4595154166339372
Rh 8.648724978635391 9.00805581624783 5.699866114802117
Rh 7.6549848992825895 2.9601576496605766 2.9792689533613026
Rh 8.429956030872608 7.168523172756424 7.489831080316105
Rh 7.732383919477869 3.6011095257632153 9.484482224677185
Rh 8.03400246868621 10.76627626423465 7.7249180807724045
Rh 8.32614172129672 8.855173574292879 9.366581099804675
Rh 8.043280477727121 6.169855753328568 9.963852785471042
Rh 7.3470299641956265 1.4519287658990578 5.2799285859323595
Rh 8.02118425578424 7.838218629230803 2.3596194692111045
Rh 7.996570131001716 5.472507797093378 3.26049838859635
Rh 7.053708776036956 4.9890783188432 7.526300757612653
Rh 7.213287537390187 11.145619592271885 5.341194901505048
Rh 6.992396305720862 6.636632567224437 5.334151097246594
Rh 6.404655831490996 2.3106206565694674 7.724373234408151
Rh 7.046883306278105 3.9103077218660847 5.245146742707013
Rh 6.662873396262338 8.077017214173576 11.084163253324402
Rh 6.4165330509975504 8.88361630879735 6.792941280140135
Rh 6.572996322020754 9.04813708197498 3.9996709769128014
Rh 4.68658919002327 7.770176241598815 5.236473729799289
Rh 4.921698823777811 5.24082754350198 4.449584148639025
Rh 5.798806759042972 4.454652950466825 2.1799876701623346
Rh 3.948956383178901 1.9574189768538968 8.34210328692131
Rh 5.0768496265444965 4.1553219908533165 9.067213548267084
Rh 5.4010432143565765 5.875017954108923 10.777321013490232
Rh 6.03300640031195 7.2197094537664475 8.706263518362261
Rh 5.308275485286905 2.5016945252604077 3.962672260815538
Rh 4.624514244895813 3.4987750065775214 6.326666240407375
Rh 5.917747123839408 9.80918888260413 9.090296805250272
Rh 3.9883983712463404 9.070728560397287 3.2366541517715994
Rh 4.994565198296945 0.9637899093122588 6.07677014986918
Rh 2.6692314961403754 4.225218592132043 7.816583363157631
Rh 5.561918610470093 7.017883844496341 2.7391463970319485
Rh 4.7130156117917785 10.310801673232234 5.536116253420623
Rh 4.203819325248996 8.279222858617432 10.329020987022387
Rh 4.712094344124987 5.962519248507937 6.945169296649035
Rh 3.313130378291172 4.803858073840737 2.5741660639023443
Rh 3.3568418183808384 6.291055621279604 9.073473992331081
Rh 2.5694617606341255 2.07986132167228 6.127171975294366
Rh 2.936229660821695 2.5076977579993844 3.6383399813150237
Rh 3.9062292022751053 8.536801494094064 7.67705785677892
Rh 2.5467323479413704 4.5076436634606605 5.172582641274001
Rh 2.4535601218269982 8.918780189927675 5.43769646107853
Rh 2.685136543183454 6.816224842209622 4.012752901353323
Rh 2.2607021670105243 6.597654504297733 6.6718607050393635
