53
Energy = -319.69851005 eV
Rh 9.032773935850033 8.183976158380458 3.1063838848184315
Rh 6.810436550660917 6.811092943798385 6.603687161046759
Rh 9.491143978332289 11.127025161006404 6.673329376282945
Rh 8.171122535377574 8.983256360847921 6.6221448418868025
Rh 8.193506640026953 10.377346465833007 4.486372001158706
Rh 4.647949946364519 6.811026692223573 5.251605459644849
Rh 4.589514359006884 5.437742580807484 3.106652332249403
Rh 3.1985156034300823 4.624041225429355 5.332522447228027
Rh 3.209548628993438 9.02491923648953 8.027556245687222
Rh 5.450849210867999 8.983540045902318 6.622148877420468
Rh 5.442179442096215 10.360784854227228 8.871325772010449
Rh 4.131663792538586 11.127613989191643 6.673005515566907
Rh 8.180255394697236 10.360522244115463 8.871522256055695
Rh 6.811235646397102 8.21593182979077 4.354445906182845
Rh 5.429377773234867 10.37752177816431 4.486421006051555
Rh 6.811135735120964 11.210342165807447 6.673716445416518
Rh 2.480352644017447 6.8109534119858886 3.973440080965164
Rh 4.589731764189006 8.183935800825235 3.1063695124514727
Rh 2.385998177707605 6.81102863124577 6.6531256708737105
Rh 3.1989066875678813 8.998118144600484 5.332229487191823
Rh 6.810667560731642 8.1356778788679 8.780782138485653
Rh 4.58889102772753 8.179735504204102 10.188364571338706
Rh 2.4761562664814214 6.811135281801312 9.321881434068573
Rh 6.81127725248313 9.41168359796801 10.955877696678625
Rh 4.601201139558542 6.811201306081522 7.949828369993626
Rh 3.2089468619294155 4.597262390112077 8.02786700328041
Rh 4.588662413882124 5.442526430689299 10.18835031061815
Rh 8.192804170064704 3.244362067581509 4.486976699732063
Rh 5.450429014947992 4.638700853560042 6.622382689187505
Rh 6.81095955843643 5.405961931258275 4.354679998675823
Rh 5.42896587076949 3.2445939304206917 4.487130004193895
Rh 5.441568687926262 3.2613652705739398 8.871727495031816
Rh 6.810466613512673 2.4117613065507193 6.67413787994473
Rh 4.131092928135902 2.494569137014167 6.67348146116723
Rh 6.810416138017452 5.486548895901269 8.780881294841718
Rh 8.179651635749577 3.2613459991559535 8.871932318439047
Rh 10.413026181067064 9.024639170685267 8.027767935355504
Rh 6.810946997329122 6.811097930622016 11.036353408925411
Rh 6.810822053814945 4.210539758339297 10.955928559400448
Rh 9.033163138921687 8.179732161579976 10.188767332096717
Rh 11.145832754360864 6.810762815465121 9.321910308935088
Rh 9.020238249097982 6.811012574049795 7.949791067549
Rh 9.490383091495502 2.494616315984202 6.6737454934758755
Rh 10.412508097635746 4.596944697445804 8.028175247145567
Rh 9.032839265589764 5.442243695597216 10.18880817949442
Rh 10.423847412121491 8.997853761788589 5.3326495409501415
Rh 8.170790898396724 4.638764937463655 6.622363003923826
Rh 9.03250912840282 5.437477736964454 3.1067289014849417
Rh 6.811209632478901 6.810779209257494 2.2719178800918844
Rh 10.423278276157895 4.623669858201687 5.3329430013850505
Rh 8.973718223731932 6.810891833551185 5.251795770698995
Rh 11.141820421574186 6.810583333531 3.9739812278691486
Rh 11.23617222632304 6.810700266032299 6.65354935975961
