52
Energy = -310.32690595 eV
Rh 6.968348838112535 1.9900578516136012 8.579030148119958
Rh 7.165201121036708 8.537750030853601 5.795549598728076
Rh 2.7616438444739355 1.6339973081907162 3.6445103510460806
Rh 2.1518893803373724 7.454126345233178 6.54790396805197
Rh 2.2391769956164227 1.1552381793277509 6.44883224102297
Rh 6.79455031044435 4.465390567672258 9.620989586165356
Rh 5.714117223223509 3.7540281071142374 1.2778363652303772
Rh 3.4677347459973524 3.1268540593527323 5.68418471159034
Rh 6.811613600445129 6.122446238989928 0.8290395686822402
Rh 0.22470020609235164 5.230679152467018 2.2563742613932853
Rh 1.4294252110555383 4.626334193599516 6.296871709915997
Rh 1.9170098266228452 5.7397353104542 8.608172807654771
Rh 5.702677985868658 4.523338711382845 5.482113970413028
Rh 4.281909224040043 5.688939104707077 0.3266466584226264
Rh 6.110943084436801 6.172440526203477 7.6848260857447865
Rh 3.7362740613825305 5.598514874958513 6.793757138440159
Rh 1.1276335972147329 6.4009200353206905 4.3968077964570975
Rh 8.549283513703635 5.505546919468911 2.7400271808714205
Rh 8.385000281560833 6.986100518306936 7.3859277753255
Rh 3.7480663500748044 3.1323368795482143 10.953126836874432
Rh 1.7972427738630552 4.7108955024673715 0.35058676496979346
Rh 4.856021481170235 7.455922095769263 2.119998408273885
Rh 5.993202440069028 4.332743232935079 10.134599684219415
Rh 7.665270547664736 3.4802925514035326 4.10241310400579
Rh 6.409035379608453 2.0987985681076102 6.04729200975745
Rh 1.782907475667502 2.2109569428867735 1.3487974751444927
Rh 6.172308344921253 8.66218781149955 8.2171012797405
Rh 4.894633740782718 2.5803554420470447 10.027864973070573
Rh 4.136316898377834 5.025358697040411 9.706434085551132
Rh 3.3468477776137435 3.979264948469404 2.2237521420483652
Rh 4.475937105923056 1.279861417258178 7.733648230129171
Rh 5.326043548865264 6.996397294470229 5.176708712943095
Rh 5.372776045530525 9.284107220045785 3.9498894566403706
Rh 8.10820208228452 3.422589518782515 1.474793176272792
Rh 3.48205098727997 5.402575536442714 4.275027202093907
Rh 7.881281270735389 6.011771862130681 5.143845822042922
Rh 2.737922681396545 3.2647479799822854 8.23757680566082
Rh 3.152246963648803 7.982197937873085 4.147042600747241
Rh 4.442766420903283 0.6854687184280983 5.2388490817446085
Rh 1.3542656816495116 3.7408448639404557 3.849771858431474
Rh 7.224237277211846 7.661537775124409 3.176390223984008
Rh 5.964857096834951 5.407244766376463 3.148490713852641
Rh 7.748829045586174 4.154040969557474 7.069486388786721
Rh 5.190266640229978 2.711994921650417 3.7070567642747623
Rh 2.489787252518065 6.455460781457099 2.0886728295833166
Rh 4.4027301422423015 8.884135391733787 6.375272581829265
Rh 4.347312846333119 1.4566766384836969 1.6127326296236844
Rh 6.888645714334891 1.4142432555591102 2.3928497511013282
Rh 5.926040841220026 6.834921726436337 10.134599684219415
Rh 6.326715372292574 1.7789030156067946 11.135383946620781
Rh 3.941958787607468 7.4303386538823695 8.562862983556784
Rh 5.210755162909575 3.6950042764028477 7.800850084352239
