52
Energy = -310.85283789 eV
Rh 7.7598300775435 6.154025377800064 11.005720327183138
Rh 7.192331555567306 6.742872672878768 2.348386117988058
Rh 2.1838322702105155 5.98512665902782 8.909288572181902
Rh 2.0479608412290573 9.271097491085802 5.497068896330941
Rh 10.597066284361647 6.53925917164339 7.583349071307952
Rh 4.085217234891915 4.201206488069839 7.926123549109622
Rh 5.391874552567353 4.76597096539568 2.461565537561035
Rh 1.3029259428945448 4.282909443352222 4.325872548652588
Rh 1.3364068579815018 6.9143931389364175 4.626982445631788
Rh 7.871471613929268 2.221884041669482 7.42399303633921
Rh 5.9176614557015546 6.63458448982648 6.4715872997966555
Rh 7.822377618875686 8.257680325000115 6.504532662283269
Rh 7.558994710545992 9.798023976419428 8.46949905947886
Rh 3.2492819128385473 3.1555859572763008 3.0528228076682917
Rh 11.121037656612652 7.781956685570979 5.4527768233248475
Rh 5.275589359571217 9.172154198686743 2.325975331740738
Rh 8.944143863911941 7.163151107448274 4.3831971223908
Rh 6.23285123093123 8.045711649064007 9.765821013818702
Rh 4.498810648251125 6.924986018023006 1.4375934152400238
Rh 5.838127575653952 2.6563164990529593 8.93308009663413
Rh 9.744140366617865 4.008055298278033 7.655855266915379
Rh 6.791536567337852 10.519292093311037 5.918433386391614
Rh 5.338108820173342 9.006892263381264 7.386695268225788
Rh 7.06298756539446 8.848307248279779 3.9833602949533096
Rh 9.281611000973825 9.645983136973173 4.962322319248163
Rh 3.019069480672867 8.289256258904302 3.2186708716179044
Rh 5.34167509405182 4.820647978465163 10.134989670835818
Rh 3.00963624066397 5.649013472185846 3.138560565060517
Rh 9.996256771126305 9.011992451258841 7.400919034552563
Rh 9.97897466658035 5.483553267618748 9.82770900375033
Rh 5.136295790047487 7.064143562369369 3.9516807550881867
Rh 2.9730034951603495 8.727511734384667 8.155454468048111
Rh 4.627516220386049 9.492463963912908 4.91675297350463
Rh 5.24296464383823 1.7808316628593237 6.627456091076911
Rh 6.948900876059868 5.252423215957546 4.4659130199726915
Rh 2.067511005717413 5.100346878053753 6.56520120458718
Rh 5.360806170669281 2.791598507708381 4.260912025056049
Rh 8.017971871778188 3.8564772987469977 9.520735680083648
Rh 8.68142781046747 3.415867982505646 5.272974165357373
Rh 6.381535179433271 4.091174043647919 6.75497736484992
Rh 4.358683639699674 4.944978008392564 5.277133306426014
Rh 8.452585523249045 5.765582652899927 6.553229450524231
Rh 3.4765614459588927 7.297615748720451 6.026397528266523
Rh 10.57449842496413 5.176048151939748 5.265702858981052
Rh 7.250958996868839 1.3649092553550934 4.995388076570558
Rh 9.13147459356484 4.973490610845581 3.0834774805647944
Rh 3.1052527468797795 2.8711212484914483 5.664326699198283
Rh 4.4615770378300255 6.730288900797374 8.606513973432602
Rh 1.0609922704834025 7.415475663183509 7.109758900323869
Rh 8.779454072325821 7.631978272555623 9.151276732646854
Rh 7.008091856624077 5.908023155396838 8.655172456791398
Rh 7.480323265273254 3.1065517324349026 2.9677048334480074
