53
Energy = -317.19393079 eV
Rh 8.613353121397168 8.57901548739494 10.23130129047978
Rh 6.480593433458008 7.213316803677092 10.225436092908083
Rh 8.800869317157089 6.045880850199061 10.318732596429518
Rh 8.967463945039974 3.6072754825237388 10.66804102870068
Rh 4.3036358995312645 5.827557135951049 10.302797474002617
Rh 6.539942687992785 9.454663078467698 9.034963471691748
Rh 6.6273423485829905 4.632336840930356 10.472973611112048
Rh 4.481973377619517 7.988116246246744 8.746533361445078
Rh 8.844210595443794 9.678815519528184 7.959004909432091
Rh 8.118101519390079 7.093002344972438 8.064332808051086
Rh 8.397365615974003 4.459375591066188 8.297786818570115
Rh 6.690236848312951 10.665473102991934 6.791945011999092
Rh 7.122866424644921 2.282016834766649 9.607552335867512
Rh 5.727464023966378 5.763498416924352 8.17543199506417
Rh 2.218560127115976 6.954925377296731 8.681963862019277
Rh 4.460963840020919 10.4373357258753 8.002898346366887
Rh 3.1380763358733095 4.78823779769895 8.149593632024656
Rh 2.556753621823317 8.95027602676309 7.1814128216072275
Rh 6.197025436420551 7.9609470837984935 6.584771814928412
Rh 8.97649663284234 8.260260919542407 5.876472440451782
Rh 9.702978786760225 5.8826037571692265 6.385381220435297
Rh 4.829364182224428 3.275766603753402 9.309716010139322
Rh 9.01172346317811 10.82083859971435 5.685784862374209
Rh 3.735861002354344 6.698136249596408 6.48131025091987
Rh 9.119647748381801 3.429040055458323 5.976271465997137
Rh 5.3559511410286476 0.9976689421210739 8.088798442813749
Rh 2.4957672550917858 8.438833105493144 4.774161963763161
Rh 9.477344578851767 9.41913785749279 3.6131612259730073
Rh 7.198622941606185 5.41191796623034 6.123647158618433
Rh 7.319200202225606 2.2943142202101985 7.189990187830924
Rh 7.019798009845882 9.719156328336629 4.461576478566918
Rh 9.965277387136323 6.8894477329956425 3.9146656006086435
Rh 5.312669899874185 3.662500941526311 6.793462529405673
Rh 4.639968533271952 9.762965222600586 5.524011855203213
Rh 4.877072194106541 7.50817188135042 4.325553546146705
Rh 7.390565948447117 7.1386062987654215 4.183015351364808
Rh 2.5707407662156645 5.937136987497246 4.2229724185457105
Rh 8.537566686911129 4.775996142317832 3.946190961007343
Rh 3.064872067767898 2.313217173650346 7.702191986084444
Rh 9.967001509053285 8.08867086583095 1.5932604315929102
Rh 5.000463579353566 4.99794556326642 4.625114122762646
Rh 2.918938943348749 3.9761958538507507 5.71527739305197
Rh 6.431801214876907 0.6036662439604534 5.636452258962607
Rh 6.7841503878220175 2.9830109489165015 4.636905470010281
Rh 3.233678629395968 7.688278470232941 2.3680305931608356
Rh 7.5115778777438225 8.755280872883217 2.093801450259133
Rh 5.123827213548605 9.474375728933842 2.785860506006688
Rh 8.244391180949204 6.2498560808494 1.9089838925518812
Rh 4.285729860738502 1.7272714109814302 5.549214497855076
Rh 3.922375708541671 5.1125733707636 2.2449374894758485
Rh 6.417137266836496 4.471242569844332 2.5375129097724973
Rh 5.7116494738436625 6.901819307869106 2.0296923056775045
Rh 4.5243952682093145 2.8408696233840827 3.341378664716569
