51
Energy = -305.41190353 eV
Rh 8.081714698526788 2.4971558799031675 5.3172539291370535
Rh 9.781686322812316 4.354143349688297 4.219011511270223
Rh 7.913780812196377 2.604462786510084 7.940497719845314
Rh 9.98281227671283 3.6608818745193963 6.669192443775213
Rh 7.323863750681371 4.166782055182904 3.540530880686987
Rh 5.741185339213738 2.1716510428838713 4.047903244236451
Rh 6.039597457485377 1.5859124171187873 6.5509039468354295
Rh 6.710887265837189 6.014294934349278 1.907956115769007
Rh 10.061195093655721 6.3859104887307785 5.884908270882762
Rh 5.9844658165215785 1.454403356689141 9.153311191841423
Rh 9.881290352996716 3.471467983734185 9.408567125434502
Rh 7.867722819737105 5.010095753931932 5.892421901027329
Rh 7.773799321166842 2.732419093184256 10.49044449854454
Rh 8.455202820071634 6.677435460436831 3.808192120448833
Rh 4.856644521355164 4.556934614205074 3.016625901215165
Rh 6.475984344223947 4.585128714690706 7.998610574862844
Rh 9.107339389575595 5.433058871493939 8.182978771050333
Rh 5.271960971891768 4.02489031213307 5.6598642368846654
Rh 3.6294094243755666 1.9211304979185582 5.964408714667549
Rh 2.949721150852253 3.5136886036538497 4.157409483773233
Rh 4.44498189273693 7.011468430617759 2.5085232305138665
Rh 10.467292079114852 8.108886072981909 3.8835887645588905
Rh 6.582604527912231 8.367026086400516 2.9218764186219115
Rh 6.0242784421312106 6.312464526383593 4.608484200579922
Rh 5.429893340662377 3.7701649058451734 10.231528300970107
Rh 4.40805054226323 3.084937900326741 8.069761956281939
Rh 3.2780505413818073 6.081229905733158 4.61364781447334
Rh 7.6623465884931745 5.286454779332669 10.218108752746984
Rh 9.554797016291973 7.7962968631465515 8.209991257404601
Rh 8.615851732570274 9.810031842509494 3.619953177919234
Rh 7.308566563366864 8.495026265409662 5.390746393491215
Rh 4.138783803309093 9.551828082215817 2.7108524052052188
Rh 4.643258547495434 8.40536387034303 5.025454198621634
Rh 2.1652398574624723 7.925823262680101 2.779706127984564
Rh 7.425832806164365 7.890266042894682 9.82376236320207
Rh 2.7993397477583537 4.387291443114431 6.539573097872158
Rh 7.192309961408731 7.033731862680262 7.436255069334571
Rh 9.625392564621405 9.016917121320295 6.050391425072159
Rh 5.405133740311826 6.335728940485142 9.592274429985153
Rh 6.055116386204018 10.602339050439088 4.0246666726499045
Rh 4.68626610693315 6.349902995415592 6.906325349207925
Rh 3.2680666891681485 5.216106855972355 8.915360168306867
Rh 2.1264564056959734 8.339295707891452 5.157430602901277
Rh 7.74123335963947 9.590960866759987 7.862331102997578
Rh 5.6210121883697814 10.365549823528244 6.542056972866989
Rh 3.501158719658918 10.669060103330661 4.993049633507003
Rh 7.952404505106093 11.054782746807131 5.755123246664335
Rh 5.335053463075725 8.583351071113482 8.333136309010067
Rh 2.278418857684067 6.865266597039439 7.174637136379773
Rh 3.1906499398821873 7.804260442721574 9.379162045292514
Rh 3.2473749993066816 9.36737099665709 7.211237103708145
