53
Energy = -318.10125149 eV
Rh 2.890068863366542 5.801416278438718 10.79433530314334
Rh 2.377325987737428 2.9768285765891753 8.443931673863807
Rh 1.0568458836922054 5.2611886800790915 7.915240451287481
Rh 4.409901332291134 3.3894278425397983 9.937302358855828
Rh 2.05532936771612 7.457213619568201 8.872391558999007
Rh 5.456209065593883 5.675858959368226 10.597923422693853
Rh 2.8016291006839715 4.117608317494999 6.204440517320921
Rh 6.005462422696556 1.375210964020448 5.680086650704178
Rh 3.483857036287077 5.268092100941751 8.494971037255015
Rh 4.723525332796229 2.7081181423653016 7.4369404755564235
Rh 1.553687296837112 6.4388682382888645 5.756696880146313
Rh 4.1817956442659705 7.934296242123249 10.246189197576975
Rh 7.253140675254466 2.0997841608281016 7.7689173338583375
Rh 1.79230048514487 9.04336401920689 6.8155625021244095
Rh 6.433516382017404 4.293045709350916 8.704598081677252
Rh 9.391523240685348 2.39770439265537 6.034150352074656
Rh 3.5575981797012353 7.285932119065751 6.84873810612603
Rh 6.967231720969952 2.232759867041838 3.574193898368747
Rh 4.781198035822533 3.4191573503479775 4.633015117041538
Rh 3.5993390883224325 5.806593643184288 4.409366453810779
Rh 5.602679118130691 7.015782081598661 8.38917091869387
Rh 7.300222230542404 3.6801590717255563 5.695980081201905
Rh 5.214077583728777 5.204871570451193 6.516956636390183
Rh 6.737948994524766 7.938441312348718 10.657837724897627
Rh 8.90297996054516 4.042113076610998 7.942601643239011
Rh 8.106185018062911 5.928445232978487 9.660144365561381
Rh 3.1519987320568665 9.782304768686316 8.868694495176472
Rh 7.618009543590996 6.0744737255948245 7.07850463071471
Rh 6.262655891585109 5.451138576637469 4.108454616075174
Rh 5.910330904547158 7.5964892364669145 5.700048004258228
Rh 5.801458072905182 9.504661983579128 8.768462662795702
Rh 4.651028219396535 5.1903383847176165 2.202866401698381
Rh 8.07489698006126 8.24882003403961 8.471623447363182
Rh 10.008859719744049 6.4506196520521994 7.868632908176777
Rh 7.1001625089931455 4.229200868361075 2.1308995746668002
Rh 10.530958582667287 4.653870918105301 6.038663479326438
Rh 9.15315058461705 3.6451002932740435 3.684037104909109
Rh 4.917131119950143 7.634996951261708 3.037127333365953
Rh 3.0938107967369737 8.362170459620243 4.605692588568503
Rh 4.374676373377566 9.644270514191888 6.604360423229035
Rh 8.70975148131842 5.816101197005252 4.829565128151663
Rh 7.0605560701872925 9.648834890856644 6.508803638212853
Rh 7.437750712478273 7.691081337137536 3.5657193418299533
Rh 6.666748783611748 6.709544811511471 1.3554537323875406
Rh 9.089868516658155 8.10535574469512 6.0690017898493736
Rh 5.6085710746611 9.78070832752066 4.33611186512858
Rh 11.37698661526193 7.030901466219339 5.705749427514356
Rh 8.980620306563466 5.903707739069215 2.2078586529110984
Rh 11.061905812371712 5.4556353111299165 3.639919596076971
Rh 6.420548083859407 9.403989316152861 1.9185558106201621
Rh 10.05617900574306 7.870756689983103 3.634623490286531
Rh 8.2618888732274 9.875707939962632 4.294538414194567
Rh 8.74077253223503 8.398367307099546 1.497629677514217
