50
Energy = -298.51290532 eV
Rh 3.0945089978071727 6.250120174094857 9.122750277766913
Rh 3.0369272614912606 4.02079116046598 7.688993594282284
Rh 4.797646385454465 3.307237883803557 5.819496094546582
Rh 3.960168960629568 8.188849460314577 7.663679122670412
Rh 4.04229086281826 5.754097184285931 2.263452471369569
Rh 2.1154890310984262 6.4188982086450315 3.979271688956924
Rh 4.525061138940597 4.296395941109239 9.876771141165868
Rh 6.356722111615269 2.990113501983429 3.7140768991360424
Rh 6.073351091186387 3.2624664191653667 8.059448713804635
Rh 5.514973592036831 3.7482213815207306 1.4078284211650856
Rh 3.7809699554069325 8.677395039910511 10.149292197415123
Rh 5.507857393433416 7.7083413255424755 3.379605312855492
Rh 6.273917890438668 7.585965037662664 8.599645821473892
Rh 5.362468460276322 10.095359784230117 8.768320402406715
Rh 8.759789253939264 2.1666613953844363 3.8095185587466434
Rh 8.054246646563941 3.6977332637490092 1.8614825195062912
Rh 6.917289708232305 5.021226184961014 5.645268523111709
Rh 6.530541844840551 5.448082112125868 2.987050212522545
Rh 4.654201274797577 10.076710600321737 3.71342388195729
Rh 4.463398110099575 5.6632606537923165 4.785759896732514
Rh 9.361932958204031 8.839898143339632 5.481405630006031
Rh 11.689383418966953 8.463000617990472 6.228997066288812
Rh 9.865021258503651 3.238281420204602 5.814863550221353
Rh 3.909672561444307 3.3518444654805055 3.3936372081644683
Rh 8.970239013096972 4.714081770051923 4.087327198945118
Rh 1.860730632334449 4.414501955870448 2.5452306816468577
Rh 7.960035060091346 7.07524111218706 4.311593006345993
Rh 7.342074218988827 2.499935745506949 5.993368201804406
Rh 8.24345008860823 6.792164635718747 7.002248717735688
Rh 10.54701492127957 7.176497134035001 8.00722549967642
Rh 2.3294578050920944 4.123644763741947 5.199361615611935
Rh 5.958965031945054 7.532938723587822 5.970017856760555
Rh 7.041814340649547 9.508975562430548 4.565807182968219
Rh 8.427669347250601 4.241713733576246 7.634932853440498
Rh 10.25774163361623 6.330173081395611 5.547711575803997
Rh 10.88925032292449 4.707318294656853 7.574049066994579
Rh 6.652298855229508 11.78183130874126 7.439219680810792
Rh 7.493002512863694 9.423590694241462 7.129500114294817
Rh 5.024725554584673 5.586836782896987 7.476594668687691
Rh 3.5758306104253683 8.236191209389263 5.061204923472649
Rh 5.125554046234321 10.093882735489212 6.192497891395577
Rh 9.93145843619871 9.64830794089106 7.87148952357553
Rh 9.366582707539227 5.616946249230194 9.576500111335147
Rh 6.871404613682865 5.200728323976509 9.448850525588297
Rh 6.5071408899319305 8.90274162596677 10.80366423251987
Rh 2.57644822216401 6.345437614985702 6.540134520908706
Rh 7.6860756613155505 6.6310963152043945 11.335825006930113
Rh 8.60772262350091 8.093579525412606 9.472839296074365
Rh 7.906243216347755 10.571712309467129 9.382926529505887
Rh 5.145875505917599 6.67928006291228 10.699441042732508
