55
Energy = -329.85188738 eV
Rh 9.664954441961836 6.851599496360811 3.4415396434773626
Rh 10.532903568134785 9.109489619951562 3.479140416340589
Rh 4.864932577363486 6.917850671388965 4.79795968303929
Rh 7.333914016095795 7.122419532058414 4.192407071475195
Rh 11.566522579089103 6.060394664663805 4.983895225603894
Rh 5.97006631025236 9.11926413272754 5.213772247821147
Rh 8.487397053552408 9.74768959421693 4.8642881071554545
Rh 11.030785988463473 10.458364272242246 5.505953954966806
Rh 10.195785784363078 8.053011186260429 5.875855358587621
Rh 12.633001402581433 8.504081754235973 5.054723620418591
Rh 6.798236816192689 4.788116877258491 5.406605329730016
Rh 6.739323341426412 11.503169144186606 5.323940457206841
Rh 4.180815534471909 8.280348052258592 6.983178400392943
Rh 7.627643573130416 7.7667521355040865 6.5450031759150376
Rh 9.152975206336267 11.892580818598244 6.25815574947717
Rh 9.080588341960302 5.673818813103131 5.643268427661078
Rh 11.514898677072164 12.013232887775201 7.391143244721903
Rh 7.12989492589686 11.553591467558968 7.751594424389357
Rh 4.818124453589678 10.845873367343723 6.96150719866642
Rh 4.794236340766117 7.038099567211386 9.295549025121144
Rh 7.281080852687923 6.825387839598727 8.892214150979518
Rh 5.6296842718798565 6.181655806378094 6.982870387088127
Rh 12.36159210322193 7.219579551409409 7.2067193053820455
Rh 9.678954553762216 6.771532651940746 8.10474417679191
Rh 11.572795720643912 9.554644993175149 7.852303560043081
Rh 9.031680772168759 9.50558028298046 7.908971892970454
Rh 8.419168713646513 4.079019400760773 7.397586386809185
Rh 11.02405659916 4.9283618316877265 7.203335895821436
Rh 6.255965136323203 9.123085033896139 8.279343268384052
Rh 11.600923863957762 7.712295820528711 9.675044119181981
Rh 12.833575493442353 5.437574297510169 8.901482195579788
Rh 7.441285112855818 12.982055960650946 9.927374904450378
Rh 9.464674305876967 12.021971859729012 8.756090729979954
Rh 6.270833461913125 4.534575898078079 8.801294725446176
Rh 6.441605610722686 8.15265960424537 10.974020614344111
Rh 10.476481624752365 3.4358240869980334 9.03219505397408
Rh 8.631111961599904 4.8697040157269775 9.837565092448873
Rh 9.085912664153328 8.186088277534239 10.198749105058555
Rh 3.011824110241682 9.925958587894195 8.387910280467423
Rh 6.638347589493991 5.651608424522654 11.181597499366497
Rh 10.164538845397372 12.713488824396125 10.987218582324328
Rh 7.663597647136203 10.408255676225854 10.077708570720473
Rh 10.880630945579364 8.411590554326915 12.11618593092432
Rh 10.986783645302294 5.37807701899869 10.516918941954629
Rh 5.192423923869137 11.755625020468294 9.424715425776174
Rh 4.551712020509809 9.529045588183266 10.206467865142614
Rh 10.693835757609573 10.233899091443021 10.14275984844096
Rh 8.995424603134163 6.416336995105022 11.995545059937266
Rh 6.912448697386689 7.246487198970915 13.219661523593267
Rh 8.107381849375914 11.798413838738625 12.13156459467992
Rh 11.410625214891772 6.166802627313869 12.73845429473577
Rh 8.379429524259951 9.151149027781717 12.568612307238556
Rh 6.027622207491016 10.258763885946419 12.260200447294997
Rh 5.711306817049769 12.653513320201908 11.770857314978837
Rh 10.322802343981254 10.748758549928652 12.641354683701048
