51
Energy = -305.37406413 eV
Rh 7.163263174229137 6.607109623902472 8.940201546316713
Rh 4.296929911151211 6.884263460254307 5.194416962435878
Rh 8.87944233474553 12.001554120981433 7.227787102238629
Rh 9.029196800919035 7.615957688265113 3.125917207192428
Rh 11.583795159289604 8.514284538203203 6.841767809870352
Rh 4.745344062440386 7.7478192557305805 9.111681130978662
Rh 3.2651353333362034 6.376893645836982 7.6775912270051165
Rh 9.411474025717565 6.694173180692587 7.534511041965745
Rh 6.8906981065997 9.233441562900737 8.71581307509779
Rh 10.217561682362694 6.495114039776046 11.212482168770807
Rh 6.569002744037673 11.939770460450747 8.329843868268739
Rh 9.165951631034849 9.299734628661803 7.302092182470922
Rh 4.594200289069537 4.689207217732106 6.588312701794891
Rh 7.015444821397326 5.522788121291206 6.580250357627735
Rh 11.05718138128103 9.997005658238631 8.99533148608562
Rh 5.165455150471384 5.0489612352589495 9.128452421608948
Rh 9.983240652347787 4.473168685772645 6.257919722966536
Rh 4.665264927370362 10.373400996583056 9.05818145008035
Rh 5.206115493805117 9.249355118927147 4.864116164082596
Rh 7.571946948699958 9.631675119320125 3.7212868683106293
Rh 10.570210252408474 6.777285423321308 5.1110159748872475
Rh 6.861881750600408 12.825580745359597 5.9462133137920885
Rh 6.035133329309208 2.923623946235751 7.679729705201469
Rh 8.87325062016959 11.60471146321603 4.73520945179668
Rh 8.388526680524299 9.621728150125701 11.676194190334348
Rh 4.752322852086254 11.235143090188737 6.61441329131521
Rh 8.32120134025657 4.009132652247942 8.105452715414158
Rh 7.076822957116009 10.287935778122591 6.231783285324127
Rh 10.057214176123077 9.359693089399894 4.83440566259388
Rh 3.7015757893555388 8.901938901784865 7.034678551627681
Rh 11.069390498820058 10.996614840962772 6.5273061222323845
Rh 10.536116979442225 4.963736887611828 9.064889570798245
Rh 6.5626557191148525 11.410947836242064 10.814950791803257
Rh 5.9045797603390335 9.027918751206553 11.060546943697293
Rh 5.945620948030348 7.795433241819781 6.819534320393808
Rh 8.470086285538747 5.448902008242612 4.354023449535929
Rh 5.142301264336401 6.559243329844167 11.261069426212993
Rh 5.264677939146794 2.6209551009911576 5.336047033720104
Rh 8.065502624648426 7.747802631704973 5.49950884240975
Rh 7.606856213816317 7.147851125297422 11.556466728684516
Rh 7.723485008865811 3.324576631879102 5.55028241492785
Rh 9.091512953068547 8.2171858357897 9.682874330538766
Rh 6.38656257520605 7.264808489644259 3.592840343176641
Rh 8.42302804087604 4.969325388331379 10.457820684081685
Rh 6.763682522920878 3.1845198425615724 9.992448591237018
Rh 8.691633947191278 10.876666763340104 9.497108137989319
Rh 10.874190332387606 8.977124398018239 11.349850309616341
Rh 11.9782189164739 5.978305319004524 7.103484225035975
Rh 11.529401951769234 7.418356005422804 9.17107558073826
Rh 6.512900010594987 4.714704770747106 12.025274584917911
Rh 5.865779260100206 4.935537333498292 4.428527105529749
