52
Energy = -311.95102119 eV
Rh 7.226821543261506 8.073055686320128 2.662025266407155
Rh 5.488923145870448 6.8547377542340815 1.0789241314665639
Rh 5.285463737248235 9.344036975820977 1.7011178653282222
Rh 5.023563154256207 4.465553885668727 1.8855895902747055
Rh 2.641602461610492 3.4910708806295236 2.0506160934607265
Rh 7.054332146716659 2.8046711052344198 2.495263635304428
Rh 7.401506625510372 5.525174686542413 2.4387730670896297
Rh 4.545108295813693 2.2554064003349055 3.2365202332314085
Rh 3.01224166841337 6.11085651041261 2.150819499042579
Rh 9.382592965084187 6.921749762024788 3.698429996692706
Rh 7.274854308922709 10.657413517759863 2.766604331199659
Rh 3.4687005804428424 8.526065844176406 3.2375678939087345
Rh 2.1061667906820225 2.462191584977196 4.421433213252371
Rh 9.354947191082319 4.199050281788144 3.110448259967503
Rh 6.3007242168770095 8.43958590790899 5.031722943774485
Rh 6.363327012851149 1.0155268610253487 4.513732672025572
Rh 5.127573460080415 6.650782598521938 3.567703660298834
Rh 5.130608201942811 10.33282836722004 4.105650517030773
Rh 1.1119003096053206 4.8283354794986 3.6345394168124683
Rh 8.55055484375131 9.286349481141357 4.566723023510611
Rh 3.5492905158858243 4.537462222883852 4.343728346203086
Rh 6.053235540670739 4.26222369789618 4.269507254247279
Rh 8.092736923572696 2.897348620000046 4.871620369176703
Rh 4.784528894892071 2.629390579181835 5.7531375400632925
Rh 2.3965228574619974 6.764539742556054 4.682736984803323
Rh 7.432611389124024 6.162446248074833 5.145579767438726
Rh 1.709645868278827 4.3733400317804385 6.1972634378309035
Rh 7.244207358647577 11.39727726708485 5.2550457616574935
Rh 3.8014964175947554 8.607242381241118 5.784294554107574
Rh 9.593732945385788 5.009286129106475 5.517180772946397
Rh 5.847402283566599 9.946905543178802 6.923360849129229
Rh 8.416714394398301 9.873356968312223 7.0197511526615255
Rh 4.838067214513187 0.3261891473736459 6.656456875205053
Rh 4.946221911497936 6.240048001008597 6.109693839949873
Rh 9.39767039825115 7.503893338375697 6.243405491661379
Rh 2.6448495461587442 2.064415871883627 6.887046688378889
Rh 6.650055217781718 4.246048164612857 6.746071525758176
Rh 7.053938006881912 1.6404079581311155 6.919705130197356
Rh 7.09775714149112 7.6923135549667485 7.376906752426884
Rh 3.954079274007328 4.38489881423416 7.613934952872671
Rh 1.511393034405661 4.854667458565385 8.694931657685927
Rh 2.6003477463175497 6.687922130258361 7.217463293420474
Rh 9.085880395267202 3.189311720464587 7.2348365177475795
Rh 4.654802322272376 8.016438374097818 8.157410435785387
Rh 8.444060180867321 5.587485488009716 7.948727434292816
Rh 3.20760312078067 0.44727312862939295 8.759115408416921
Rh 5.960082675847797 5.819527816070796 8.715425534919582
Rh 3.560912016684507 6.188984635043456 9.581915938862116
Rh 5.052330028775299 2.1246303673522893 8.464228543194066
Rh 2.664399335566077 2.8196916960312963 9.383164773021972
Rh 7.183669268294686 3.5106438571950953 9.0585192688463
Rh 4.774748108148901 4.006450468472379 10.170132830325722
