53
Energy = -317.90606207 eV
Rh 11.437627087963246 5.634443302304395 3.5215119570097535
Rh 11.406982141716707 7.855738546425935 4.609785252181672
Rh 11.132886725902114 5.832376648345773 6.137952263960798
Rh 10.31650517590499 3.657942436216599 4.660341334406917
Rh 9.865766231795783 6.31500980796574 8.652473263773857
Rh 10.233877270517437 8.264108081435335 6.923481451264297
Rh 9.572073839793765 7.702798684594328 2.7583536446986288
Rh 9.089982977871367 4.562727094275214 6.63370012277144
Rh 9.017042583334717 6.8544783719419025 5.190823682729226
Rh 8.942134312747386 5.241122585288084 3.2489039075229305
Rh 9.643730224118066 9.663760214349614 4.692102375332937
Rh 7.841812728035664 2.4179526506524547 7.2516141590193595
Rh 6.0040152135303035 1.7901981056952818 3.38223177827665
Rh 7.766206490173456 4.492839919368245 8.877114384876522
Rh 7.749850694690479 3.2808132771262386 4.695931753650681
Rh 7.7067333190899525 6.6560022758711925 7.46306905541986
Rh 8.650381305426741 8.579789575407032 8.918596202947462
Rh 7.6359135470372 6.652549017813478 10.268963410682845
Rh 6.7515556096476175 4.097864636700416 2.429948299776156
Rh 5.720215802797218 1.9950939234310237 5.928401235658193
Rh 7.83666271585656 9.040667708071831 6.44081800372204
Rh 7.487135860533437 8.542271268791053 3.9224706927885635
Rh 5.590325047958118 2.986439691876428 8.416581288036987
Rh 7.189355920012846 6.743955670959059 1.969519395834697
Rh 6.486767427226114 4.579510837979516 6.56501870842831
Rh 6.664575218952593 5.966136723991217 4.325820550181497
Rh 6.6269797659175325 9.278056457409978 10.317487339033644
Rh 5.484109851686142 5.147351053489786 9.94784927061793
Rh 3.5621419814429363 2.004522656479409 4.391211333123346
Rh 4.327409701897259 3.134636200941025 2.039446272007978
Rh 5.686040950836803 7.451792625743225 8.73761458387952
Rh 5.026231652848594 4.019595757738415 4.5317920484701
Rh 5.973369885581147 9.816571972828708 7.922888055650024
Rh 5.1973925560936065 7.349288162895068 11.299243444616764
Rh 4.477085082581359 5.58505209103451 7.561523844577122
Rh 3.6113973110710487 3.29927957823296 6.70162816625032
Rh 5.108784226860106 7.897840944685325 3.494237295100092
Rh 5.639889381577262 7.504949181671685 6.084281224412739
Rh 5.690190781733482 10.003622660695086 5.361814969435807
Rh 3.239404447588731 3.966300026247474 9.146364786201225
Rh 4.657508122983127 5.637347224190953 2.5444799561722466
Rh 1.4650444084489842 3.143241360187702 5.516130567137271
Rh 2.6008651289733615 4.370996377871304 3.4940727339131112
Rh 3.2716074444652503 6.542797311625342 9.669003874601648
Rh 3.494989135130254 6.077958763701531 5.259928661085026
Rh 4.069512678352659 9.185547714733735 9.62212028371444
Rh 3.267361671905736 7.8672591676505785 7.469249807133491
Rh 3.6853733198830883 10.334655618886941 7.083666053029804
Rh 1.9298513410607516 5.384587403147325 7.229440474583803
Rh 3.3915682895630868 8.819691995169686 5.07716048595713
Rh 2.6033280963136707 7.128192999665845 3.180604453569372
Rh 0.8294448574592621 5.444219478242206 4.839314977342994
Rh 1.3445575744432146 7.62531145416057 5.818187739578423
