55
Energy = -327.14478384 eV
Rh 6.771706643498456 5.748019492748278 4.09666433517474
Rh 11.651675826383343 8.661749935143876 4.05408113817765
Rh 9.211223299942848 6.877636000063247 3.4839065778515104
Rh 9.287123932534493 9.416459063976921 3.8160953881598396
Rh 9.245680843275709 12.115078844796354 4.4242079392087446
Rh 7.252115454722182 10.705515532334504 4.824261467671234
Rh 6.314455638667644 5.453154595671641 6.571315885034548
Rh 7.194337021975441 8.1518027281948 4.515322234833163
Rh 4.4347667432338325 6.143916599635397 4.958843659002553
Rh 10.837019681370471 10.567704664081475 5.576099607322653
Rh 11.97745287675361 8.51546070914054 6.639137437163154
Rh 6.530410332790693 10.151622775907018 7.265660844119813
Rh 8.807031121392823 11.705887886756805 6.924763499602756
Rh 8.589857550305778 6.436467074664543 5.9092908140538025
Rh 6.234856663118581 12.607815623260306 6.221131137828156
Rh 11.02485255170762 6.605100251144326 5.252905581470127
Rh 4.762753706308606 10.643295832934982 5.490962787861183
Rh 5.177178149611538 8.194058682132729 5.929518692305835
Rh 8.115101956848045 13.990381706206398 5.658841331228444
Rh 3.845917750003333 5.097084972612452 7.18335061528903
Rh 8.803057241978129 9.17763201607286 6.364746988154294
Rh 9.973285617712914 7.618488196030364 7.936377468935012
Rh 13.389658851079453 8.306107621592504 8.564882779028187
Rh 10.655427392207939 10.239028459598327 8.101602040623375
Rh 8.814305908366006 14.005984761218429 8.055044844016837
Rh 10.677377974971668 5.325160218012631 7.365280540486536
Rh 8.22943513357317 5.157705215725948 8.211810845006873
Rh 10.13936222516295 4.668368207069258 9.805248049225556
Rh 4.695769314255016 7.168443589915821 8.22224657023616
Rh 11.821204638549212 6.614277110792033 9.390599933938354
Rh 12.462228829594197 10.167577268283392 9.776667374209191
Rh 3.761780733555434 5.790091336233475 10.065418139513241
Rh 4.230799406114509 9.601789043336353 7.983641756725058
Rh 6.114689997778466 6.6756488237393246 10.478287780977736
Rh 5.742036929265483 4.733557944291003 8.89594396913311
Rh 6.912328227859705 12.515654073869856 8.615255764357144
Rh 9.345318742649537 11.992286923747537 9.490838640390468
Rh 7.221215830693589 7.601934352561567 7.806808989634009
Rh 4.46473867503614 8.486788869976492 10.369526209510918
Rh 5.960896968709687 10.388583100911221 9.731006698780122
Rh 10.566167268634052 8.64611297397979 10.237209487071448
Rh 8.660076647963498 6.929813202091676 10.11577500085709
Rh 8.266522070318437 9.495069882167607 9.157715205545145
Rh 7.63335246379725 4.637403285995727 10.747694934546809
Rh 9.318701001549565 10.509910526008866 11.534474859466401
Rh 7.091094750614524 8.882635750297396 11.441795730884568
Rh 9.906567672542076 5.531247411714659 12.102251465647317
Rh 7.324403654075548 11.887155164035423 11.133203629977139
Rh 11.64660171193576 5.599952498420193 13.924147824201983
Rh 11.867353866574277 7.055790998814214 11.840927948761536
Rh 7.5137050826428 6.531616549664471 12.574891468029426
Rh 9.421697858542483 8.184416861438976 12.528763182970838
Rh 11.639922944584367 9.711703389378973 12.234808914386162
Rh 9.294138473704459 6.476741777789872 14.389288750549992
Rh 11.354730120905302 8.08258159575963 14.194927212804608
