52
Energy = -313.03236908 eV
Rh 3.916482514889024 4.5107209074199055 0.08853434717771427
Rh 5.970438468497616 6.0604898601501835 0.8358258910208114
Rh 2.4186107486776742 7.663832698819852 1.2961227718345463
Rh 1.5635876253810532 4.9848696050916494 1.4406293207227203
Rh 3.2149539279775814 2.764355890129599 1.7029424061360878
Rh 0.7425892307266897 2.6034327569255367 2.457864348771179
Rh 5.694945754316714 3.686930960189678 1.918195459228975
Rh 4.888855397520039 8.070987529059861 2.087190466489972
Rh 7.392428004026681 5.5236364921852985 2.8009630676517165
Rh 1.0783620490056451 6.915401250089747 3.2844840300458893
Rh 7.469664433277273 1.7940529814556228 2.431637844335041
Rh 3.863528490922787 5.870032708791003 2.1796067126598713
Rh 7.302416272393442 7.951433050071235 2.825024677387542
Rh 9.453956464859202 4.754525281893993 3.369265777702059
Rh 9.281090283093624 3.927237608723338 3.0221406098533077
Rh 2.465522964761003 1.386509901815355 3.807759625298354
Rh 7.147894888674874 3.3567002110936017 4.3432731507436
Rh 9.130667104751922 1.7180959716218085 4.513369733637214
Rh 2.491122205647659 4.117857401856724 3.6891490801759614
Rh 2.88976818822681 8.800915770653493 3.654827745624945
Rh 4.990355571609575 1.238505591375746 2.6026613171834576
Rh 5.3876108899353286 8.123635010596187 4.528548936252732
Rh 9.453956464859202 6.397155206774332 4.103252898825455
Rh 5.167067186831779 5.038221937424391 4.236852183211803
Rh 6.709473326585199 0.8250659045339553 4.796143142137537
Rh 0.7549063203947008 2.92098104010238 5.180312902569701
Rh 4.635050002141692 2.5432464318802706 4.662653526616353
Rh 4.262951070716218 0.11145921070904898 5.109852563961295
Rh 9.40299500292589 4.108450207954381 5.607376994614626
Rh 3.575898569874831 8.631795915214145 6.316235868260852
Rh 3.179366982992403 6.5859692396264595 4.632344847399957
Rh 7.868053939683307 8.15655251162611 5.322510328704983
Rh 7.36024187619761 5.733407294133455 5.454374724871375
Rh 1.553885898817168 3.800775850747773 7.666310025740071
Rh 1.1866512537561715 8.006529052968256 5.633083389145583
Rh 7.904665947757218 2.24552118260857 6.724956488063906
Rh 9.451522551894978 6.482729816354205 6.716324031292463
Rh 3.3639910855837387 4.397462717795858 6.096923846915183
Rh 2.8174280193377776 1.8732526156472642 6.44361789956507
Rh 5.870581217642306 3.8817675096402793 6.547653554964321
Rh 5.379863615439402 1.3788094797257455 7.052508143241042
Rh 6.008770752889646 9.225059980455164 6.765836253114922
Rh 5.031146096126774 6.391144403622258 6.48067184805256
Rh 0.9538309064701519 5.426742467833487 5.5385408977127755
Rh 2.455239714993749 6.530688471979805 7.347109350859538
Rh 8.081788355136771 4.655015071999922 7.849928711757043
Rh 7.169996761385982 7.166474888850718 7.735425953566509
Rh 3.9858453847211774 3.2747292713096234 8.349706616627051
Rh 6.545994679800897 2.817917247685512 8.846479458088734
Rh 3.198986870635836 5.467272282272518 9.37040954594958
Rh 5.647164829950587 5.282510047050055 8.769066621746012
Rh 4.781520549496048 7.675160049693795 8.619546810718532
