52
Energy = -312.84438997 eV
Rh 5.115179027662572 6.423688588614703 6.429654570480352
Rh 2.5711545177698283 3.690607627778189 7.22891542550975
Rh 8.767923731489693 4.309149145084851 8.219873976051698
Rh 8.016419707367584 5.1271523474929195 10.580431218383465
Rh 3.9700110999131133 2.38529256558833 3.4545638892243886
Rh 6.553311793685181 3.367047845652816 9.504201023567935
Rh 9.856226578649471 6.02406799200305 6.536951393035617
Rh 7.512727243761084 8.687558797627949 8.216882361743192
Rh 5.041293110064742 3.9446590236586045 7.459480556472512
Rh 9.858651362878195 8.524068175459831 7.20317104817439
Rh 4.529231549446228 4.399560666702674 4.964476683183385
Rh 5.309452446494516 5.5557912416340045 10.419549926362192
Rh 3.5210957355160564 5.8253056732192015 8.500655011056976
Rh 1.831222554338041 8.628041505267863 2.9309510224145683
Rh 4.261471942150554 8.991697204093878 2.3615690347522817
Rh 5.1813906966937795 7.801924360315258 8.907058525374516
Rh 9.571274924207476 7.902178785835574 4.700149360306429
Rh 6.611091528777291 9.338353007915627 1.6526854301462797
Rh 1.2426428134309924 8.054193463928351 5.424921116856058
Rh 5.190445774813009 1.5502321734236064 8.367148512966857
Rh 2.1213733598575906 3.7710391472678966 4.6379977005990085
Rh 7.03966673253543 4.601953314765351 5.99033636907949
Rh 3.186328438997301 8.123782601223047 7.279272853116503
Rh 7.601242977422577 7.171867093792186 6.117340149943327
Rh 5.497992373552808 8.997623874581393 6.57680146629682
Rh 2.769454552291153 1.4025883842558384 8.284694217870673
Rh 2.8681145128506613 1.63315319852663 5.795930604071946
Rh 2.259333003582018 4.237313637335311 2.1587066646510227
Rh 3.5087663867701773 9.024880275960697 4.890105479345197
Rh 6.482299090525778 3.2227790083826857 3.6749336641203536
Rh 8.956173537767445 5.47887352568279 4.161377059718197
Rh 3.8574433889401716 3.5723730522771087 9.635870616926562
Rh 7.407307747641993 4.971786396626973 1.9402296132350298
Rh 7.776208853264547 1.478448178716292 4.95558561596419
Rh 3.047982033519419 6.723152992993611 1.5843939503811664
Rh 6.191480196199946 8.672363686666202 4.117335685778799
Rh 8.902461091645792 3.1457643968122206 3.242861445197708
Rh 7.921415507703739 9.689617902753305 5.87004279622282
Rh 6.802226733080244 5.881084105642217 8.371466092829312
Rh 5.26948942044345 1.9504373228036616 5.702969474844666
Rh 8.416855661506121 9.813186867060562 3.3899243984428966
Rh 8.116226606906316 7.4116014246303 2.5837660756639975
Rh 5.678319115628693 6.939878702690067 1.6585771131276543
Rh 6.4277857713254365 6.033333287311129 4.00511410981066
Rh 9.16077928782501 6.780659275177367 8.954688359303406
Rh 7.34494629019033 2.3772505443945655 7.254647723517296
Rh 4.008929287226489 6.805766911640703 3.984551689914993
Rh 1.5870897735854232 6.164768659155016 3.677075695811036
Rh 7.116515816675084 7.531709609575949 10.5043130334672
Rh 2.5253925039256915 5.961129330107543 6.05683764658149
Rh 9.258006283346631 3.4820402399591472 5.800297077464485
Rh 4.6768269040760995 4.713874239854586 2.375316850560076
