54
Energy = -323.83722346 eV
Rh 8.708916328400305 9.25682823971925 1.941953141706287
Rh 6.095770435975911 9.31613799628237 1.7038494908471673
Rh 7.044399516213848 10.571277434201575 3.8909325376184283
Rh 9.471105772957909 9.230397195206853 4.599417909351826
Rh 7.3880324614821244 6.944425634331616 1.523410796035541
Rh 8.204825830598232 10.867964340863718 6.1766247021010345
Rh 9.60062397188673 7.117474784833132 3.0586654903445436
Rh 4.89087431252331 8.974291823213536 3.8929977162206084
Rh 5.762389465978251 10.102971004218663 6.115752702940057
Rh 7.324782778940087 8.15804872860648 3.6925427381329006
Rh 4.680165336436819 7.1062297487815655 1.8961240190189528
Rh 9.787013069802295 9.056043198916756 7.179958729927354
Rh 7.549710777300971 8.196215627096855 6.144738591341444
Rh 9.11025127810228 6.072388451377909 5.290107646731187
Rh 11.046942789487185 7.470640419522901 5.688673208718654
Rh 8.019344394103845 4.974989918517041 3.2796839450322017
Rh 7.34807545556865 9.724368697973357 8.26526699421632
Rh 3.271916729121656 9.233301798176955 6.099874704836715
Rh 4.733887292613061 9.39891176595317 8.420523205317854
Rh 6.007083392140303 4.7941039817024835 1.7042780625720872
Rh 3.2520272758039552 6.975387683809882 4.144487716811461
Rh 4.99024018908365 7.465108584075105 6.007102271450988
Rh 9.34766201125622 8.988370295971942 9.678379912827893
Rh 3.8369013871028033 4.780251956521466 2.96724759511179
Rh 5.875932031095739 6.165139658607656 3.9361749975614777
Rh 11.07403347138255 7.168156384816671 8.29966815241132
Rh 6.777377971255161 5.642992879961142 6.354070630488527
Rh 6.843560210974772 8.365056809309248 10.420017366494218
Rh 8.849908368219701 6.720385393553716 10.532070855329088
Rh 3.1263774205229664 7.387023399997913 7.816196726945136
Rh 6.246331382250382 7.345804408425436 8.252286253751338
Rh 5.9644016062076295 3.5062152084215232 4.069309369797481
Rh 4.291234936552031 4.948680239003263 5.629983275514852
Rh 8.682794597073185 6.6940666708654275 7.964509587344732
Rh 8.179990453647235 3.648698045010209 5.547682910790743
Rh 10.360648443779992 4.912947920368484 7.062181909440714
Rh 8.078344828687278 4.13296669755203 8.197976364032483
Rh 4.478655227060163 7.229044595091194 10.093575212011777
Rh 6.7236826782276715 5.599131660059844 10.047091667841078
Rh 3.6076244245308766 2.377253652061326 3.781655039943998
Rh 2.005757501379871 4.316136988834306 4.7056902028804
Rh 5.939006139397507 3.2705301326671536 6.77896997981006
Rh 1.550071232194601 6.98222978177151 5.870668701538862
Rh 4.7269489271601595 5.250440547541633 8.193745145910091
Rh 5.288403215932433 1.3017131644130133 5.365960085081484
Rh 10.077728840057762 4.849163859096768 9.584013999436767
Rh 7.376791203768791 1.6231173379726396 7.9547203713093575
Rh 4.4925077829039415 4.677239702248447 10.828582931384654
Rh 3.315605751200903 2.690272449277683 6.300763021038474
Rh 2.482217510556685 5.623107698750624 9.574244356627515
Rh 2.2451485664523276 4.947871755941263 7.155760357728712
Rh 5.978996219448098 3.195608276274275 9.394737992999767
Rh 4.774437366796659 1.3369050851755098 7.967233623856154
Rh 3.332740093880935 3.262648557912035 8.898017748807751
