55
Energy = -333.80595907 eV
Rh 3.3911230708225104 5.260856227391754 9.15553791608577
Rh 9.749930120836698 7.994951331082831 6.154571931775745
Rh 7.70189841234519 4.528182418479764 10.405366679018659
Rh 5.370194219625067 5.6183356061333 5.094863438213237
Rh 9.817241963237024 8.190527448570851 8.742216388661378
Rh 7.459442395508081 8.45275858338891 2.25370434780319
Rh 5.478519022411359 5.803990866799545 7.771133890276527
Rh 3.0599482043098876 6.018723144804765 5.742059769327476
Rh 7.522897468536432 8.64555803268049 4.837692582067368
Rh 7.726914533596173 6.879890725624597 11.583251179558836
Rh 5.510206282986345 5.990073415163899 10.46974544594195
Rh 7.60322636300733 8.839814855665951 7.456843983657338
Rh 5.400565522371166 10.201178417132317 4.769987140381475
Rh 3.3187708645389464 9.504670084514753 6.199154538431719
Rh 7.667242585771247 9.063558543692556 10.065789058644551
Rh 5.426887922098785 10.458407001259566 7.400146842427228
Rh 7.4828559187418255 6.239013725390568 3.6705190871369813
Rh 11.794714739650624 7.191997803158045 4.81660611046932
Rh 9.70018632601349 5.595338760657567 4.918980102209763
Rh 7.5685113619309305 6.460014972961263 6.303020562600622
Rh 12.022140969575428 7.412599386532942 7.437578641572805
Rh 9.759287591924092 5.814979363337519 7.615498990940761
Rh 7.652570300798802 6.668308484013373 8.966910504993658
Rh 3.012583932799386 7.979896344367839 4.299654631617347
Rh 9.875760201085718 5.982161953044305 10.328514678344982
Rh 7.469449904498165 10.718177617594993 3.343911015965962
Rh 3.4281845319048427 7.576793054145537 10.331833931850301
Rh 9.663498898127239 10.1646411427096 4.619125945832979
Rh 7.553636073092615 11.05302945854551 5.980188743313305
Rh 5.581710821963089 8.430838894969433 11.520926228929193
Rh 9.75472074794333 10.462477285114794 7.252266145676469
Rh 7.63886774703744 11.26000431783319 8.576163858302118
Rh 7.763530917000052 9.296661286885737 12.645279206935482
Rh 5.413862475104347 3.5031300042166227 6.621834601952201
Rh 11.84528408315004 5.021619474924533 6.312989113425912
Rh 11.936902643433257 7.580986721827015 10.045166499309413
Rh 5.512790654828674 3.6761973902421525 9.263497078677226
Rh 11.919363506254829 5.233708040444551 8.893057068544406
Rh 9.85903422791852 8.42092877519678 11.36817221526841
Rh 5.349757415284644 7.818360740452496 3.6306633656067224
Rh 11.81112827135302 9.534656718164142 5.942946132039435
Rh 3.3828692321808327 9.753513754836087 8.814442505982218
Rh 5.393636005982689 8.007286385432145 6.26515936603679
Rh 3.051985201129202 3.985355861161904 7.08126509706622
Rh 5.529592269259765 10.592590832168352 10.055339807160694
Rh 5.462910757113629 8.20353019244768 8.886478441046922
Rh 3.2433410100334745 7.394776733698365 7.721978158109775
Rh 7.711982327397416 11.363332270851519 11.21187005524792
Rh 9.771133078035888 3.483077663263285 6.492225446848714
Rh 7.5343491295859755 4.101152621147274 5.1744898291782
Rh 9.821154188724684 10.583869311004035 9.907398740046395
Rh 9.818882718806359 3.6636673607202392 9.111399589993624
Rh 7.618250091087006 4.185811546701329 7.798414934833291
Rh 11.872435926483215 9.74268398823295 8.5777008956208
Rh 9.634543724623907 7.813761933081157 3.5168764129021612
