5
Energy = -20.4250076 eV
Rh 8.313878573972259 6.410048455992338 7.672871749358751
Rh 5.369898740812166 7.74533511147215 4.646100718675798
Rh 4.108841304947468 6.972970954512846 6.428908162510419
Rh 6.303728236236533 6.28835789337493 6.495850822390691
Rh 7.6318798793286415 4.374716430284728 6.495190353005425
