5
Energy = -20.97417582 eV
Rh 6.527089262748514 8.245422989298879 6.592603783260731
Rh 8.21206054213072 6.6381044648659495 5.928973855984704
Rh 6.154386638074419 6.881315904643689 4.566463781496721
Rh 6.0221312541344485 5.8285289795360065 6.705836356153797
Rh 5.302354432418803 4.609338312964812 8.409380975652008
