55
Energy = -330.16983458 eV
Rh 6.635769428415794 7.73085647761219 3.233713216829899
Rh 8.963547604051234 7.236942712989026 3.924779847144265
Rh 7.122591308893366 6.05950599070945 5.312800335036051
Rh 7.652594118479797 12.496793878173651 5.097117449615656
Rh 9.426850742417825 11.04764333785698 5.92451704872801
Rh 8.05857479629893 9.727641900347612 4.030776213828389
Rh 10.817650476920083 5.6767032284627765 4.3098131899434335
Rh 10.603444032634462 9.012622655397443 4.757266981374574
Rh 7.8992809632824725 4.203132997610378 6.926514839529637
Rh 5.576848606498284 8.110510729603746 5.396639961138825
Rh 10.116917501845801 3.806694449016264 5.844889049169402
Rh 8.210912364224393 8.477833274434678 6.147746030408374
Rh 11.778456926914854 7.10018021423825 6.0403520013257985
Rh 6.07055495060392 12.507727883254029 7.103129743361625
Rh 3.9174975682557966 7.201122648931524 7.104237073192004
Rh 6.00456013680504 10.605124316884362 5.323754469050434
Rh 7.421129641252574 10.42423120886871 7.413020921915781
Rh 9.422303322658298 6.194155828378942 6.491130484912593
Rh 5.039773357376911 9.445176257785398 7.544540515659182
Rh 6.470836487758507 7.174091448536411 7.640128780935573
Rh 5.463084914242923 4.96454895964944 7.001466651332532
Rh 12.184032749489104 10.616776720897219 5.962987544289037
Rh 11.323108279084407 4.945481917077119 7.615063697782122
Rh 13.495678484301779 6.279089932356191 7.762685301241007
Rh 13.053048007225792 8.821500113700402 7.466708929285318
Rh 8.633229391408959 12.601901764062854 7.905398734425977
Rh 11.001958791726837 11.598784360725634 7.964221867397465
Rh 10.519618315290046 9.1074342670582 7.3156930643622315
Rh 9.135205763410605 5.015715245700582 8.990929488407119
Rh 3.647483545791023 8.54021219275665 9.395579399962246
Rh 11.444412171439476 12.252814892658327 10.288738414937214
Rh 6.7300716267000436 11.738347253472602 9.52541896195483
Rh 4.358622823830168 11.42422693960677 8.766935554411868
Rh 4.714397067244764 6.153395035836106 9.294002142659684
Rh 8.876946101245634 7.602002411342366 8.595500576648792
Rh 6.6103966849510405 4.219520873055673 9.179544553383439
Rh 11.543616444593662 7.338781724313454 8.922297810290022
Rh 5.0673627307060105 10.320251005637347 10.94967537268525
Rh 11.388069817289225 5.232915884987521 10.154700273655838
Rh 11.614536189322553 9.743026045332204 9.765648533293954
Rh 9.141914879850347 10.145891646274839 9.305196334557897
Rh 5.522154859698868 5.272476879152768 11.596852223163403
Rh 7.163494785909425 6.416693468849261 10.094191945465182
Rh 6.775615527397008 9.018789466971109 9.499515280658578
Rh 10.212967414747785 10.534163692245093 11.789576079158591
Rh 8.978871966288208 12.446805547956373 10.549881743797059
Rh 11.13481228210094 7.585217972520463 11.367244767360408
Rh 9.238017612626324 5.831516159868843 11.463540553654989
Rh 6.083299679916592 9.247774534814498 13.167632324870882
Rh 7.576768372796348 10.559765162386249 11.678973270866065
Rh 11.137946913381514 8.856941127327739 13.385307651043066
Rh 5.229095403803774 7.82118877898287 11.210926160826547
Rh 7.180142281831823 6.972814765440634 12.70350285626179
Rh 8.732396554740143 8.30493931205596 11.121359555468565
Rh 8.684145690779106 9.036220966585761 13.482852688093493
