50
Energy = -298.13365032 eV
Rh 6.8774118742443076 3.3991426914685445 1.2811103242064676
Rh 3.072476236590983 4.119685414504919 1.0634474783221217
Rh 1.744516860839924 6.383239688872717 1.5925792156641998
Rh 4.701646640374965 2.0795534405763325 1.2330457844129152
Rh 4.356197766405006 6.2665031742199435 1.979962184866703
Rh 0.781099945409396 3.8018360057699288 2.278319938194219
Rh 8.476743412916504 3.2034432165589273 3.181385226566418
Rh 3.345210090984984 8.72756957354092 1.9442310391838467
Rh 2.1396798996560222 1.7649601067740883 1.3627597327433787
Rh 6.8294278831006 5.806440201707941 1.8749068966068296
Rh 5.0905114375535705 3.9067562974282337 3.0134952247861544
Rh 9.274577586410585 5.79696925694759 3.2926881921239235
Rh 0.8428095267932993 8.505402039647452 2.9218961397077803
Rh 2.704629420347546 4.793898029246759 3.408048196209291
Rh 0.4242622901220915 5.989306407309716 3.8513232557485675
Rh 5.916658810965763 8.226746667932249 1.6606207115774572
Rh 6.277499563601806 1.7096568547078093 3.3894409233882983
Rh 2.7738814535165814 7.280645487255832 3.8854017162202434
Rh 4.702559604486902 5.827024633108679 4.728412000153885
Rh 8.18612451800476 1.8615839781624284 5.292636435786534
Rh 3.5680927400482 1.6620574094811338 3.4677442979523723
Rh 7.0936348767743365 5.031724908499443 4.221635986292024
Rh 2.8215770209009534 9.669051913344596 4.430966511740045
Rh 7.348986041122687 7.560207739994594 3.801268878308831
Rh 0.9905030326337622 1.4995669203866102 3.6175039835533473
Rh 6.7213086888520674 1.2827901614064294 7.401339900451011
Rh 5.074525892421915 8.426196628579492 4.070122728555097
Rh 1.015716234776919 8.095082069064722 5.531881704996989
Rh 0.9627062370735854 3.6201852551385114 4.9687898253938645
Rh 6.124521737384802 3.1214674111902116 5.627289974740951
Rh 9.292898339343365 4.184806685267929 5.393929773728589
Rh 3.592091314470186 3.4775783858082154 5.2893257125396085
Rh 4.786955537168252 4.9114675383528805 7.033446069880511
Rh 2.02387391973087 5.7719170984435495 5.893417480274597
Rh 8.772946366354324 6.770078797876673 5.699586229575469
Rh 2.3090890009247995 1.435224182680552 5.865404441466154
Rh 3.6532582657086237 7.866099113060782 6.254712789961953
Rh 6.188056693665427 7.317469417894407 6.354554945681665
Rh 4.901194246734965 0.8251261645149621 5.495653090744295
Rh 7.34758856971602 5.0420290974909285 6.9114570885377535
Rh 8.687179740688897 3.0063011815794787 7.652461003306319
Rh 2.1781556573118364 3.754156517317432 7.4404419378413955
Rh 3.0246236303272394 6.2738279247774456 8.195791552858802
Rh 6.349073229867416 3.4413009478904355 8.688144213793652
Rh 3.963312313257846 4.150465398705318 9.36174203381174
Rh 9.892218074672492 5.385387512209019 7.6384091768307
Rh 5.844224817418059 6.1252951294766715 8.911854836011216
Rh 8.11294715714903 7.216579807098838 8.158930682066071
Rh 4.3042179859741685 2.286955798456187 7.530819097245956
Rh 8.175323054764286 4.977964957834261 9.494388674952546
