52
Energy = -313.37989358 eV
Rh 4.656007755146474 6.826453754837018 7.880818786837538
Rh 2.5776436444910553 6.8275558811216515 9.297590806476657
Rh 6.825322422934154 6.8245257088025255 6.480896579738804
Rh 4.64382288799195 5.460273055088667 10.117259473700022
Rh 4.6446250870708345 8.192328832975013 10.117065061550186
Rh 6.826440502278784 8.163277413479635 8.680080292274884
Rh 6.82662463358169 9.428531671327418 10.844257837660857
Rh 6.82641858747631 5.489595638532727 8.679109277160876
Rh 6.826621212513221 4.223829071153513 10.843999300978602
Rh 11.24246536176848 6.826590045783422 6.643715729793373
Rh 8.99836015904962 6.826499926405004 7.881753553062872
Rh 6.826511092026703 6.826230442095641 10.948834912478294
Rh 8.195461998525188 3.2777880240465485 8.76027559434198
Rh 9.00963727247298 5.460364584017978 10.117350861630435
Rh 10.504720108034856 9.03729157248681 5.280553511517433
Rh 4.155885862160181 11.148163200656928 6.605016790318802
Rh 5.48007106233947 9.011087478301706 6.508576125293484
Rh 6.826690406152896 11.263068088335213 6.624791464232044
Rh 5.458298522565704 10.376690736428941 8.760324998446022
Rh 8.194902845770114 10.376822299391092 8.76043352937627
Rh 8.160708517774285 10.320194817978356 4.4057016413067815
Rh 8.173262632367209 9.011800509073701 6.508494975745746
Rh 9.497339281265505 11.14805566353413 6.604986800941535
Rh 10.383989919387012 9.04725723560625 7.9404124418742335
Rh 11.075199487755235 6.827616936999593 9.29750978203148
Rh 3.269515521413222 9.047252336086043 7.940164285132925
Rh 9.00870756702406 8.192274650124855 10.116908245519879
Rh 3.269260853738537 4.606071444756878 7.939832126547359
Rh 4.626539188773122 6.826095135000209 5.204244649758133
Rh 3.1486529700183263 9.037172072972316 5.280559856139751
Rh 2.3982510198156466 6.82619010818017 3.987569231482623
Rh 5.4925933445571005 10.32023069524746 4.405517457315567
Rh 4.45629552242557 5.391488358270458 3.1411378308160556
Rh 6.826628955943926 8.111782275485222 4.099463532958675
Rh 4.456418056899245 8.261342002519386 3.1410395170790704
Rh 2.4110115994629666 6.826464347100112 6.6434594391253405
Rh 11.254725708951211 6.826281840479322 3.9879266402492637
Rh 8.171713187191235 4.6432873351362 6.508740718291771
Rh 9.196885547785751 8.261312648977453 3.140976427028474
Rh 5.481574072319532 4.643921718808394 6.508881348014362
Rh 5.492761792764276 3.3337896132857767 4.405129251554358
Rh 9.027614795876968 6.826155655422917 5.203581365709099
Rh 10.384146548412357 4.606229717385109 7.939953948950657
Rh 5.457720990838327 3.277648797293743 8.760273601217998
Rh 10.504949822664944 4.616278131962472 5.280606925091469
Rh 8.160579784999465 3.3338436749985347 4.405351491532753
Rh 9.497257126084987 2.50456673863912 6.604756681843934
Rh 4.156048898571878 2.504338384831359 6.604826663201504
Rh 6.826687684691169 2.3900366055367828 6.624629077585504
Rh 6.826641946620612 5.542096747460375 4.0987718571479315
Rh 3.148499822230923 4.616262995883952 5.280659564293455
Rh 9.197152006984409 5.391558826936515 3.141093355806225
