50
Energy = -300.59249729 eV
Rh 7.367863650421107 7.603238192769708 3.1168743324108683
Rh 8.21256291180929 5.800724541665858 1.586752102229682
Rh 8.728174541484627 8.937997065912612 4.860158790693142
Rh 9.753938377191862 6.873096743372283 3.550143112830517
Rh 10.82761104494287 7.821119282760786 5.746784764253372
Rh 5.664729717077486 6.317607358310235 1.647384243781082
Rh 6.586392023144433 3.8517457088019604 2.2514329230209635
Rh 6.0591320311456505 5.484667834807961 4.0929012445216815
Rh 8.646167953150368 4.505397839737881 3.6787952130041432
Rh 6.7137513019019925 9.989415915502631 3.7370156399458185
Rh 9.540945800881222 2.7759253627793767 5.4142407508116035
Rh 9.146035068431427 9.166221404272985 7.367840842819443
Rh 10.282883358600817 5.273683157051695 5.540861841929303
Rh 9.629399713016646 6.642740650333496 7.59840687433655
Rh 4.142794134593406 4.551258762884695 2.8838800689360125
Rh 3.1456944403136315 6.817715187034608 2.268415266043217
Rh 4.898155647611866 8.310295088301194 3.150127567941366
Rh 7.34874076690762 4.051310912115067 5.869430571891581
Rh 7.940496563412101 6.595015046825846 5.508172753986155
Rh 4.909218427752828 2.2049906927412515 3.4216758496541453
Rh 7.316324082803887 2.2464660530359533 4.166384199564147
Rh 4.766709140895822 9.739749433856337 5.350162206926405
Rh 4.771522723807374 7.230461194056754 5.4291415199395585
Rh 7.6731216367171955 1.9957916568351848 7.243515888399774
Rh 7.078822009759376 10.487795742985144 6.240613403628025
Rh 6.707527876672906 8.17344898022036 7.111393466275406
Rh 3.2586949419778217 3.4294592962407577 4.988136773444844
Rh 9.29832763105312 4.038559091693976 7.631776405444389
Rh 2.642593179750624 8.462953434390364 4.433915524893178
Rh 5.399819748447224 2.3189052104648473 5.988427719880192
Rh 7.059085381578303 5.670029569694351 7.829574245196225
Rh 4.956840980726438 9.90318759550275 7.907509048781782
Rh 2.73471646918752 5.910102957504154 4.541111303356049
Rh 7.30290913843228 10.174476931586836 8.887578111930251
Rh 4.9559846401331 4.822353848898249 6.358433092528643
Rh 2.7027429250039154 9.70016643747302 6.806297947760883
Rh 8.140145255344299 7.790160634502026 9.36465406344011
Rh 2.5111905545248128 7.221603417158474 6.752352841726309
Rh 9.145296979590697 5.439741918968601 9.796509958741442
Rh 4.7339179354356835 6.801189468758599 8.019565134714341
Rh 7.394395895588873 3.568515644716047 9.320676812619466
Rh 1.5944267483518746 4.73239635812352 6.462474104813994
Rh 3.35082609654224 3.243740341843916 7.579786148947414
Rh 5.441301699308187 2.039681974098532 8.5270692479053
Rh 5.677074855765583 8.312200727476142 9.843601826304141
Rh 3.1170345767477277 8.404032845057673 9.068378015524734
Rh 6.67767790329339 5.918921637034895 10.427794259130819
Rh 2.65260477974153 5.51509422234028 8.666615581751701
Rh 5.018201826558083 4.441825678039147 9.114577187768305
Rh 4.128705976812073 6.446052013804878 10.60391026796455
