52
Energy = -309.7746662 eV
Rh 8.79273686651302 9.458250988540527 3.8890701390714564
Rh 6.978696886827717 11.16179193061133 4.67842731278798
Rh 6.870154904674531 10.166872325731529 2.2450904320726317
Rh 9.85305695892868 7.115829054143744 3.450006122037825
Rh 8.188434388730427 7.88189736364016 5.796726575724051
Rh 5.9798120650604405 9.870223018203184 6.641209003873471
Rh 7.7976886149315225 7.719063620798317 2.1120317317079853
Rh 8.533752355249591 10.24437931791267 6.487415481842631
Rh 4.306994107867861 10.43865219486082 2.2450253032051544
Rh 4.438335421186624 10.272341286718344 4.657350779929871
Rh 9.717797955971456 7.274164221518651 7.840853894826583
Rh 5.6513296815387655 7.26676375162962 6.4407789121765635
Rh 3.56097835942885 6.331332747907896 1.6882602252013303
Rh 3.174371762835845 8.27206850471234 3.6118367300256913
Rh 4.631513573500287 8.472731247105838 8.614878565000893
Rh 8.326051003450894 3.8314860291058075 5.488061616697287
Rh 6.120600746366711 5.680987454141929 1.7606611210128318
Rh 8.661545780158868 5.297170930211053 1.9998970146295367
Rh 7.667088639097377 5.805898947908689 7.202331591151784
Rh 3.527049371220109 8.677366476065055 6.341743727591827
Rh 2.4449119466030065 5.604829400739775 3.916902070964286
Rh 2.8431223684776334 3.2282469411685715 9.335926255703699
Rh 5.255774691656571 8.192684823018528 1.929787092660871
Rh 4.230136160808954 7.1803864756958475 10.834499503019195
Rh 4.5620135278342895 4.600986090748178 10.506370683959974
Rh 4.323201031787871 4.127900980515122 2.7896449161588506
Rh 6.499027077766598 8.304319414892753 10.561085963244604
Rh 3.064201136460102 6.138555440894484 8.8059607688033
Rh 7.365238707212773 8.337996824065714 8.220266062859626
Rh 2.0638078413364895 4.129975334041516 7.012777872342925
Rh 6.283434778693687 8.674846828763375 4.252036723065395
Rh 6.433978614575354 5.937184563032848 11.59677171022264
Rh 3.661732375156333 3.5535350929695575 5.101652503682729
Rh 5.836647310616868 6.232106479229561 8.970332715654918
Rh 4.896582698445981 6.483344631149546 3.9426631822777565
Rh 3.306615201709437 6.2211217235766565 6.174941213139472
Rh 4.483981721094363 4.405582637834249 7.696375612772931
Rh 5.838463181385926 4.716460051885018 5.501351773541498
Rh 8.303771692219351 6.438160822170345 9.773920574572063
Rh 3.903565955661145 2.047737897302646 7.1224321601778575
Rh 7.551551019419809 6.03661446993155 4.151347046795117
Rh 6.762008902053036 3.384951026776833 7.539847112156426
Rh 5.996742580417357 2.185909888753214 5.377123466173642
Rh 10.626482369002634 8.42399360435208 5.5340338574904795
Rh 6.7945979772859255 3.6826073398856054 3.329335321699256
Rh 7.140430801017603 4.148608912052113 10.021875644814582
Rh 9.188968866628965 3.9802959350349774 8.147702002917839
Rh 5.254828330721806 2.371870876935145 9.39653635314141
Rh 8.483213762585924 1.6547400194559576 6.779065618231486
Rh 9.84516142874685 5.870757570735919 5.678564860961221
Rh 6.1529198815737045 0.8280300253987317 7.5383039639499385
Rh 7.82477016302002 1.8619495734675156 9.308150028564663
