55
Energy = -330.44583464 eV
Rh 5.646918705748964 9.836855387726334 10.490703828186309
Rh 8.507409023995004 6.453163374322086 11.51174771062453
Rh 7.974184797309741 9.063249450496247 11.684181459784014
Rh 5.536367033178217 11.539267147271076 6.206525324579834
Rh 6.196527400019257 7.398360581205928 11.040338665150308
Rh 6.378011836941257 11.845531034537107 8.802189708285766
Rh 8.336532476178482 7.650889435907041 7.92299377553366
Rh 8.517431318038096 3.9563562300038613 10.769468618721815
Rh 8.032897594805851 3.4247418740738294 8.272349461207622
Rh 3.226893377748997 4.129286926658734 6.399259334777122
Rh 9.626294400737923 8.207458542693962 10.045168335922684
Rh 11.414984644804475 5.229009925835543 7.543569147028515
Rh 4.881867961879176 9.502812384959102 4.5943594993376164
Rh 5.756882683210327 6.905504278891174 5.117746798641596
Rh 2.4921004004105765 8.496084822068601 4.592025377897557
Rh 5.810019421725752 6.878142700879244 7.694047773561379
Rh 3.394418970951428 5.8927333346560085 8.143514822448068
Rh 7.28044902619574 10.685377390359651 4.623005495245034
Rh 6.445957058977449 9.114259193597215 6.686498407339707
Rh 6.952153188207543 8.539137743772663 3.3056570271378143
Rh 5.603806933444016 4.177717729245441 7.513768872825254
Rh 10.462545250364458 3.3234029582002282 9.118025044691905
Rh 8.031186344871372 11.041773171338129 7.0554113344081335
Rh 10.574853480102536 7.509505152627902 6.523060993719814
Rh 8.617479682256226 7.428526543668733 1.8057707605464801
Rh 4.600626769653842 5.548005270715385 10.327876781105568
Rh 7.655815589927756 5.472446506886969 6.56741503931626
Rh 4.628399186490689 10.17298607114707 8.20523857137597
Rh 8.234340553373267 7.672457251042083 5.280525315315365
Rh 6.094161282255898 3.3846680339886572 9.99145838192306
Rh 3.1163984910298344 10.492206594306493 6.199901297697343
Rh 7.771891900279081 9.76427936553866 9.232418538796807
Rh 6.388095100345693 6.1944759226594845 2.3920054813353264
Rh 10.241260937907246 7.642911856082902 3.816001169016863
Rh 9.951071210159819 5.2929698094192466 5.562453896713224
Rh 11.643687915430641 7.527832760678508 8.797980419526581
Rh 9.913648839408053 3.083142928998175 6.655385770814501
Rh 8.558262500475928 5.65212746549718 3.534290074037344
Rh 3.785424759515445 8.089767973550265 6.748526394400728
Rh 6.906975660852243 3.8163427924995466 3.2454185703554153
Rh 5.2906118547967615 4.4119584155508855 4.991308494547794
Rh 7.208367995152126 5.689154675291935 9.336468712924697
Rh 10.075863991382251 9.647868578529563 7.9159320618471885
Rh 9.077327046314592 9.793285476719625 2.9530924622955155
Rh 3.706961634288274 3.505453274198026 9.010274130628334
Rh 1.6677311027921151 6.715346838046591 6.463913830853186
Rh 4.392463965076456 7.563423894281463 3.0049746751993256
Rh 3.3008835656291535 6.074172261304804 4.758937539553222
Rh 9.597596571655385 9.739046606656267 5.41856791728123
Rh 4.307432789517494 7.9570378625911715 9.378876429332152
Rh 9.34401705453264 3.3016388355981197 4.102941876366008
Rh 4.330272828263591 4.877184860429517 2.720353197675548
Rh 7.423387686857776 3.1340090983177555 5.753802626064777
Rh 6.440346945356374 4.984338724366946 12.012182928809544
Rh 9.827124131944208 5.748935552877509 9.338712710054356
