5
Energy = -21.64206176 eV
Rh 6.0440890885954 4.835742009605817 4.881705439179005
Rh 7.48026036494013 5.7114161774353684 6.48609867543711
Rh 4.4772762775782 6.52174512870792 5.321354772401138
Rh 7.914262835102989 7.333967715407393 8.204580509921879
Rh 5.866859226244948 7.442816019546642 6.941803797751779
