50
Energy = -297.99243063 eV
Rh 4.0947665982728765 4.451560211401825 0.3996607290639133
Rh 5.113593901473518 2.0753724669974454 0.9484516469620167
Rh 6.731170643726297 4.138784754156271 0.827011884872947
Rh 5.482588710480007 6.247543212404905 1.6477558061778257
Rh 8.084819386503076 6.613076521131277 1.968997850056621
Rh 0.8510380278170036 3.778633324750903 2.411032754175756
Rh 2.8354473316912157 2.441661225021747 2.016970782253394
Rh 3.8402588118428125 8.173881721803482 1.7498121298722111
Rh 4.79610056853236 3.8992526918993073 2.756833499028764
Rh 2.9414292251997356 5.729139119973168 2.4561852108178206
Rh 9.094561410207424 4.037141249506024 1.8965038264643572
Rh 7.165180624127226 2.2736102669580434 2.6012634021801446
Rh 6.346043564702462 8.50862987143169 2.693147900666924
Rh 2.062411462825377 7.947604142371604 3.6039004752100032
Rh 0.35981590184605083 3.1461882845552354 4.812284703262931
Rh 7.092595304896833 4.7519071544379985 3.32418247149246
Rh 9.611792831995581 5.546693776830097 3.9630190561152094
Rh 2.8038724962514365 3.687087342574963 4.3544881316128965
Rh 4.7195861404148065 1.47100958318566 3.521953103722215
Rh 4.049438811400618 9.624441274038759 3.874835776156683
Rh 0.6819284620785395 5.795910943742921 3.7844443907441954
Rh 2.1733924003678338 1.22754591556744 4.566592684919051
Rh 4.729075378686328 7.130225312183427 3.985032645179638
Rh 6.467660623664264 2.549145737084694 5.0601473591644215
Rh 8.961572982529926 3.0315784602867293 4.340904769701032
Rh 7.765442537776616 4.858772201377922 5.72535991251627
Rh 1.7975245316951007 2.359116054655753 6.9716508314853005
Rh 2.771314563634338 6.048623361678656 5.225268124760126
Rh 10.271446004239868 5.250150318593665 5.404270326284824
Rh 7.602072121114719 7.117744269176977 4.489387264902983
Rh 10.271446004239868 4.2592755565768865 6.220779618560948
Rh 5.944342039084313 8.688280291607278 5.537738475175173
Rh 5.194173331613313 4.897858254682271 5.078287745732672
Rh 0.6232309311730792 7.302582594923259 5.8700540697661685
Rh 2.9417485075728393 8.539470009809005 5.982019949586223
Rh 9.477008832315024 6.710008835731494 6.343338829634218
Rh 0.8424090581131081 4.76797457971108 6.8146124165025
Rh 4.679959833214143 6.907084061425711 6.843948007307123
Rh 4.130572044971412 1.8619099760599018 5.995859738478012
Rh 3.490863465869691 4.240039578308183 6.865195815271489
Rh 6.070959983366856 4.195966965232045 7.494015171219977
Rh 8.562929502273 4.8765632115733695 8.213929443076951
Rh 8.348162708937785 2.645404063147781 6.938959594985249
Rh 4.296112618468486 2.766091292156 8.755258564417142
Rh 2.360282358095171 6.613321775480494 7.803460180791752
Rh 7.062117705791221 6.768266501584429 7.198363604296037
Rh 6.125786077300869 1.5061310027546462 7.408206328176252
Rh 2.071513567721628 4.20644169425356 8.958602637820029
Rh 4.402645517210172 5.427825785015937 8.968854845524598
Rh 7.135873746319879 2.8819701071767847 9.301662420844346
