51
Energy = -304.86480675 eV
Rh 9.476381288668353 3.828100617699856 4.3094922940164215
Rh 11.595679710251105 3.280628182990156 5.5713139383815875
Rh 8.089555029019428 7.904052205701786 3.0869049794196086
Rh 7.876395431185159 5.27968393625728 2.8821791772040197
Rh 11.41967830350685 5.79774713356507 4.7875853190083735
Rh 6.0536350921195385 4.081013747920035 1.5091893374306824
Rh 10.411951354780316 8.214636162257792 4.190110032623594
Rh 5.953382215428794 6.744673318037977 1.9745192882014062
Rh 7.07903041457257 2.8718893095030804 3.6169223914952875
Rh 9.404970926078619 2.432505185241309 6.5290705544903505
Rh 8.978934763043597 6.326909574476197 4.917583005005581
Rh 5.662902544033658 8.920764027323484 3.406661615777128
Rh 10.03532421244047 4.890399012339556 6.743061332373821
Rh 4.353834715852815 2.7694288832933456 3.0172618731126297
Rh 6.493517001926715 7.0993582960421815 4.995465045229444
Rh 10.741899983230292 7.3816211601252935 6.727304077466866
Rh 3.686184059179521 5.0088496981290715 2.017863243075188
Rh 5.5157766932820635 5.012024273956979 3.8988500503582713
Rh 7.250588222249869 1.6197318997904122 5.862069718200018
Rh 9.73250183150682 9.712096337264272 6.097947622497814
Rh 3.892645621292618 7.077671880147292 3.419580395451084
Rh 5.106682650235046 2.958534282231848 5.418255933090955
Rh 7.381518122810603 4.326640671596966 5.843366760058597
Rh 7.519021441343525 9.479873749042882 5.067318556678742
Rh 8.101634565811626 7.735340383956914 6.864499608340365
Rh 2.982990253308043 4.536969737150316 4.576719296306488
Rh 6.109893864151583 3.025906596218269 7.7899611939651345
Rh 4.25707235573269 6.322945413600343 5.899500680420543
Rh 8.303958221709228 3.9738674238419027 8.390566414774995
Rh 6.360617815583858 5.827350148167101 7.653661677963558
Rh 9.667096207400233 8.881418422333343 8.55977209805424
Rh 7.463407416760282 10.099822995508745 7.672810648892521
Rh 9.210944671710049 6.338589414094944 8.662195016632364
Rh 3.910881003458132 4.089593091389857 7.243963919173
Rh 1.8591134525844653 7.045315730449865 4.89376453357617
Rh 3.7560143130177575 8.817385854724824 5.278705701515154
Rh 5.462305094021259 10.568556362883104 5.838337379139668
Rh 5.494165819263008 8.296266945695027 7.215099168868977
Rh 4.888272195589482 4.609469018485686 9.643302216652703
Rh 1.8255725778227094 5.4754329227502705 6.884724115110858
Rh 3.798306135314626 6.539488945119642 8.380497876190923
Rh 7.220642392367296 5.585154994711736 10.156809670106316
Rh 7.3382399943276635 8.027393124851036 9.302638899695683
Rh 2.1318627589521117 8.0628755466789 7.242280739430865
Rh 5.2103755839789505 7.250328982817432 10.33963631047826
Rh 5.357376257439221 9.65890137899504 9.42992275495632
Rh 3.6576172269829264 10.027268689380772 7.625768875305643
Rh 2.3203769564419754 4.353050741447975 9.167113029363136
Rh 2.9824554018266864 8.517571611423376 9.715387288773282
Rh 3.0146381665564794 6.137738462177649 10.879194673919743
Rh 1.1479379370909777 6.671353626188566 9.138629638096573
