54
Energy = -323.9948258 eV
Rh 10.208764697379356 7.939442201736159 7.154864341416706
Rh 6.331477930814174 11.328449266484887 7.10823259578638
Rh 2.8635251704569566 8.741707034630835 4.781548003263401
Rh 9.232034790240704 7.906878964141647 2.6077553866923524
Rh 4.697660543509802 0.6187223825571926 7.395855124202326
Rh 1.986958324872864 6.6230121207246535 8.636902935491335
Rh 7.828572424810775 7.0550588558011516 7.273441113463291
Rh 2.74676037960181 2.133542861308851 3.80393508201614
Rh 3.8733452666766355 8.372001393772168 9.026915006791985
Rh 5.6272697427707925 6.258338799959092 4.907475878889722
Rh 4.470209514051085 4.013043462979426 4.43787848817131
Rh 4.388992965353317 2.999374826705498 8.633457754409509
Rh 5.939583568143415 2.543491285076444 5.966350804099508
Rh 10.558266383217637 6.771494099022915 4.857129432695105
Rh 6.458410075505526 6.847145365186546 9.583645917837702
Rh 7.431191223187545 4.712554648675251 6.219511297770872
Rh 3.0255075416652653 6.554519154286069 6.168893200006557
Rh 5.508234608367836 5.190741584998594 2.3948261205585983
Rh 6.361753495083656 9.150773899093693 8.480411618115395
Rh 5.056682160173772 8.578795162774313 3.7187130389934495
Rh 6.681875173276638 8.79993760459546 5.698439074675159
Rh 9.281801022798644 8.979360276783428 4.9751809152328335
Rh 6.798972360383824 1.9169268275395375 8.178950065357888
Rh 8.492574027954102 9.872982990634307 7.257241980616376
Rh 6.885013600320521 0.1724128897704086 6.127749154552114
Rh 7.103900590787579 1.1109504337049125 3.7723564708502124
Rh 8.470942355880531 2.3191689055824063 5.7055121944029406
Rh 6.64020796307769 4.419560375037234 8.711033238301678
Rh 4.862301179365404 4.739532830785632 6.874054719155379
Rh 4.370593336130041 9.670825078549866 6.782635205244755
Rh 8.782611442289777 5.6849917817910125 9.236287563122671
Rh 8.244233709706851 5.32823914419925 2.3496146366942994
Rh 8.071140620858849 6.712450746171652 4.511481419647568
Rh 5.10974507370909 2.436491145462186 2.5638362770705716
Rh 8.668943886705268 8.3445047624127 9.34824066971618
Rh 9.789540887318926 5.407678077370622 6.8875768776642525
Rh 5.213305928932063 7.231154692778618 7.268468306544521
Rh 4.719151899171778 0.7866926859647116 4.650110112571168
Rh 1.9923355323584369 4.4377271113437455 4.87393787953768
Rh 3.3454862552187454 2.452418252802566 6.271120135732543
Rh 6.77210276393393 7.377289929178516 2.3695062878200335
Rh 2.0675788831133173 8.696352456801122 7.202989215907167
Rh 0.5458360327528711 5.904690107574047 6.6387390427827775
Rh 1.1344609386735065 6.908691780286896 4.393063493309154
Rh 5.475529843167541 10.892437886824366 4.734384556299473
Rh 3.4883831963835874 6.530705414624848 3.495468555660761
Rh 8.923262500404915 3.308603702599618 8.088158480481706
Rh 8.085965728116223 11.309693520740323 5.213225922773195
Rh 4.22673271662307 5.586774689980861 9.16395908528214
Rh 9.415392467575588 4.399433125952626 4.518003168273857
Rh 3.0501118031705445 4.234729327192587 2.381324429427779
Rh 7.060241676700591 3.6186072145232893 3.759486010151669
Rh 2.3334972442729827 4.340775990987441 7.539998465917927
Rh 7.336921890663383 9.668998387416122 3.3646744179765555
