54
Energy = -324.96417226 eV
Rh 2.62755784851721 8.833238276528911 7.471128442964069
Rh 2.560281104716002 6.607484618476027 8.905109165276317
Rh 1.0902127622133666 8.356854171665391 5.539427886675303
Rh 5.174706233406852 9.325061484428986 6.646043506428956
Rh 4.649506801893921 5.257673002416632 4.522254252964241
Rh 2.6401231841283983 8.893468968331826 10.119585216125182
Rh 1.4627601800833505 6.124820380802067 6.60662100389244
Rh 4.787497813385609 7.50685688120565 3.1439937486185214
Rh 5.71174572136218 1.345212659515345 4.253672334417245
Rh 4.552386011489179 2.944027340885009 5.9063323874226015
Rh 6.377396426888789 1.2898235238872122 6.648844237163617
Rh 6.75446884406543 9.425987221571962 8.812096253526239
Rh 7.772028856598382 9.230169946616835 6.403756123965163
Rh 5.573419151626866 4.033837951471054 2.1905335553189333
Rh 4.762776094898738 5.119698527306774 9.47804536979984
Rh 5.5415253518056735 2.991244913337253 8.334032930168746
Rh 3.877955793328144 6.878827494980903 11.079306360550468
Rh 5.742730325739598 6.2853814534079495 1.0619952729386182
Rh 6.261607969910756 7.23675185869323 5.481432940398719
Rh 6.796073276065486 3.6170593567431784 4.6838613885752185
Rh 5.267719338396069 9.070402542963249 10.953431428921641
Rh 7.886135112621455 3.2709542549944066 6.967136603968082
Rh 3.257031072926819 4.526314695762959 7.488005809329324
Rh 10.137632167690164 3.8712853351922916 5.7086686875736765
Rh 7.94282793724771 8.772063194011608 10.943531609325206
Rh 6.452469769843273 6.747833572382784 10.644241648379207
Rh 7.298104194769833 4.746927107243011 9.118629462006622
Rh 4.927711936167043 7.612702600015902 8.710696720989548
Rh 5.901089600829637 5.082013575230545 6.853614926204124
Rh 11.687314475740813 5.7810108835506835 6.595674518117824
Rh 6.9650414815481465 5.923986515483249 3.357361621595917
Rh 11.033412357504316 7.164175203838337 8.735371638908415
Rh 7.431511896868872 2.3862193740437343 2.615765741440826
Rh 9.560963140971847 5.213649569143103 7.896553044451328
Rh 8.879632981094405 6.559334015109291 9.997243176515166
Rh 3.910126842862499 6.826336171515161 6.4522537664251916
Rh 9.005527077231868 4.21636098510348 3.4461185156963836
Rh 3.763648152402407 2.9435518260545575 3.430220690181363
Rh 2.356472501006316 4.1372625650562584 5.151730260946484
Rh 8.240029197621931 5.580844050988072 5.65094532243265
Rh 9.17479190649138 8.88083674988164 8.5931340805227
Rh 5.125674627321878 1.5557948042186647 1.8049609319526667
Rh 7.468196297610223 7.000681248847355 7.819902617315915
Rh 10.452260915569411 6.1877286453355635 4.385568442335408
Rh 4.322400548011026 10.186044635935662 8.84499956942126
Rh 9.8107779282513 7.550907519806299 6.490441753846307
Rh 2.460010751400989 6.622006569859787 4.212543956469566
Rh 3.452646136691671 5.463686352398776 2.1944625264322704
Rh 7.831291744644863 4.670771589008793 1.1778415345289344
Rh 8.520842001410601 7.968108101437907 4.242961319348262
Rh 9.190758112157662 6.599043014596701 2.170375631541946
Rh 3.461392990625005 8.899489785903034 4.832604660826096
Rh 7.071891590131315 8.235216937365838 2.1060749850629388
Rh 6.172856474934476 9.44708499100362 4.2641404120575395
