50
Energy = -297.92256419 eV
Rh 10.844585790624663 5.358490259009693 3.5541187750881402
Rh 8.82603322869206 4.632519776406803 2.1101755713057906
Rh 9.421830941346574 3.2719927556108432 4.247430503380802
Rh 9.232367417454656 7.191834637780677 2.4889735487033806
Rh 10.196807940177598 5.281371339072353 6.1030254882217445
Rh 10.7875440910323 7.5994271354130705 4.657313264793124
Rh 7.6017261409940975 2.0228489551400584 7.907213198996257
Rh 10.08217856067497 7.527992455736264 7.229749606442792
Rh 10.125552317228122 9.815697346213268 5.87679401280329
Rh 8.37870399899604 5.678207397439488 4.442499916482108
Rh 9.515791063176279 9.620720378650217 3.385362821626875
Rh 8.27140710224885 4.624027439322774 8.679736818253895
Rh 8.048965547783915 3.812820685106952 6.270841257389232
Rh 6.7986322278625915 6.140326341609436 2.452090059926587
Rh 6.8295257855903 3.8059725843880865 3.7045829602856
Rh 5.118085778715675 2.230142079868684 7.551544298267041
Rh 6.556392592690139 1.8729076964563252 5.3896727276961425
Rh 6.166428179375246 3.3259689958563734 9.555693380020776
Rh 7.09873052076191 8.67660147434397 3.022465528653219
Rh 8.360968224915696 8.095606603393723 5.033743217037639
Rh 7.772701023787228 6.473755947035005 6.877873166968557
Rh 8.13331919664295 7.369341353129313 9.257629831334572
Rh 7.487882132225522 10.468042036232452 5.186814023506554
Rh 5.937158521211794 4.7646284185779075 7.338157559240243
Rh 8.118535849810797 9.144194969950185 7.365347846279228
Rh 3.952531792235436 1.2111258397289577 5.492506795255003
Rh 4.696083688719407 3.711857455488127 5.452968960296329
Rh 4.839281644624147 2.2662798598052065 3.367813303764222
Rh 5.9105133491160915 7.909928704073964 8.033213958551324
Rh 4.776694551565976 7.530933396740454 3.049898173029564
Rh 6.986701230651729 9.85265302879723 9.511768140736832
Rh 6.107372302428369 5.756094100641859 9.771345318955557
Rh 5.6109909082296054 8.701206173168405 5.2404677420911305
Rh 5.8209714774673085 6.089118011376904 5.002683072980545
Rh 4.5712468770308305 4.874534966347446 2.969604867175201
Rh 5.8785729750752544 10.440839931988336 7.20294745199575
Rh 5.899354520132046 7.9568878429391106 10.772712888143417
Rh 3.8237145416733416 4.3675706467353965 8.724788308671613
Rh 2.64379802132377 2.4388540222326007 7.24184606789993
Rh 2.541837304715241 3.6635106747784696 4.278912541383283
Rh 4.072755034560359 6.50461466560764 6.956930888641918
Rh 4.4134594584385685 9.553384282906622 9.372343687671803
Rh 2.2479662418936006 4.744049325948806 6.598812020573877
Rh 3.0703583454834007 8.683336959595032 4.639009447378123
Rh 3.8161939926190263 6.933137018097159 9.511777452426633
Rh 3.0948604161021027 6.191758479295231 4.599134811084044
Rh 3.712965211715056 9.02055480480821 7.000433166802553
Rh 1.672348843031639 5.9383462305678 8.762349847833521
Rh 1.7688171829357096 7.3320266957703435 6.5759808226315375
Rh 2.010976116934531 8.569764473398065 8.861496420213209
