50
Energy = -297.85774748 eV
Rh 5.185356821902523 4.187879649005362 10.288107973865673
Rh 5.191120316807614 8.476734155654974 0.9811950829941729
Rh 8.575029243293617 2.0036623678242225 1.5450259878037722
Rh 7.4380759990371645 4.26517489576257 1.3068643245070364
Rh 5.877369712299154 2.2155166015302576 1.319589438308485
Rh 1.2009692768045748 3.0772606825060906 2.625871498288707
Rh 3.1968165529252444 5.750073664104808 0.6220776585686727
Rh 5.531024837292717 8.968258868333132 3.47829395733344
Rh 8.981165597910325 1.3743556943745645 4.058502686445577
Rh 3.495415748691803 3.268246060959632 1.6086425853450477
Rh 1.2625096471471366 7.385888159296932 3.8468312851231756
Rh 7.318462414247195 7.633364108808771 2.0726697954210653
Rh 5.450072044204047 6.060218170155349 1.5742098809038076
Rh 9.365167289215913 6.5440584652490825 3.210843760899316
Rh 6.932744378570479 0.3861647658044877 2.7301495534803877
Rh 9.235551174369819 3.9036667832371874 3.33546245060434
Rh 3.4042323644920813 7.6240440649980785 2.5479113787394163
Rh 6.862860485637007 2.87677637668273 3.579073237749072
Rh 0.8740102335213743 4.343752578737881 4.937349743718967
Rh 2.6310065710096806 2.4550031003631045 4.505398182189938
Rh 2.3746557947435134 5.26130257296099 2.9171661749088877
Rh 4.717266853601027 1.5193873594215461 3.5596787109456303
Rh 7.115233842287512 5.456610596544492 3.45724705535624
Rh 3.421349306513866 8.448060558835452 5.133627733101654
Rh 5.020976669156066 6.664714523783391 4.291465107800371
Rh 4.67691049844347 4.233011373741286 3.648377640357011
Rh 6.63401524293275 1.0203443312311198 5.289960126431257
Rh 5.867160547918935 8.994469926765648 6.03412948676288
Rh 0.3891827527176513 6.935892190630575 6.131437477382702
Rh 8.31527771219278 3.054891750331344 5.735161447338826
Rh 7.508547804792966 7.663216464475199 4.686755488480735
Rh 2.712234714131167 5.962198712478098 5.390271040091747
Rh 4.213604511134163 1.2831620262502703 6.232572886759546
Rh 8.8790233629938 5.587650663869898 5.542197743499003
Rh 6.288728647076025 4.8825697021948145 5.816426908477529
Rh 4.111054099959866 3.7393767070909836 6.07570354366242
Rh 1.8616434534556552 2.8168920836810463 6.889868568797209
Rh 4.730141393899415 6.899034138558759 6.875584714579145
Rh 6.1794177357503886 2.6856025083979578 7.220069007537931
Rh 0.4275783884207421 4.882601118687308 7.460131494748303
Rh 2.315963798228092 7.614356098643337 7.485291587007588
Rh 8.00088554466079 4.529775407000368 7.745825141586856
Rh 2.9309868159501917 5.1433111572426125 7.828815154853264
Rh 7.22201794839562 6.951680450481744 7.168005155757871
Rh 3.950845971964583 2.8015018017296036 8.534612691766206
Rh 5.586431622896469 5.0319033657957615 8.506421892583342
Rh 1.5225598323717675 3.5340509228342065 9.396023701778738
Rh 4.014253585563549 7.023623167233661 9.347006749830276
Rh 1.5496801610289461 6.151552709727526 9.689721616132665
Rh 3.6955700059863332 4.669315724540104 10.288107973865673
