53
Energy = -317.43779458 eV
Rh 5.007753830238459 5.252464488589205 1.5835194699186752
Rh 6.80291333530782 6.89400422871542 1.260968670771455
Rh 2.325060004072429 5.493904051231985 1.8521273555394249
Rh 6.073992378414577 3.34018410268291 0.25937463890512674
Rh 3.53120204426188 3.1695532024067408 1.0620803141133304
Rh 5.17841914601535 1.0444259912298486 1.0103012351649452
Rh 6.169891796345269 8.58805026780934 2.937667184722706
Rh 4.144623255439725 7.644518703255989 1.5401612625528334
Rh 7.528443206160856 4.563458817973073 2.040672347810903
Rh 1.3731556914331053 3.1603297956048273 2.664472361108547
Rh 5.961883015506174 5.033539891776494 4.22522877086581
Rh 7.675420070966811 1.8041625091177886 1.825156423688364
Rh 3.58374474705286 4.003599823473429 3.4968502905789833
Rh 3.375723050051953 1.214534108649568 2.7877246852793096
Rh 7.781190301421982 6.666794469604383 3.6766727405002815
Rh 1.7976802241714243 7.757449869909649 3.0497030628447095
Rh 5.647771763347168 2.8198945462931877 2.7941206264178944
Rh 5.7887809681763756 10.638515913424255 4.430585312846051
Rh 5.750084425464151 0.32244007515095824 3.466376222916534
Rh 3.892389886773559 6.492054164320407 3.7638689861898005
Rh 8.197819894879906 0.6453961256816514 4.1655074071998435
Rh 8.046913844371662 9.244873222018342 4.5153733973618015
Rh 3.823983336096241 9.110817031893518 3.70176001938154
Rh 1.38285982138003 0.7191898081216964 4.157893268045537
Rh 7.929430946429773 3.071938632573373 4.061152886000466
Rh 1.9138450474462476 2.873906460384971 5.183208855257347
Rh 5.6161384429774275 7.677510334164761 5.266553394119683
Rh 4.349552633093229 2.129803790442985 5.021347826350205
Rh 3.5988020126555647 10.638515913424255 5.156310030269543
Rh 1.5136197468369221 5.360448580303613 4.4755053050696985
Rh 1.9007933321325272 9.946917329510338 5.058799207108699
Rh 1.8926364629297368 0.988521850941851 6.785824155407202
Rh 8.317352195635662 4.872443664618084 5.761857225502923
Rh 0.1571893697620416 4.115928040083001 6.4634810888551355
Rh 6.204757314290837 3.288647588109472 6.157911063398374
Rh 6.337782253382076 0.6839047406920346 5.909029687835955
Rh 4.158298904787038 9.660885173488413 6.222338033243984
Rh 2.451411677480563 7.614402789201528 5.53277316511342
Rh 7.994581576616907 7.3315620541968345 6.178269517433067
Rh 6.694356318614934 9.64057909468103 6.62696684220366
Rh 6.140103570568915 5.752772528113443 6.890614871350817
Rh 1.598587821485547 5.959552628737591 7.09683476769198
Rh 3.8602856156983303 4.759739600613938 5.9115097987950795
Rh 8.50566124697485 2.2574567535543357 6.410306997405513
Rh 4.247436312936808 1.4553754895194384 7.435922306918717
Rh 2.4475502880718736 3.4954134791504647 7.620949967645112
Rh 2.7314485163481645 8.167025919341652 7.917552437587328
Rh 7.6582761975697355 4.1261519519059755 8.213929154221804
Rh 6.677721200333105 1.7357699864165186 8.25298448203954
Rh 5.240014570228949 7.950689221690914 7.852962818398349
Rh 3.779890672053938 5.865432753748104 8.315441322512342
Rh 6.113825342347902 5.89985227323809 9.415470647936537
Rh 4.992173160188988 3.6942886654134868 8.401248876830488
