53
Energy = -318.20874606 eV
Rh 3.072373743888595 9.39131108221156 5.025496384270029
Rh 5.2376160946769685 5.888713777671304 8.076221652723557
Rh 9.068415040790192 2.3739890682196076 2.715197255219583
Rh 6.665783201040704 9.096740485434673 7.183929108920986
Rh 4.80343162897163 7.112397270493958 10.959422950741027
Rh 1.4171507564020804 6.2738533980590105 7.569784757473676
Rh 4.912638760032621 3.508805781174262 7.09256873415501
Rh 6.814700341440299 1.8294715007153266 7.307691585730789
Rh 9.173344649970064 2.806039751630645 7.103318013997541
Rh 1.5130250510639784 8.73262115712332 3.102426252437302
Rh 5.765393248067509 2.1950726154241584 5.010503390559347
Rh 8.556695767982047 5.655420187228694 9.318756000620297
Rh 6.115259841549183 5.0323343973873635 10.239036591108974
Rh 3.230273470466977 3.0523882057400185 5.233403323799002
Rh 9.973974060171361 3.702657083895779 4.825475055760655
Rh 4.871313037236297 9.186800490489052 9.26268078386039
Rh 4.295991991673366 8.278815567636205 6.9567385769021115
Rh 3.479915615414489 5.782768077786298 6.229514806327114
Rh 9.04404696576972 7.437301867235463 2.8264501523441425
Rh 6.909597356863486 8.923399784844499 2.6628291921279232
Rh 5.087372866994446 4.7111596710791215 4.591970689924981
Rh 3.223422515573901 7.276626984077474 9.036352184333412
Rh 6.2130305717145164 6.799889337458641 5.878074033770842
Rh 6.705005003581886 1.164691175018889 2.950163524269337
Rh 10.169882251924989 3.6699677934919257 9.232039834486205
Rh 1.5822200406142135 7.307784718476617 5.209019298522562
Rh 6.687358786288699 7.451920587824406 9.248046390624447
Rh 5.187487283725754 2.8264717578208662 9.398230767446904
Rh 4.884147635793248 5.126414397659282 1.935298093943932
Rh 0.7566564077399764 6.207039826514872 3.1236423579024737
Rh 5.377704975831084 7.494608881949737 1.2956458035087854
Rh 2.9077792659905444 6.991916444653604 1.916249291148982
Rh 3.528358352212991 4.868389766251209 9.680976958150373
Rh 7.6718080094566 3.2218618941955732 9.295139262126233
Rh 7.456108840311521 4.03340155788662 4.584924592538909
Rh 4.461706593435497 2.784490296341865 2.8854292722723676
Rh 7.231675170825868 5.748850790081393 0.9184712786749435
Rh 8.27808112720322 1.6676309437324646 5.0517359213245
Rh 4.1865740821533395 7.118958370742872 4.096271796384314
Rh 8.385948263760874 7.222537869868955 7.305308950093642
Rh 8.99523984083394 4.940366414779066 2.6727846267069095
Rh 2.7974869036966616 4.802748151788188 3.357628973261872
Rh 7.382828343712852 4.679161522273388 7.130075401223686
Rh 6.869384960542497 3.4944713152583815 2.106733030613056
Rh 5.597529192304474 9.179784377170307 4.79397925827404
Rh 10.012362477963974 5.2316214356742305 7.145433324022407
Rh 6.702132711518589 6.398921334269353 3.3124859168012284
Rh 1.8955794561056785 8.760635641319414 7.33891278119882
Rh 8.061809042682658 8.490044070461881 5.02121663641759
Rh 2.446646475688097 3.893694618357772 7.621237091944529
Rh 8.953149229554512 6.102914982834719 5.012322419434876
Rh 1.205852577825469 4.733943458852159 5.429933926558558
Rh 4.118118135050921 9.277566077519635 2.6642097591020555
