54
Energy = -325.03668021 eV
Rh 10.052703610756867 5.094176359189494 9.307945316320398
Rh 10.999761854702783 3.71091675291888 7.277465116420515
Rh 10.182855366140386 4.598815118036406 5.069189861700769
Rh 10.654581661117415 6.291407165360377 7.002883024452817
Rh 10.392398566398704 8.699239971027314 7.579261721982688
Rh 8.461854011140272 7.032867789910248 9.678609346803883
Rh 9.027679815250364 2.69399790343766 8.59690650944837
Rh 6.782710212794528 8.839434947488593 10.324617429384316
Rh 8.225510674144365 9.74020647285499 8.334196804326092
Rh 8.888466017728538 9.31087246226181 5.6450823881868635
Rh 9.234047002325523 6.940222260832381 4.842494580560582
Rh 7.449456793054227 4.656575725301673 9.576882943954898
Rh 9.260409711165417 5.421197506351852 2.7698102937508087
Rh 8.495081576231488 4.794804708421442 7.324552566477072
Rh 8.769594277168768 2.528499762695774 5.953799293589567
Rh 6.528850662040287 10.493982887848723 6.383934620553798
Rh 8.84310379136168 3.0173676949493213 3.437786258466819
Rh 8.96067943447705 8.618962889947392 3.0552860521204046
Rh 7.572125555593823 4.836519083728912 4.937609341125819
Rh 8.288246572145935 7.3429971414526864 7.29473152776854
Rh 6.005659072261859 8.414790271486075 7.750178190208095
Rh 4.182541560210307 8.706937780891785 9.477748012387435
Rh 5.833652820969034 6.625024756754107 9.535975220187789
Rh 7.601011090320903 0.8024766881617428 7.4238055055771115
Rh 5.913862238259495 10.758705194268966 8.821209490379106
Rh 7.154883035513257 10.133435468693769 3.9655290588181176
Rh 6.133837216510118 5.906713124527146 6.923644237554251
Rh 6.408403021217252 3.2709747428276885 6.8571270423316175
Rh 6.632107611868322 7.8864219718512185 5.195147983244393
Rh 6.521641378574706 2.2889522657442645 9.156855215581071
Rh 6.507746737950993 2.5070243606560405 4.316075451548496
Rh 6.754102828976461 4.339387118586647 2.4997757148233446
Rh 4.949512350924713 4.366780473714077 8.691559581427386
Rh 5.606931633527756 8.65987005670593 2.5020323313116823
Rh 4.739456076050317 9.624554390611896 4.711481601524972
Rh 4.0246623312028404 9.994075905103564 7.159802562705367
Rh 5.2695393216344115 5.724222467425146 4.472741329496422
Rh 7.197450882630991 6.839647653323499 2.8766777109800086
Rh 5.6543799393997185 0.8768326362273239 5.9593708402330385
Rh 3.5005190341921786 6.450991767230837 8.40494685679289
Rh 4.248792741925604 2.0795561939486484 7.716705944782355
Rh 4.113584528010833 7.425705086890248 6.17257685947899
Rh 3.581169652204079 7.581498774700028 3.593809389572054
Rh 4.242494620963701 3.8305877408321205 3.014019042162456
Rh 4.292272055387635 3.2905863784429012 5.452331276654195
Rh 4.919032822919368 6.09338947012169 1.9011302985572303
Rh 2.815570598444483 4.261997631125089 7.271719675946166
Rh 2.323122030571859 9.136954166884461 5.374544090487413
Rh 2.054131301994918 8.614583627395012 7.903796186685182
Rh 2.792746661962706 5.216726861993933 4.849053223851423
Rh 2.39007988754746 5.6518308036009275 2.3909174473681643
Rh 1.5640446024436405 6.437073385188849 6.661146831407891
Rh 1.1214269389860205 7.1221514161670765 4.258072983356208
Rh 0.06666210288355388 8.392862393666087 6.261900528356629
