54
Energy = -318.63252691 eV
Rh 8.77936125938415 10.230979240580158 4.009472982456577
Rh 9.236480786779108 5.044868085275786 6.712005163059519
Rh 5.317391915603063 9.589325600960375 2.4028581711259083
Rh 8.641734017548766 9.524955629382667 7.7399669045152315
Rh 4.686931419872232 3.380447546100914 6.542718156717843
Rh 10.123143174392224 9.11876320318732 9.821928380743397
Rh 5.767449567920963 4.27959591333595 4.233016410680588
Rh 3.0813539582004053 7.401298391470373 6.488122399283237
Rh 7.747276433669618 11.966367335319017 7.927957202020458
Rh 3.371590320049639 5.061561508732584 5.10433538772072
Rh 3.1276326700003345 5.143382887216807 7.6083024287285665
Rh 5.182409871717909 8.60750699514714 10.493107889032393
Rh 10.626357612609516 8.230009889306686 12.165500101907275
Rh 9.097362038080382 7.8597416285896875 3.0795618898621764
Rh 10.116282493004718 11.403731365940358 8.742507070905638
Rh 4.897171082015212 10.72139568406362 4.522855737606674
Rh 11.296121047322847 6.863783761340192 10.089472131357367
Rh 5.014791602449339 6.892178099167867 8.274705762005702
Rh 6.705876845736388 4.812201559906836 6.49347078873701
Rh 9.674364690726044 7.195436875662881 8.029927373311613
Rh 8.98613528994608 6.6852197590601365 11.308757436371446
Rh 7.637020264721579 8.849610222673094 11.885993396231761
Rh 10.291416428757662 6.1003930836811495 4.576168141871991
Rh 7.08286000477079 2.9396449582663076 8.18483991504199
Rh 6.795369579819453 8.598964037385205 4.261712921360381
Rh 5.657404367931317 7.597359912518184 12.73304671816127
Rh 9.569434974459936 11.174883388914582 6.144764924766339
Rh 7.593296151889889 7.939400676362592 9.55400494421448
Rh 6.942793172119002 2.404880581447929 5.570297513798222
Rh 5.1557061696960975 4.3986391535217475 8.90696357812323
Rh 3.9235213275928973 8.349007698179179 4.110255940403756
Rh 7.6600783513950805 6.231793100499003 4.557480055921215
Rh 11.501695495362453 4.169520588273647 7.595228684592278
Rh 7.072235222039741 10.737172117796986 5.862647756740203
Rh 8.52954053605762 3.88985485122178 4.42559977901546
Rh 2.8905819408635383 9.862767505769975 5.99470376750503
Rh 12.407332746360739 9.058002886910764 10.768766690470919
Rh 7.255412784951063 5.611220333474628 12.564387520406777
Rh 9.34841733946191 8.274910094901097 5.612711164208209
Rh 4.827884874923826 11.405472266368715 7.012392168636506
Rh 9.972460017483678 4.863937305920322 9.269154320728001
Rh 7.6933345910561615 9.581928841381991 1.875935454077836
Rh 7.008981840735109 3.858222769926834 10.650282370564195
Rh 8.115437444687592 10.608309199318652 10.18775793369989
Rh 7.526705634682321 5.4634379643728535 8.837859859795438
Rh 5.266972630813364 8.936964715030811 6.381578160069451
Rh 5.275354683774972 6.610560617332783 5.375947806605288
Rh 7.260113582970175 7.436688165581443 6.948938726336252
Rh 11.560374438476767 6.400170024214853 6.656142766273667
Rh 5.699163915571217 6.1398019414301865 10.674155666083278
Rh 8.99921625660529 5.392800534357448 2.502838803892957
Rh 9.318713244508693 4.199023864415474 11.507320725663423
Rh 6.135288270010611 10.006078373068057 8.6631464379733
Rh 3.730648777577476 9.167668268559344 8.4457543426653
