50
Energy = -300.23138829 eV
Rh 7.8304043158265415 2.7006160618708015 7.739075090102837
Rh 5.895109191836547 1.7425653364581901 6.328381258166055
Rh 7.386925804337405 4.148059818047606 9.719398604285526
Rh 7.56038578277258 3.3872966288390316 5.340057478097853
Rh 3.857053817718788 3.2362965235858696 6.298622502052794
Rh 5.0192089029450475 2.8077652217506914 8.54733742518125
Rh 9.147147853654651 5.861306605804814 10.55241466346275
Rh 9.77400431138495 3.5893172745826534 9.17436436225062
Rh 5.293637757479037 3.075954757291029 4.191505653625558
Rh 9.786439279073265 3.968805353177137 6.524120191135197
Rh 5.062199325849179 5.036917931161743 9.923081404679621
Rh 6.8718293401221 5.682272677169437 11.728135035031546
Rh 6.155858346020669 4.7111726134224226 7.460863066785382
Rh 9.254303338324151 4.8270088215279365 4.074491466462614
Rh 7.460897730391569 3.3596603472491466 2.80434197618402
Rh 5.143673765185154 4.444511390264084 2.097076645755887
Rh 3.4298218702411365 4.973301978991962 4.006912272226115
Rh 3.943013914711626 5.752762702356084 6.46490528144966
Rh 1.734204299272706 4.591802829791918 5.9798451572077305
Rh 6.014474036823237 5.414074457155026 4.930330121763609
Rh 7.661531568235276 6.454318735796097 8.667585699616426
Rh 3.0347125009391736 4.572564113896288 8.480655232676003
Rh 10.146472309713971 5.847409141184439 8.162497817497284
Rh 8.22890096654292 8.012154660416943 11.458888597324854
Rh 10.20404375760123 8.000575728388915 9.676986065765607
Rh 1.6717253334508106 6.6425194910486285 7.576521122625578
Rh 8.227060630439226 5.980484179473005 6.142879549147834
Rh 9.481217200831358 8.072401040562625 7.165402039786911
Rh 10.676464693759673 6.38528527938559 5.532362255833975
Rh 4.528900557700253 7.39695184706234 4.375736611977154
Rh 6.023108903187918 7.457483381921341 10.201261360958217
Rh 9.312486275528613 7.240011660878748 3.3406205167888854
Rh 7.194987274421281 5.846082482634253 2.727360320718182
Rh 2.888619266222582 5.693726309334743 1.7145103026052964
Rh 3.9979148103211197 7.054271673496097 8.762453508619265
Rh 5.969251055497743 7.317755862702792 6.8664507377057635
Rh 7.910774575569402 8.89304539274422 9.064023012290892
Rh 1.9661104194715662 6.9879233132276015 4.950971937941503
Rh 7.165238990862018 7.797393233114042 4.614967597422734
Rh 5.400839517372034 9.299405323226457 8.303628481375924
Rh 9.391831915055365 9.11691889352862 4.944703696201839
Rh 2.732998141751093 7.99444660566461 2.653843609218618
Rh 7.190214000980736 8.390772726124869 2.145148215162382
Rh 3.416374719985099 8.328554374500364 6.65255073801146
Rh 7.4399109845834595 9.59831682305521 6.664666923556307
Rh 5.0470061043168695 7.0211530779011175 1.9494091305904693
Rh 2.8107934504911207 9.624557357383752 4.5692320672837194
Rh 5.216106468070296 9.682236572660099 5.549531430793149
Rh 4.977716846358547 9.478056127695911 2.9780989065399757
Rh 7.260209617902893 10.295871101626304 4.015908699191013
