50
Energy = -297.06240413 eV
Rh 8.68903760933718 4.316871051386931 9.96596332234632
Rh 9.407557658576795 2.709578557128573 8.174362531654658
Rh 6.4296846027323875 3.862285314309616 11.027529206404594
Rh 7.641405671170746 6.07328707534094 11.528003659177305
Rh 6.855979176457885 2.9153664950711757 8.512565493551008
Rh 8.863806687024857 6.831467774046536 9.382785934872672
Rh 8.819740531861072 3.2594887258976484 5.642680554678727
Rh 6.366502858901811 2.282969082563197 5.3611022720955255
Rh 6.552650459335658 5.577114026000675 8.877504841975442
Rh 8.50082726065362 9.111825413341528 8.43671321107054
Rh 3.925108508635441 5.254918774487471 7.3245447437273805
Rh 9.652619404868506 4.783981289759551 1.044338548737451
Rh 5.022685382977791 6.044149201812908 10.899483293245783
Rh 9.052724544115609 5.0845777596434045 7.529323911474012
Rh 4.5829012786541075 3.894447413236848 9.341946704330528
Rh 9.028781380901648 5.872659463436735 5.067220424948814
Rh 6.679410880331029 7.981099341660419 9.989741361146123
Rh 9.998253277875943 7.412694279542005 7.15507230207609
Rh 10.27107731395358 6.41993844502826 2.8102755515859505
Rh 10.677027999914067 7.939076518790704 4.77710889890373
Rh 3.6185726049901685 9.588204943264405 7.444715727715706
Rh 2.7348504967139124 5.77949742210238 9.586103116479183
Rh 4.649984514025404 2.8243903238913624 7.007505688944884
Rh 7.896714263249594 1.1963254755622543 6.945604911193947
Rh 6.112666469918422 9.334299621116104 7.776770002426226
Rh 5.124712467481009 11.63406786409659 7.4299603176042135
Rh 1.2752539199799502 5.0234528123267355 7.551994245341763
Rh 4.535831729336953 10.510775107526772 5.217575492029864
Rh 7.39857147881506 7.174303306672655 6.869119450670827
Rh 8.82981748813347 9.355803408997986 5.850271107589383
Rh 2.462795193786064 3.457699237754285 5.996555365814546
Rh 6.678569824963675 4.627811768684034 6.474655885219297
Rh 4.531653545017084 7.457135169961562 8.822801848085753
Rh 6.396232924324961 10.49461472898484 3.1815340517134074
Rh 6.414588630212468 8.876990715334491 5.034398466144568
Rh 4.730489351889366 7.4513920528623245 6.245956825797634
Rh 2.3282240225127495 7.375528279956606 7.513373869134107
Rh 7.099388918959548 11.096200558327595 5.957381799051612
Rh 9.54887080550305 3.9942711769585824 3.37991059061456
Rh 8.423826175089934 8.047861989583062 3.6564835796894686
Rh 2.4123473174172947 5.963802770533793 5.355883071619139
Rh 6.455793429246433 6.373070883637848 4.544774647783364
Rh 2.6608624958434293 8.639578483236617 5.1958592291582875
Rh 4.592786933320327 4.538268704270661 4.817311693359402
Rh 7.006010993284513 3.976987955259159 3.7328337390066966
Rh 4.089345666412765 9.42254155619017 3.027958661565186
Rh 4.020982343883098 7.025344187462774 3.7482262049568167
Rh 7.8151691875327485 5.909197073978709 2.226809165037684
Rh 6.153795765848177 7.986448894642602 2.4406582934692587
Rh 5.351802418667703 5.403002673137801 2.3551646844763234
