5
Energy = -22.6928397 eV
Rh 7.14243409552257 5.974654065146022 8.03769364179579
Rh 4.967892114297879 6.439023387953586 7.231913188079781
Rh 6.598212566462405 5.257193809121555 5.624495091858582
Rh 8.06579979942119 7.268358275814933 6.290582463821324
Rh 5.894909711487677 7.730018749155627 5.484563901636473
