54
Energy = -324.02910903 eV
Rh 10.683830111674032 9.321478439209043 4.809569231054332
Rh 9.595789000715373 8.312909339677642 2.6893848354604626
Rh 5.796333958178174 10.588699705308157 4.211118361084966
Rh 8.293643818587878 11.0325153891208 8.53841292568047
Rh 4.848849958581534 8.350274358139774 4.0314253063891545
Rh 8.159075604172006 9.760550118322852 4.343047490550393
Rh 6.975859664780055 10.734804246898333 6.40157556975521
Rh 9.06525413153473 9.207906349936767 6.914971150022881
Rh 11.38922089174177 6.913461601284904 4.042212293881921
Rh 10.977154627957967 7.443722388161864 6.591198822456229
Rh 7.1284505681578425 7.566113409548674 3.1994572521180986
Rh 5.901318929780949 10.37390765514439 8.714359486623716
Rh 8.917206571736347 7.412595134777312 5.014440635640775
Rh 2.530377157207241 8.476266685872288 5.269051282269038
Rh 4.471142821365135 6.690573617499349 5.9745621172524555
Rh 2.926586872130372 6.651659457133793 3.6173816046151286
Rh 9.295664886351194 5.690978680236832 3.1454513465961695
Rh 4.530623974763678 9.688879422325629 6.45157562074235
Rh 5.042088078477021 6.599363182058887 2.169013594242684
Rh 7.676877818333242 8.616237701041777 9.053607665817315
Rh 6.64445256539215 8.18817701719026 6.054028878534472
Rh 2.1095322732527624 10.085438043885627 7.111334702480172
Rh 8.295953631656147 6.611367575781929 7.408258314407947
Rh 10.071353665629932 5.190278350087995 5.544021000113441
Rh 3.571595892683186 9.534697634274366 9.104284684639053
Rh 6.969302072423748 5.000970246224095 2.6172026452407002
Rh 6.928069039559924 5.768362196604211 5.200535989476618
Rh 10.685392519502123 5.297510147690256 7.964356405961182
Rh 10.022934636138537 7.65750928497239 8.9665381742032
Rh 4.688275414528159 4.818362173585984 4.019027526305144
Rh 8.400120660649854 3.591563469940942 4.52987041178683
Rh 8.359452364114562 3.9837216973805623 7.114721431387158
Rh 6.852510068721803 6.435906207993048 10.10116751943077
Rh 5.500550436454941 8.617708602071858 10.644153060690284
Rh 5.3267712388258355 7.743900140046761 8.234752089291826
Rh 6.085942305943878 3.445689743509794 5.817282790084019
Rh 2.6118409458194543 7.63550362855728 7.701200338511742
Rh 2.156727448563424 4.253285930859527 3.832381016052455
Rh 6.148119213735448 2.7928279203831936 3.276728352210821
Rh 2.0261319476973654 5.827387200633516 5.947940544865202
Rh 6.087228013405993 5.234995368673781 7.723102107231326
Rh 8.777422572469462 5.1497901075172035 9.524234943657339
Rh 5.168173338643848 6.413572683722809 11.938266980199568
Rh 3.4149924155773976 3.6499126948601184 5.953296681298853
Rh 3.732366944277007 2.2725837024730806 3.770744185880145
Rh 3.5406064933414907 5.242937787595216 7.971804737229009
Rh 7.308375361543866 1.2770609723414574 5.047869377963795
Rh 6.983519996721602 1.7369636389735508 7.513162483961192
Rh 3.597088588795673 6.963578147738016 9.98151040562186
Rh 4.926613540053759 4.718324389706478 10.062383402960121
Rh 5.426423798741181 0.4192270975272256 3.61532409903017
Rh 4.766984165054786 1.325986822544032 5.9483499512676685
Rh 7.0070904707343695 3.350296289811821 9.370220604107976
Rh 4.738670237601141 2.9327049666317104 8.060332729535897
