54
Energy = -323.33643173 eV
Rh 8.77044895810399 4.129787707037359 8.006276073328047
Rh 9.604616118634988 6.503004005411834 7.124916531082069
Rh 7.364781545144478 4.199148502952516 10.545814578507455
Rh 10.93166890595337 6.276401779276687 4.926545359093048
Rh 8.55582324031861 6.1944135635122555 9.542691880505277
Rh 9.467418465431217 4.211784811479862 5.42018916702879
Rh 10.424541231290966 8.596018944157791 5.41222491759006
Rh 8.91009967156819 9.536499801881744 7.330254704274196
Rh 6.536546467183459 2.601194491912147 8.582628827235173
Rh 8.618551304827752 2.0402156704043155 4.199190936413659
Rh 7.453189196416483 2.7120261581255254 6.289679140822731
Rh 9.448406822650224 3.991674114115837 2.6882414429635095
Rh 5.996049039355428 6.440252636944653 10.521420327310283
Rh 8.756291010050814 6.196758442534592 3.7659034152342414
Rh 6.345889857282018 8.990038248270345 9.717096584185647
Rh 4.8251104830525176 3.980968285524401 10.215914252871174
Rh 8.826006744354649 8.658596666228075 3.124938194707704
Rh 7.383102667133679 5.576890272020571 6.140531101225858
Rh 6.242369821240561 9.822677173734235 7.255014528156944
Rh 6.343003657743414 5.121944686794182 8.36537805293741
Rh 9.38696719077442 6.690568635854225 1.422338466818879
Rh 7.712880511336944 10.448359389570491 5.157605230638512
Rh 7.364668197077583 7.593505144672009 7.872096293818399
Rh 8.036886545179172 7.985674954278559 5.4255029645650374
Rh 7.091023112460717 4.133847791149384 4.121214708559035
Rh 5.803560614838907 1.990266344181577 4.27654868482322
Rh 7.237516124879231 2.6029382932877962 2.064619636110949
Rh 5.03151695529027 3.9241780641200292 2.6838871488829756
Rh 7.402370414274645 5.120848445709603 1.6315734462552522
Rh 4.093974954528536 8.234621431125193 10.688542740432075
Rh 3.9912345756004197 1.9902150130206056 8.755027039037463
Rh 4.782249215753444 7.319316438502088 8.311502174156582
Rh 4.917974701759399 2.7030615460179193 6.565730597283705
Rh 5.6017081179409205 7.52471317048925 5.873025472474249
Rh 4.1853990764464175 10.135735896733706 8.98669028676945
Rh 3.924923283795851 4.817100295441459 7.815680255158393
Rh 2.311883703374212 3.731026970873522 9.59006830889194
Rh 7.015967865579087 7.676685159092108 1.500441762827868
Rh 5.9698514510560585 6.444689362240651 3.4710149128763956
Rh 4.926800447314119 5.014872411686528 5.422570372583525
Rh 5.094308079522338 10.594067693352939 5.127769026359313
Rh 3.2240952857069796 6.038216797306182 10.05676811722473
Rh 6.273361061058817 9.006943046268882 3.6158680450213683
Rh 2.331374267442754 3.1411579642851812 6.926959760484677
Rh 3.357841759548391 3.323904215257857 4.554908952888866
Rh 2.3737446298769265 8.026848104352812 8.567954006944982
Rh 5.00926686630954 5.815825176429689 1.0719358264736267
Rh 3.711480534178961 9.150486284457603 6.747252421045462
Rh 2.995222527610202 6.718767713747884 6.141532239142506
Rh 3.7557597471072053 8.418129042793739 4.3305104769867455
Rh 1.5560696556507794 5.6098026235376794 7.956789362740992
Rh 4.476048970892112 8.068337228590284 1.9713276946222111
Rh 3.3365242829845427 5.914745690428188 3.555421505242664
Rh 1.5330062363587507 4.925808396754273 5.277223835008785
