55
Energy = -328.21054357 eV
Rh 9.879066400179594 8.021429517223423 4.247038419366953
Rh 11.13249061153111 10.143862488506679 3.4576309571290795
Rh 8.804900240922127 10.498612199139977 4.6201171705247175
Rh 12.505408838607636 8.143340141711874 4.335351961569138
Rh 5.203180020042764 9.136551194854771 3.6454301484257843
Rh 7.331914033798234 8.054661068608025 4.190034532779866
Rh 6.496327170060452 10.14443353094342 5.5393274507370425
Rh 8.66133953873804 6.226668819076357 5.611644469589277
Rh 10.827339045813666 11.972389965895188 5.194780990840224
Rh 11.220913214776123 6.021349796878396 5.126869675663832
Rh 11.064572341850592 9.489971914361185 5.964472636161617
Rh 7.011295540907868 11.83148505118026 7.41967468045256
Rh 13.614145350222088 9.551257712942586 6.311824850409587
Rh 10.536174002682415 4.72224043524961 7.265532356041766
Rh 6.668929141181984 4.972027704442704 5.221097571003019
Rh 8.524353410770832 8.765618240450845 6.498120079992714
Rh 9.385184808450793 11.156313776125991 7.213727775832168
Rh 4.226092637343947 8.811947713408355 5.8449815659753455
Rh 10.508430455360529 7.220740702668993 7.317600188388582
Rh 11.970035788844728 11.420401654097278 7.362766207963207
Rh 5.586380784494397 4.995366161071493 7.389180192014165
Rh 6.176712436613297 7.311875652700665 6.316534287755748
Rh 12.657433019299821 5.2791302004824185 8.293100025253514
Rh 5.4762148985142 7.080395897943702 9.0604743144115
Rh 3.767094804892626 6.7988032900660915 7.267328800938489
Rh 12.947556065722026 7.084885697707802 6.637557938408409
Rh 6.58661501735416 9.283649808486418 8.102275439556214
Rh 8.048501779636691 6.958421919130779 8.263366202061302
Rh 4.60278513437836 11.10031428113843 7.013813057608478
Rh 8.171267058248274 4.424191731408056 7.574807531703317
Rh 4.101202654334182 4.902295493994457 9.369969190964348
Rh 6.417678082857154 2.893226045566891 8.387298827157524
Rh 11.574867013449357 6.9189236370517495 9.688583307276165
Rh 12.28779498291875 8.919984407714715 8.315855010135994
Rh 10.608631983913028 11.315287721759178 9.548344283468987
Rh 13.164152057099193 10.999838445307617 9.512849553019342
Rh 6.775354253040228 4.883069078708811 9.787360439511035
Rh 4.028203717910596 9.119624322582972 8.495253204808618
Rh 9.579032208272093 9.001723456788989 8.958865386727773
Rh 9.377264828569318 5.562908398351171 9.791879930208736
Rh 7.421853525154418 8.316096744754903 10.416502151331265
Rh 5.412148437765184 11.025322127476223 9.531164490614167
Rh 11.674068587017636 9.300051494132472 10.755825387540762
Rh 8.050607470817232 10.998486832766684 9.60745885570146
Rh 5.110350164474273 6.099589317444965 11.346458196481645
Rh 4.99609347531011 8.817784313643923 10.92929949537644
Rh 9.738740615343282 7.663563532848965 11.3043695018199
Rh 7.700920564795083 6.1834063746041625 11.723640931396343
Rh 6.755566986166409 10.561590575636188 11.766077185390454
Rh 7.92887832398624 8.499414634859184 13.00587045564697
Rh 5.603052415811991 7.676750556031195 13.138238454640181
Rh 9.456988345893214 10.264969511129024 11.619501235508363
Rh 4.86149193041038 10.067693730140123 13.262493430916795
Rh 8.322529247676474 10.926889508809335 13.712739266814173
Rh 6.616661911383301 9.615958845602275 14.874427724593591
