55
Energy = -331.75860504 eV
Rh 6.937207651840488 6.7003704204871966 7.824996943217383
Rh 5.5102244245359655 8.301829785725774 6.319673549031866
Rh 4.102019409775988 5.843876002351233 10.412115093733913
Rh 3.8588404709295356 3.8868627877082846 8.681205185638582
Rh 6.167187639604131 4.692257644296866 9.534252308506005
Rh 2.7878995915766493 8.596964259885503 5.442785049067768
Rh 8.569854789296462 8.351322382949608 9.336558862117501
Rh 6.312630500559275 10.870744852777552 6.539575376130935
Rh 8.15151360587844 3.154570393692101 9.648950015357228
Rh 10.749919922761435 5.224649427430908 5.799048428612095
Rh 3.8936290859125844 6.268721379269664 5.600035197199001
Rh 4.016243653263165 9.983778452474866 7.433603381702685
Rh 2.215641406581392 4.362805028952178 3.927581866824231
Rh 6.27886157803558 9.267038803706726 8.551394131371227
Rh 5.6502474968023995 4.59790942066145 6.945994160032362
Rh 4.91011355616704 5.970667695748526 2.6231563878533257
Rh 9.195031553319554 3.675072310164834 4.311385371944743
Rh 8.471833000945995 5.758941300338496 9.72197887534275
Rh 4.299824035169781 6.705904929950019 8.087981654897037
Rh 4.421430511045623 10.487095866177668 4.859938307105162
Rh 10.623120269717745 10.213722760132708 5.626294148850802
Rh 8.15128948610243 7.899568725373911 5.9023594043175205
Rh 10.799720682794222 8.948941337387419 7.90175425310042
Rh 9.708029626585466 6.72147158439447 7.744132427917278
Rh 2.499220539832261 6.84127904151394 3.4587364149924062
Rh 1.4153140046399768 6.502463644017369 5.93593211610139
Rh 2.8477236414505134 2.3715448788087894 2.4918293444683237
Rh 2.3749325077822077 2.022126188953962 4.9754392048350455
Rh 5.999004418028867 2.3962197330601325 8.371947085780274
Rh 5.093598765128926 3.4696116500474883 2.027975715029606
Rh 2.9711788391581186 4.868900426486746 1.5767229164173484
Rh 6.472421461530307 0.9616789245650308 6.220905357205223
Rh 10.677394097801804 7.741573914582977 5.587311572204514
Rh 4.361134324915119 2.382319526131589 6.479578904186575
Rh 9.167805684965579 8.91062705541865 3.8336565751165734
Rh 6.85564794949718 3.081362692279715 5.007315325920848
Rh 8.243503359766061 5.031101563412744 6.31498209872821
Rh 8.222210267738852 2.631542480255081 7.13111522225855
Rh 6.3920279732539855 6.202718153395873 4.939927301036064
Rh 4.850128493941052 1.66193519657563 4.003418560193824
Rh 8.432062740244605 11.264238301097096 5.049219503663141
Rh 7.1359414814432665 7.379568087820802 2.7603993890077163
Rh 4.784603632544704 8.13982075146295 3.8163739994370522
Rh 2.269035385706955 8.104888056226411 7.878716566841095
Rh 7.268857833130018 4.728819532045937 2.9114236239948297
Rh 7.1721410675388855 2.203071108081913 2.7500681319947877
Rh 6.294471952903143 7.271027251223612 10.205207312616034
Rh 9.065620719783078 6.2629394433381185 4.027217750632658
Rh 9.882079150457782 4.217086647137089 8.08701425283898
Rh 2.0130420322602065 5.635665473892512 8.42824721798398
Rh 4.659424586725834 4.177301906056217 4.4536436354164
Rh 4.097397650375903 8.618456154603255 9.698554145389245
Rh 2.561766002339816 4.219396691190965 6.469150102533302
Rh 6.787579637431426 9.551250016669684 4.310930445841581
Rh 8.536092813945594 9.850054923072783 7.205966792927125
