50
Energy = -299.22637179 eV
Rh 3.8518609204484964 5.405747671476212 3.865934430763695
Rh 3.1548400325378 7.820096418704464 4.409513583672639
Rh 2.932477976410146 10.268424887968374 5.169131722139695
Rh 5.01012770068548 3.0918377527322973 3.4822211593288745
Rh 2.909994393990404 3.4708767778138854 5.1306423831672685
Rh 5.451959488198707 5.070042405962824 1.7778925315681366
Rh 5.363720405795417 7.328011708894686 2.931383747958037
Rh 5.172255800071909 9.492713243540061 4.194483560645465
Rh 2.972973305771417 6.000470326321056 6.326811686140898
Rh 3.380048958955044 8.504762573677443 6.941538831108893
Rh 7.707000511181353 6.406586486215711 2.255907149808094
Rh 7.416282310183966 8.94884622590737 2.989044399430352
Rh 7.550465696172096 3.7225147328968218 2.544100414676362
Rh 5.035534061958053 4.5167581694255245 6.288134629518551
Rh 4.843766439593572 1.9537214746725344 5.925812333657388
Rh 5.025332505137191 10.532823506746743 6.493005323561576
Rh 5.388050035502417 7.1801440185253655 5.582916609200352
Rh 7.00475802988916 2.8801701832019595 4.992883937437332
Rh 3.36353080634634 3.402178588414167 7.647283828578244
Rh 2.8772978958209365 5.4955143468113965 8.924181461775852
Rh 7.931552984050156 7.269513590389813 4.831695745168596
Rh 7.348008057382705 9.875152317903055 5.480764323404406
Rh 9.776521294006994 7.817141203654844 2.312487051977686
Rh 5.191599385512573 9.301292923691685 8.665432142937203
Rh 6.43613456172901 5.247267164385901 4.218336548367631
Rh 3.110177267249591 7.93618458517943 9.397149192416325
Rh 9.640427852289374 9.156015669228188 4.50310969432507
Rh 9.935718475236103 5.210939382100052 2.451692519299532
Rh 8.93503499003691 4.559948424782973 4.608652586290312
Rh 9.488887943834664 10.362161368466928 6.806520290600711
Rh 6.825576402836405 2.9878818909700238 7.565196803473364
Rh 7.341186262132121 5.579891183907741 6.749552262362944
Rh 4.960543449162143 1.6412078450127963 8.51792142553135
Rh 10.404321366252725 6.686473639314017 4.545705947188438
Rh 7.098305018231308 8.15887265027046 7.322305589552249
Rh 4.498686489113242 3.7561096498257265 9.916743552634669
Rh 5.026869436835322 6.600982881917824 8.055641171998476
Rh 4.699806116512681 6.1998220242937325 10.617710592119938
Rh 7.191163886555097 10.7685786635752 7.887462913940913
Rh 4.881688503626176 8.725856709751842 11.114589802231396
Rh 9.616901696482484 7.799806938259173 6.786376489114486
Rh 9.084599723596128 2.8679795981738105 6.462402410760949
Rh 6.799392514329831 2.5905015822817528 10.108334566805539
Rh 8.893470999910814 8.96083892862458 8.967513931532721
Rh 8.815746660078107 6.384564623754067 8.813349659344187
Rh 10.011408341885154 5.237436147608087 6.821402715022604
Rh 6.837363077941653 7.577704150951723 9.91622043334069
Rh 7.016031312984702 10.10152613736509 10.338945900969652
Rh 6.617098251244389 5.008136437548556 9.349956767833957
Rh 8.863897550839539 3.8681598266740513 8.824467004991376
