53
Energy = -316.95374574 eV
Rh 5.5281286255535225 6.286446990732595 11.223107455138031
Rh 6.223134449907467 2.3037523487718494 8.093927343414483
Rh 3.804777837783475 2.6549426712915953 8.897032618176588
Rh 5.685406705991035 4.3701417284849615 9.4249943904533
Rh 3.3600295844825343 5.557100303700811 10.126908534441602
Rh 7.614521709489801 6.135601948662188 9.652583038038703
Rh 7.83595252912743 4.3447967685092 7.85496630675047
Rh 6.558233301305658 8.443182759748279 10.357892646324652
Rh 9.355556123320861 6.490427768231831 7.710863126746499
Rh 3.9104240199812383 0.9677366694805293 6.965619867114007
Rh 3.898029225925858 8.217157714210536 10.320189625863154
Rh 9.098278632447526 8.179633522810436 9.77812521346547
Rh 5.925413548135209 0.9652192928703611 5.473748509300213
Rh 4.970302517921883 3.2887273214141874 6.188633464173125
Rh 7.5822723795412115 2.7151607505190016 5.891868480991829
Rh 5.135414055138389 6.798279704339032 8.690007794888878
Rh 3.6913542339823433 4.886513715901132 7.751525794469398
Rh 2.4025830241735084 2.988529016956145 6.623397441296735
Rh 2.6415541071075714 7.306747221671156 8.190634312150468
Rh 9.505405384034542 9.19965198117515 7.487422457796525
Rh 10.00313710711477 3.477520699459272 5.603013344837722
Rh 10.72477312736301 6.404516779417648 5.508998310841411
Rh 7.713725670000105 10.269844156658882 8.94958597481062
Rh 7.216138282829005 7.846597667971267 7.741629067629742
Rh 6.101024776238619 5.683464969389643 6.573812962038029
Rh 3.6891053934392164 1.9984357817066318 4.426834805613047
Rh 8.35075598684877 5.29009340028212 5.4084226552479295
Rh 5.381073523831697 9.519254937968121 8.377086350026998
Rh 3.1157658362459477 4.464440627495669 4.640885986750616
Rh 8.669908580357367 7.891920152359055 5.575907926526238
Rh 7.254752885467955 10.043711385968349 6.363797796122442
Rh 1.5666384460891223 5.56140479030292 6.484333930648024
Rh 6.0808488707410335 4.383382654325015 4.156365091708023
Rh 10.32675708594571 4.94911080408822 3.5443756052108526
Rh 8.385401018055708 3.2976464829099577 3.5025054466031698
Rh 3.828045764051665 6.650731296432694 5.8643414732604615
Rh 6.017249382563786 2.028115037925293 3.215113962804681
Rh 6.691027189086664 3.804751176478935 1.6148857566194732
Rh 5.879974239302006 8.050265512269402 5.3540567318610774
Rh 3.817890323795077 9.174464078538872 6.643241637638152
Rh 7.08917794771741 6.68934420472019 3.6275205117675338
Rh 4.212103311433945 3.7729046952774468 2.473422007529663
Rh 1.575627631138105 8.19080297333176 6.020269749170773
Rh 9.627598236662951 7.419624502152873 3.2775089734661598
Rh 1.875480180097941 6.5883775654556525 4.038263471285793
Rh 7.671556429530369 9.341128540941716 3.7817629844966314
Rh 5.316144829284354 10.395143006857408 4.622769087022942
Rh 8.484668480183243 5.520918703422615 1.8999154684242474
Rh 4.371790689220255 6.297326614608114 3.277839032476441
Rh 3.455956876890942 8.614000394471951 4.165888150263667
Rh 5.918456303569575 6.212629312366312 1.325186521865107
Rh 7.841565541925292 8.008389780391422 1.4835445441628712
Rh 5.505122064649675 8.596214154206788 2.645906972085677
