51
Energy = -304.99818433 eV
Rh 3.663724718101364 5.789176124315464 0.6881508241035381
Rh 6.233483273721129 5.571208429777408 1.0234520263160354
Rh 5.567671492596156 3.0318692208495466 1.3037855949124746
Rh 2.3964840367713234 7.242506276769155 2.336464291181586
Rh 9.312524329475272 5.905603800134645 3.1645504351033447
Rh 7.956711131528418 3.8564812727656026 2.0009742990221073
Rh 5.068479102888285 7.850268341970796 1.50323162623934
Rh 6.759528796676545 1.0911911257269105 2.4508817531917804
Rh 2.0552207348415474 4.327689871550083 1.9943425216427864
Rh 7.587995300426351 7.538605602629027 2.0772989456812514
Rh 2.471801416180866 5.256512404989332 4.268259945580132
Rh 4.519666487423852 4.748944133772651 2.816483166835178
Rh 4.165363294290099 1.085794449105544 2.259514864625198
Rh 3.671326184957513 9.403537781044134 3.2707140228171285
Rh 6.787127239401496 5.652576822962076 3.5506214496671826
Rh 6.2760143082475714 3.0883985779409024 3.833641198975117
Rh 2.291997097582122 7.883199865889389 4.903302536084637
Rh 1.397300483549924 2.031300431184697 2.8622607196937615
Rh 8.555153914163547 8.14679890893485 4.422439487419462
Rh 4.566841669826438 7.075554398998987 3.814305968055937
Rh 0.35406965939185286 4.010428081856928 4.136141713291623
Rh 3.5685820756381053 2.7704200522587485 4.007784330865817
Rh 0.33808835978324675 6.552559807454253 3.804432176365033
Rh 5.274131993848535 0.7542131882440203 4.661822330364507
Rh 6.2230277507288365 9.040003628914217 3.5992726934760473
Rh 8.87608405957906 3.6747824177993866 4.435475935129814
Rh 5.046564558307131 2.903484931221361 6.139136357333149
Rh 1.0578089960314352 1.8287694941254296 5.401045560946268
Rh 7.483458637834388 1.9229098356172378 5.892566008202623
Rh 2.73587482209498 0.2817784145779398 4.200813587327751
Rh 6.992123388057501 9.66248365610706 5.989950872376926
Rh 6.576944472672477 7.157945246413647 5.639608764955586
Rh 9.082111565027649 5.936351305471228 5.731421344766589
Rh 2.5536958522001485 3.639005099257881 6.32903545173999
Rh 0.0059643019680465205 3.8166084462265815 6.694236124854103
Rh 3.2598956829968384 1.0128388407816948 6.599114614894225
Rh 4.535890531971761 8.864549879411827 5.75646547812815
Rh 4.5662120267598585 5.382896895250935 5.691861693900515
Rh 1.1646714070175483 6.0335771888179055 6.303790037831724
Rh 6.9709194381758435 4.555310471672117 5.942696095033455
Rh 9.071825327256088 3.6880281080149113 7.064289297634872
Rh 8.48208873427851 7.943166037365186 7.144294357752357
Rh 5.654165709250489 0.7808687986417474 7.402408564026852
Rh 1.455524216893727 2.1377068027764787 8.030502950851002
Rh 5.794328804292056 7.702388441457608 7.894623591065483
Rh 7.547030310443762 5.7017614948569575 8.087309763634364
Rh 2.4419880398418585 4.9526480554991394 8.404609974233107
Rh 4.009763798164256 2.791336284221584 8.47597374498671
Rh 3.396184893723857 6.993263115926651 7.126872162900575
Rh 4.9945689224437455 5.232676703856573 8.168477796265996
Rh 6.647851550806524 3.1638763347212318 8.165145847846352
