51
Energy = -306.67019411 eV
Rh 8.790298466922767 10.762923425700084 7.118734173288724
Rh 10.040082607951538 3.620898779916433 7.081190224104207
Rh 6.941689486535918 9.303448034581743 6.428152946923067
Rh 5.340703696596348 7.44171096602809 7.347687212035079
Rh 7.161527644613807 4.254792651835826 10.658142604351875
Rh 5.879899327162264 8.461710345902745 9.542405419777944
Rh 6.406732797342149 5.362196077537877 8.503269087260339
Rh 5.290482527303096 5.179159845854815 6.044274240563294
Rh 3.6390508352929514 3.229324313258775 8.020471590312694
Rh 7.975415274960245 7.2453907389920325 7.690411907070467
Rh 8.983569239759827 5.068134054844273 8.984324168732769
Rh 4.46416159530314 6.467912853568636 2.868740441183893
Rh 5.353354863522043 2.762618656703065 6.155516271165846
Rh 7.124188209918815 3.1985100616357385 4.255446507298344
Rh 8.650825602010267 2.612550654298162 9.053858780364727
Rh 7.724789585845645 6.88462806127974 10.323894663660454
Rh 3.8346541666129577 7.1291551108535565 5.187197138493655
Rh 8.638470785882326 7.386712020054641 3.3227147531579364
Rh 7.779758492543364 2.419015933528815 6.652352853775048
Rh 11.326310880732624 4.831193124886907 5.344319272321992
Rh 4.572142497628516 3.7808492734512624 10.402217883850623
Rh 10.962056358536639 5.990566671488849 7.626878367757646
Rh 7.089395773759557 12.580544108973614 6.62049937898243
Rh 8.372619864622594 9.247844795122727 9.237007142632745
Rh 4.2314676974968215 9.458901022550188 5.994871481810138
Rh 10.162974029021425 8.602488578588762 7.472448111662404
Rh 4.612717719301136 11.811539049302414 6.90221922214576
Rh 10.140868616540653 7.266099006822446 9.672906289316469
Rh 2.834160887647461 7.650509809869144 7.52785197013722
Rh 5.355585425565144 6.220006641913296 10.860716611801285
Rh 3.8474859659451255 5.655895010654767 8.848577505170683
Rh 6.9433033260112405 7.001865319719119 5.204706296762103
Rh 6.5848782745002366 7.668352798503153 1.8498772934365386
Rh 6.427622059819926 10.737114150809402 8.35425975459017
Rh 5.5328374016519195 8.619150719398313 3.8928565641804367
Rh 2.8295455436632384 5.130378242510475 6.534560231510208
Rh 9.115276400324197 4.78823176104879 4.100838188205054
Rh 6.150992191235509 2.910767579911505 8.589302985240852
Rh 3.460963313925112 7.888564060353283 10.016216111221881
Rh 7.595970763215276 9.793377631188571 3.1085153987638607
Rh 4.731322050923932 4.1222970642880945 3.891368560365364
Rh 9.645315932586277 2.4973683764011296 4.852134117976125
Rh 8.544433546255615 11.672380227812416 4.718127230417203
Rh 9.043579205945868 9.16608325009511 5.127334260941773
Rh 6.070025733816866 11.005186373772064 4.914564212984856
Rh 6.833938669665567 5.51388776079086 3.1839932270479876
Rh 2.5009596778750547 5.257380613655483 4.030813317950231
Rh 2.9645907634975597 2.9241912408313406 5.4129021538450015
Rh 7.977284854921432 4.902392985106121 6.3812340757902835
Rh 9.62381032988266 6.757180566179258 5.678803759857615
Rh 3.9948098705660184 9.865746778518265 8.49905138004983
