51
Energy = -305.09418478 eV
Rh 8.11044561573975 4.69733324901156 10.733597631862365
Rh 6.490299636204314 3.5853977721453023 8.941464564795309
Rh 9.072540241324198 2.995750910211584 8.975558374320745
Rh 5.744528870177211 5.855719824786563 10.116933826068696
Rh 10.350486532776294 5.738288074117357 9.736532311716584
Rh 4.095481572394923 4.5396080956994735 8.470335217511893
Rh 5.049593548946313 2.468980523826581 6.991490916271279
Rh 8.172330387704088 7.137646786712599 10.14424841600912
Rh 7.491181587606209 1.7098149882093825 7.3539817537394665
Rh 2.659043509489424 3.3167756093097154 6.638771728890351
Rh 8.420932372384469 5.33936336473048 8.21974919504874
Rh 9.818300438674436 3.7566484083505847 6.713333522589961
Rh 6.061190897825147 6.063450490582399 7.624283360624285
Rh 6.029567950985127 8.376543827417025 9.404864392920006
Rh 10.13761617128919 8.143452900263647 8.656121272338936
Rh 3.994197109395271 3.030077538066725 4.450166462283904
Rh 2.03997160616524 5.717616983321585 7.354903113662447
Rh 6.66728182261136 1.9847815426003201 4.794849786591922
Rh 3.9223172969895446 7.12901619203239 8.69101275685487
Rh 4.585573074684935 4.941259372346669 5.915937982157635
Rh 10.673224822747468 6.091039734820943 7.152352582624059
Rh 6.228967016729968 4.382596333618733 4.027827224198346
Rh 8.805368439672826 3.726642536687991 4.535213418859341
Rh 7.014896713553004 3.9454709368912897 6.433627724796143
Rh 8.203071256379449 9.694664208749538 9.650387752801024
Rh 8.219989100173624 6.115490089094101 5.756250062622923
Rh 10.257495883097226 6.132499444016673 4.378143671194479
Rh 5.350541277357206 8.410826789543895 6.89150641896119
Rh 7.8536163913736 7.934051005172117 7.633453292778681
Rh 9.048156657667702 10.192596002636336 7.325043679832512
Rh 7.730325253323516 3.0714386982590125 2.3633507728357763
Rh 2.207365648741055 5.079290445388739 4.7842227997423175
Rh 1.9439346829527828 8.324782727002246 7.639895048431492
Rh 8.125637535903062 5.605259025022837 2.878567784606989
Rh 4.2110798117079975 5.8785629344704375 3.2785930703783346
Rh 0.816608536690981 7.269698364683448 5.646392818905433
Rh 9.784481661713887 8.186781537304714 5.941639861094741
Rh 6.463591345159135 10.507893343663206 7.767746445913927
Rh 6.065833903649253 6.956043418965653 4.837906684699024
Rh 3.455129283776989 7.212360099866869 5.79751583752902
Rh 5.94211261885541 4.9346958756886465 1.59739963627318
Rh 5.256145932360482 2.509308479848161 2.4496667716360063
Rh 3.760833550055503 10.13560789161614 7.633119748515041
Rh 8.448719076848429 7.950594504284473 3.7220442707613577
Rh 6.216002537888337 7.366136097768626 2.2745153235275595
Rh 7.365964640908617 9.424890518110939 5.5193108778373015
Rh 2.166851311251644 7.428422796890343 3.5244647585063014
Rh 5.026774112173261 10.459806986951206 5.384467516520068
Rh 2.5990865333116266 9.498666172232712 5.35281562842597
Rh 4.413434209459822 8.56607424793637 3.693122688796327
Rh 6.57713569252472 9.737941235504653 3.208295167706614
