51
Energy = -305.1239933 eV
Rh 5.3157499543942786 4.687624204987365 12.209256818581496
Rh 4.265415207605756 6.383608198972592 10.64571215788994
Rh 3.0739727046169034 8.09393740960241 9.14707842305236
Rh 6.882346344776036 6.402340835270065 10.99450686943276
Rh 1.917536198121896 9.9374147251903 7.912485119299694
Rh 5.73323475229666 8.186250957694346 9.513915876617514
Rh 4.513352118892393 10.057553934136218 8.13479943463843
Rh 8.374113178181483 7.949239900052273 9.477060303738373
Rh 4.290240166711202 3.8834293249109266 9.903799437407413
Rh 6.933649796688972 3.863635465323349 10.514119945923895
Rh 7.060178080771972 10.003940493502743 8.33904376833088
Rh 3.2721722673487785 5.660202410673268 8.264801754830504
Rh 2.0001212453042876 7.482327156245723 6.844569914947172
Rh 5.912387734862146 5.544910775663628 8.790058266229448
Rh 8.506067735055476 5.429685010009931 9.023760522296167
Rh 3.3227392805245524 9.642213053583554 5.870999203487332
Rh 4.525146442000267 7.6792098117619245 7.0666160322320755
Rh 10.38570815826736 7.010452011598679 8.136176706491474
Rh 8.630270649221776 2.820648199032866 8.906098027308918
Rh 7.0570890803390025 7.496681611897199 7.322838523793861
Rh 3.7116159845335184 3.2980417054495237 7.379158117680135
Rh 6.071216520544258 9.706999748896592 5.9679241465677455
Rh 6.02934301032462 2.815055242739187 8.338361751453307
Rh 2.79773085622342 5.185257327605211 5.76344218132229
Rh 9.172314588285218 9.06501542665368 7.254944941716348
Rh 5.295836426634797 5.249951537605125 6.331707221442354
Rh 7.054244988625685 10.205021522178795 3.5731175780566047
Rh 10.608201306076657 7.906944602743966 5.444942917460393
Rh 5.851982124220164 7.311149857698488 4.828494928243274
Rh 10.250197033206186 4.327846320164661 7.434472559623939
Rh 4.666819722012816 9.495490345935867 3.7900778665909955
Rh 3.268231121316245 7.422445074929891 4.540975466582895
Rh 7.643286258527127 1.430756062578394 6.926974524874634
Rh 8.934699784455118 6.228245193401976 6.2452804407735565
Rh 7.710746825912334 4.04786792519097 6.86385662573368
Rh 3.5615260914489157 3.040812753296889 4.549532693407834
Rh 5.654410868350525 2.725336549823455 5.774448258265402
Rh 8.195399915860612 8.437313153521188 4.979136246891822
Rh 7.160652265885025 5.100631848775675 4.528999294209526
Rh 7.328790249243909 7.848763813482273 2.5973204543434822
Rh 4.668304640465723 7.373874553343255 2.3291329106773233
Rh 5.7688480635165424 9.547079931675373 1.476412537475829
Rh 5.8882423997603155 3.186775985239333 3.163022668912651
Rh 9.614490029723306 4.145899334706381 4.9382562915477
Rh 4.500669566050743 5.256432180499497 3.801867296302299
Rh 7.881357890365365 2.3664799035716606 4.593958511276272
Rh 9.260071395551467 6.4214674409113055 3.642198248307858
Rh 8.58771242843117 6.170301253092811 1.1890946390736994
Rh 8.431567580562598 3.9906403724393216 2.6211354610302076
Rh 6.282447382511274 5.402654797418484 1.975951071577286
Rh 6.336553806373107 7.2387140686390214 0.30684203267690363
