5
Energy = -21.75998181 eV
Rh 5.966014784182251 7.639612571359665 5.67782286829334
Rh 7.750435386297006 6.130340019508162 6.209317826685259
Rh 5.221894450971927 7.2685349862350135 7.9036172572855605
Rh 6.703337114779938 4.641443779243504 4.683242444384636
Rh 5.363395792906227 5.32514617279113 6.531077132488795
