53
Energy = -318.4474511 eV
Rh 4.436229431202172 2.5546617777925693 3.1909806202263304
Rh 3.6277623634344276 4.5080389040493865 1.662601977395143
Rh 2.3374017253757358 4.053679906022414 3.9413197909098048
Rh 6.1773190686565576 4.250740938841982 2.0620407351690364
Rh 6.535255753540155 1.6523756385966641 6.231119785067979
Rh 6.69274270434386 3.142398365221738 4.283718948058501
Rh 4.349098185379422 2.998791897231926 5.877110175058935
Rh 8.428640713729694 4.688578204410473 3.3014323227092923
Rh 8.589516935745749 3.4839411967416676 6.0213459396908116
Rh 7.068211518424813 3.0128710447073352 8.247606460700009
Rh 4.641337896676291 4.930884187952295 4.070909565354709
Rh 5.074274372045846 6.71477763291366 1.976523524377587
Rh 2.5850154036071555 6.451240383785905 2.860484737897063
Rh 4.863065930257316 1.9288209405020862 8.175599331140003
Rh 1.591552814786402 6.160985073415395 5.282200327706657
Rh 7.555724758432831 6.345635511249457 1.4630772791745517
Rh 1.9380018171467783 3.92829023754007 6.431613565064822
Rh 8.513689530345559 6.029750205839588 5.572370113898904
Rh 9.179774053733333 7.206162118633243 3.2680129365409534
Rh 6.614230733644045 6.584465738903504 4.030079657844608
Rh 8.133586617518194 5.297258779561614 8.00506766522816
Rh 6.26703494268004 4.832795279103649 6.1668700745637715
Rh 9.608616067059954 3.241937960076812 8.446611552806058
Rh 3.855013396761249 5.744017102758536 6.440398166552959
Rh 10.691446080785754 5.295982401645639 4.436609036182948
Rh 3.595142137300601 4.030844909438861 8.362399720906437
Rh 10.578353472420577 5.298227720252156 6.994790739960198
Rh 6.792757781895417 8.622252220634861 2.603015338228084
Rh 1.6845644227008605 8.475154679631716 4.001066688627109
Rh 1.866458006928739 6.022347770751303 8.011624014391357
Rh 5.491106900483351 3.8620128036382395 10.165816336250131
Rh 10.493193304243789 7.590014100223576 5.642066615238188
Rh 4.144906658929829 7.506692155565227 4.553086093021653
Rh 8.030252542242104 8.647455975704961 5.01874218322824
Rh 5.820426908345599 7.484291453456857 6.4892438196878865
Rh 4.050865531405989 9.008845715026816 2.6296840892501705
Rh 8.008031358488424 4.446638436208716 10.315123054813162
Rh 10.392439865829665 5.383901569552863 9.557257887505502
Rh 3.6515519885066925 5.841310359072857 10.134555525575477
Rh 5.618378545982781 5.728777448987733 8.46593302161822
Rh 8.259642544710374 7.752264440791976 7.4594631376880525
Rh 2.5271282389855463 8.296742716673831 6.43446227339613
Rh 10.561266067608388 7.655314580657143 8.332453771900804
Rh 3.228797828771763 10.252541609239065 4.958810182408306
Rh 5.629638240151053 9.557837529673419 4.7496984911771
Rh 9.708859970137844 9.738496239421117 6.792462881263854
Rh 7.0515212105111695 9.95404896831326 7.037432787674293
Rh 3.8633255394811385 7.657069908544814 8.442000549917877
Rh 6.224967710570526 6.2488415273501285 10.884792541149675
Rh 8.443987870701513 7.024911123997691 9.922215782784233
Rh 4.557012213787435 9.747904101746336 7.182440531433381
Rh 6.255800901848264 8.288482391418738 9.021903187364178
Rh 8.665904376638231 9.506240120056388 9.181777276326654
