54
Energy = -324.19948284 eV
Rh 10.941158632038224 6.5367716730165455 9.120763414090392
Rh 11.690926180295138 6.957002709016903 6.69275008261647
Rh 10.327207053335396 4.920421280045655 7.286493908861771
Rh 10.163191995180885 8.723923957883068 7.885486843889479
Rh 9.027922781736638 4.7779415844410575 9.550181976146499
Rh 8.539713181085576 7.371533619929419 9.534059406544799
Rh 9.840501541511133 3.0302505284213184 5.545194321444793
Rh 9.49958968313878 2.7079318167257695 8.162681995449601
Rh 10.550392041873174 5.576433595560593 4.730712443242968
Rh 8.710069934953873 6.92367470429496 7.117295165278035
Rh 9.977429199358536 8.03779580363693 5.1775640855917935
Rh 7.906641507397661 9.778363778730215 9.057331849440699
Rh 7.162165799926454 3.0428731138719116 9.49885188769126
Rh 8.266777354082107 4.923409397043217 5.544399077525134
Rh 7.03718695622006 5.081143813619187 7.993973154137372
Rh 6.714866791962121 5.74884451890089 10.328217752083951
Rh 7.9040587697833145 9.313171227520998 6.631176775881675
Rh 9.315512588577729 4.031126899452978 3.143786019875048
Rh 6.109805014871691 7.450017631816661 7.22828586524172
Rh 8.916537260299714 6.6650570526526405 2.959622696367939
Rh 7.322828148776844 2.819438463581843 6.872939042367176
Rh 5.972373539074748 8.113149142364296 9.573647045805739
Rh 7.546010767394564 7.402445857353059 4.843944302777704
Rh 7.403764275490737 2.702711782020817 4.308082813740679
Rh 5.616706576089373 10.001822648624806 7.653147642756278
Rh 5.791901306902193 5.431082537740476 5.736053482748154
Rh 5.051803045553971 3.3033493629887265 8.07092799717017
Rh 5.114661848978583 2.87183943752725 5.494393304539094
Rh 5.739125332188578 9.209838065286746 5.204893188870224
Rh 6.910513520284838 4.941376178326889 3.2299915120578078
Rh 3.7734075664525335 8.265160918292645 8.103683408548308
Rh 2.8529987881913748 2.478541205301834 6.7153462500746475
Rh 4.620488359998378 5.885204988784033 8.878479087880063
Rh 3.443183739246676 4.924138463066674 6.747478956641963
Rh 6.868998842382738 6.723683857368358 1.4466940972298645
Rh 2.7602374710623288 3.9542606337761357 9.004071531239752
Rh 6.633927372839968 8.970060274224704 2.777795811589941
Rh 5.169768912569802 3.0406642606718077 2.916557059286365
Rh 5.363432101541457 6.973993655620346 3.619837778508655
Rh 3.9068057389630457 4.874903810374361 4.216918797265481
Rh 3.147745379497655 1.8794042579594923 4.211736583678074
Rh 3.8335523110018794 7.31612294950566 5.656706514764246
Rh 3.439572920673943 9.89861650502516 6.0420126884611545
Rh 4.592798052805198 5.337367230217751 1.7456100671987134
Rh 1.4799559093556813 8.487313571327517 7.096235193755029
Rh 0.9108437806818281 4.2972477851041 7.161735043577541
Rh 1.6521742392541134 3.841579961706619 4.799792585581306
Rh 2.0861439295950963 6.3538538050666284 8.290683066259595
Rh 4.56628641848887 7.88706492966637 1.3631478758700533
Rh 3.8698195806298314 9.161530808083855 3.482090946417952
Rh 1.4649702773484055 6.307796513555839 5.56625876348894
Rh 2.6615011531249397 3.734797133837146 2.4059435124619726
Rh 1.652765934087232 8.620329768334496 4.566964531634387
Rh 2.7045350389709157 6.808439238905951 3.096305651307711
