50
Energy = -298.66969879 eV
Rh 9.966287687122286 2.4669301918072186 5.334655283672412
Rh 8.145554850772026 1.0246583069763633 6.5181555174947805
Rh 9.743585725449648 2.953098508558077 7.814353631084039
Rh 10.741053747696336 4.841246634532965 6.194296836781231
Rh 7.641462621046797 2.198307805085771 4.1714477350863595
Rh 10.073460429320031 5.43634468201932 8.684873891367104
Rh 8.891541737299136 4.5561979917626125 4.285571535593436
Rh 6.538459349515118 2.1934136053440842 8.206026118384553
Rh 7.729699411493032 3.520272382510015 6.326190440410045
Rh 5.540274196772074 1.5335255818921567 5.884396506051095
Rh 7.829518830647766 4.350284228786186 8.762358417203716
Rh 10.742214454396025 7.36084657479689 7.135791193228575
Rh 9.935596311646895 6.8914022425801384 4.7475452382220835
Rh 8.518186068608275 5.9331671083410615 6.733596760571585
Rh 6.995484366794705 4.3904493458503095 2.5171314046081745
Rh 3.644132380380971 2.7019711656209457 8.043872420298223
Rh 5.452424816103744 3.374639178912215 4.164137496215811
Rh 5.366219892513555 4.175912356909047 9.407363972929293
Rh 5.314394653330939 3.971528579355676 6.7589820020792875
Rh 8.628729763192608 7.8591252429205944 8.607159656680958
Rh 7.965815745638844 6.653133495781346 3.1325981783481485
Rh 6.654154097465905 6.438344867377085 9.420935663623172
Rh 6.528118481832803 5.6028666331530905 5.0793446106362365
Rh 8.661091540404026 8.684726327393626 6.112523692021766
Rh 3.2739146493816467 2.8917203678388765 5.411655469844439
Rh 4.486950177921863 6.0590793193090065 7.824151619211059
Rh 8.763356855507219 8.995292004946366 3.557487086988154
Rh 6.424468723166523 8.806049771279172 9.987917866125352
Rh 6.5145967140416765 7.414189576911244 7.065725684461388
Rh 4.336627851639314 6.969330029419807 10.16375810872272
Rh 5.254194945010176 6.460986344771641 2.912015506822386
Rh 2.8418128004835763 4.848839022795339 9.400704718537279
Rh 3.651106845555699 4.345094688964054 2.773461695224354
Rh 6.881668987147654 9.830380589205223 7.695837526017477
Rh 6.573797583643742 8.513388649563845 2.024904605705248
Rh 3.9261797332744846 5.456346789218609 5.094414220662056
Rh 2.25876057014496 4.7759383637743005 6.9760617206542985
Rh 6.523527331945084 8.23689806061353 4.613182085760873
Rh 1.5887524123681194 4.725208115665443 4.460276449442521
Rh 7.243044302154873 10.62667091080716 5.231690529344668
Rh 4.503185542506384 8.818218299965073 8.323623781111763
Rh 2.329627904581196 7.178977276626466 8.188396418385548
Rh 4.320177164551248 7.77443251368714 5.864645428640655
Rh 3.9854698818062824 8.505073001281465 1.9311958300586827
Rh 2.6619034829749104 6.711895110859649 3.1965723497025937
Rh 5.24289937876925 10.116065998785134 3.4895829729008327
Rh 1.8167746455974667 7.0889914342042815 5.642271115076689
Rh 4.870286932329275 10.225915795748405 6.078829730811087
Rh 2.4727762829114 9.35035582254711 6.75913109557094
Rh 3.0514263954479763 9.08802123486554 4.238468352003755
