52
Energy = -311.82393977 eV
Rh 3.3801876939594457 2.730929857417768 0.7888828216401025
Rh 6.438795912299516 7.0443758466725805 1.0516440325210596
Rh 8.509955835848459 6.838809695236486 2.4780025502501872
Rh 5.977366226251397 2.738494012173186 0.7782394212597438
Rh 2.4200705375565286 5.682782629012355 1.5145038753676678
Rh 7.416924997956973 4.657411700290134 1.4017414797767611
Rh 4.165888571375405 7.436471191742132 2.010332976008085
Rh 3.9553655830093124 0.17045586925209963 1.4061170860798717
Rh 2.0047935989820194 7.892306924645516 3.428334561253457
Rh 0.9008034066881723 3.4646937839733556 1.5035542500316867
Rh 4.9344908339034985 4.914152679073922 1.6807453917710755
Rh 5.980813321609511 6.603030371074702 3.614250462032782
Rh 6.197997805830883 10.619715365219523 2.9400903098241677
Rh 10.1886407441618 5.699918795141781 4.078259716326459
Rh 0.7501853356172357 5.346193053222603 3.3657371115818453
Rh 6.950176913726301 8.8631045402128 3.3653287516921857
Rh 7.836349976461009 4.79352448280319 3.8160724022247123
Rh 3.343425917127417 5.953687562251761 4.101351430854914
Rh 9.6132918169329 3.165777480760391 4.470150174088582
Rh 4.402824219403579 9.006818663454357 4.016820106554892
Rh 3.7309179399388763 10.748190155097308 4.019030421102519
Rh 1.9930131189756708 1.3916979621661572 2.6653293362628747
Rh 0.1426816296587716 2.7105656825949698 3.8786088609961897
Rh 4.891109269958047 1.9345725500382973 2.8429385778754317
Rh 2.9650154266466573 3.670560594179305 3.0460473213670425
Rh 7.399003145124932 2.3305228212250695 3.188532205210617
Rh 1.7325869021267688 3.990518928603445 5.314115728831032
Rh 10.188640744161802 4.890895283327039 5.555664524754359
Rh 5.954773137219775 1.0181905649916083 5.184598250857661
Rh 3.742952425241621 2.3838154695609477 5.14957645022888
Rh 10.76618830414838 2.558346521918731 6.538699655307789
Rh 1.6428916681938657 1.016295324746481 5.2519959168342165
Rh 6.507501879982779 8.926854085526681 5.910379573714983
Rh 4.681015701822652 7.324002843040866 5.801240295030697
Rh 7.293347671036222 3.040196675661646 5.720956670372991
Rh 5.368172865948463 4.101515352426296 4.117934694589158
Rh 1.3042974283745854 6.601209823094366 5.625177771849663
Rh 3.8522573015190105 0.37310987460868666 6.671565598403661
Rh 8.195472718913349 7.275553324726287 4.998105710249355
Rh 8.965317863809984 5.07330169623855 6.223426943511942
Rh 6.4656885447685575 5.526632494504288 6.031597076409468
Rh 4.0279001580329865 4.692729958784315 6.393608648720572
Rh 1.1505334871568382 4.837165701985062 7.600078489815891
Rh 2.6031274038568317 8.677463475608752 5.9229435152536025
Rh 2.4638118932865107 2.5098853752639276 7.377765071936021
Rh 5.150556380677417 8.268714379983095 8.063171968678969
Rh 7.262101214995855 4.1425154977353555 8.045353866848744
Rh 2.959314666853697 6.698926879575489 7.684249022883221
Rh 5.2427288621884225 2.615217325252176 7.323937773306731
Rh 7.507947907774503 7.138494329109901 7.566047059921618
Rh 5.375298890404206 5.796319687755219 8.328182403028737
Rh 3.3771153214257374 4.3849959799628255 8.865251115962382
