5
Energy = -21.54867547 eV
Rh 8.167758935491959 5.780534324844769 7.467024334673072
Rh 8.848856907699025 8.228525865305668 6.858763407142126
Rh 6.88087453336722 7.2505654881555355 5.914380517036097
Rh 9.797571189725652 6.337122979437458 5.814647171522191
Rh 5.981570737654468 6.531027538712645 7.9835555329679995
