55
Energy = -328.5291046 eV
Rh 4.324890709347908 3.17298904003548 6.34832833270206
Rh 7.732319487148096 0.5949292831524065 6.9671913869429885
Rh 8.194145025326865 4.274605746052739 4.378944977185138
Rh 9.685697852718286 11.01484836517612 8.301042905398024
Rh 6.433185563534879 7.464532875629697 8.231640454058654
Rh 4.762628963358351 8.621089797798128 9.762944656503041
Rh 8.364288771245468 9.013503261762613 9.167797145697909
Rh 6.778200724356054 9.269720253258932 11.18453442914704
Rh 9.28315055091718 2.2548997633503025 5.560930722045894
Rh 4.07191572815968 9.754981620729476 7.543439923847892
Rh 11.488962981592792 5.935498752238138 7.544882778445501
Rh 5.883001458092081 8.790704725562918 3.4503576165658827
Rh 6.397099453709004 4.780075455144458 11.477290492669475
Rh 12.765055651489387 8.08279569397497 6.829150817391047
Rh 3.499081694383649 5.58571087001793 5.733687998225474
Rh 8.665046689502194 10.545304045688338 6.112856239662175
Rh 8.207072214485668 8.716219175887709 4.363362397920359
Rh 5.7399252509004075 5.029793397332993 7.302778735570981
Rh 10.73384108755512 8.779037473175325 8.013869521398192
Rh 9.802323223264576 4.06061161247919 8.314898134566063
Rh 7.738122984304698 2.4619925676037915 8.71849352321674
Rh 4.434743576352109 10.765383205492453 5.098440079690669
Rh 11.825869641763255 6.434715095584582 5.1682577998910855
Rh 7.528210559395101 4.9197223567511 9.204626734767691
Rh 2.1895515690599683 7.095927031564763 4.264594053137828
Rh 6.310686435399184 10.505170295942145 8.798628454267629
Rh 5.381711289876693 3.410219866538346 9.496645957615122
Rh 7.0216153054683215 2.962483624300897 6.324618164836944
Rh 7.6533029039614116 6.941903863737581 10.666937329086974
Rh 5.526428792068434 1.4513076152945448 7.852354885043788
Rh 5.42452579767312 7.2538425777203095 11.874570660102872
Rh 8.190478247670644 11.202660999846541 10.490785499224762
Rh 7.209028096554463 6.49095789189763 3.241510514796954
Rh 10.643566954205388 8.74627931707146 5.502100773018867
Rh 9.938241149691713 1.6094199542775587 7.851820271367762
Rh 10.517388676392933 4.364190566313357 5.789215066343889
Rh 4.108455882268129 8.238561305515953 5.504599357934975
Rh 8.301351944803788 5.34702137159381 6.710854481578763
Rh 4.935368374510498 10.9929622185738 2.6153112264221328
Rh 3.357235149228341 9.07743094675431 3.245313272527479
Rh 4.94985774067276 5.952128376337236 9.7789704841092
Rh 5.693348967897619 4.6264482497937145 4.686118498291056
Rh 4.574488764576263 6.608797404093922 3.5339623371650144
Rh 6.3053439460485 9.36471804083076 6.407633724266042
Rh 7.731978653676431 12.577664405436916 8.409024850696186
Rh 9.427636865541057 6.627458439209535 8.75376739282543
Rh 8.559280203652996 8.00040235898798 6.8026436505029055
Rh 6.3027091188114355 11.941453231813355 6.538454381961862
Rh 6.478264969415325 6.927281990206551 5.631567811250077
Rh 5.355680137746758 12.952129282934449 4.3306766266135615
Rh 6.946497478191416 11.023264496316239 4.241149231133398
Rh 9.399532497325142 6.512598318559295 4.672610096245942
Rh 3.3023905044145887 4.7188084910378825 8.172223016502205
Rh 3.902702438419066 7.193021344923819 7.782334687282814
Rh 3.297529284377921 2.2347796711982735 8.524213422840107
