52
Energy = -310.5347099 eV
Rh 4.573705250630144 4.859048961655184 9.506459204189776
Rh 5.6343469434301525 2.588864457477579 4.002918401800721
Rh 6.912104386226857 4.903607891610059 5.162739380275015
Rh 6.053157215970398 7.285026384224633 9.317029326833504
Rh 8.475525062883893 1.247209679879593 6.934626966836552
Rh 7.16886043985377 4.9674662936593545 9.53451094804196
Rh 8.51045510900086 6.339621937497 3.7487004941494595
Rh 2.096298475085344 2.597654675344138 6.484073787978957
Rh 3.4937725879589014 7.966132914122575 3.5610230078822034
Rh 3.649046039082515 7.066981900013251 8.352814287603488
Rh 1.415099243767958 9.668423724423182 3.5283405799788494
Rh 9.809899046343883 4.191519783968951 3.936921723058446
Rh 6.111629572434459 2.639607464889273 9.671538237893495
Rh 1.205213426464719 7.4184341926169095 4.688011691357093
Rh 2.9833015164987797 9.412714520065698 1.381506784898409
Rh 2.9183874325112944 3.2402497324258213 4.1019853341449375
Rh 8.707831690141964 7.017924122889966 9.122281591692476
Rh 6.433935683276735 6.61500028978219 2.1203909200119524
Rh 2.8020655818656848 4.771047344452564 7.611697933034038
Rh 4.589175236672168 3.9807905950997102 5.8607567893381765
Rh 1.4743826917965337 7.062554094037254 7.122388595936654
Rh 1.3543555216876861 7.485546018670613 2.098739019151218
Rh 7.587372388962759 8.951141602293841 8.039449569308136
Rh 3.584218341407905 6.349103787052296 5.706513026833363
Rh 7.715437456499848 0.6275507520939742 9.32095945347115
Rh 4.90047227129629 4.907838489164003 3.256787268390123
Rh 10.144180431490518 6.042840299045249 5.745753438802299
Rh 9.829967370710511 3.448542122932643 6.468079907368897
Rh 5.784010833497513 5.72769699883922 7.354300586677154
Rh 5.741133179926276 7.142573475542986 4.448506255329898
Rh 7.41466039314394 4.162805646860909 2.755270566766477
Rh 8.673541029088721 2.919649717416103 8.988923684789123
Rh 7.5351091400589825 8.71607226474412 3.3807503538848116
Rh 3.1016918444116715 9.006529686988122 5.826861506905612
Rh 2.4453870104534325 5.57265756357599 3.3078924876592333
Rh 3.904273346618663 6.699398309606238 1.4750607834256717
Rh 6.645382981756603 0.5300267675912217 5.137865416220163
Rh 5.368475643324915 8.918820015200367 2.070576329822174
Rh 9.916774617600913 8.342377667414032 4.490682264266157
Rh 8.079410561387293 2.6419796428518674 4.8390998674032835
Rh 9.875985482130922 8.270044229546382 7.069984402586474
Rh 8.515450246850145 5.2434234885648765 7.417348491368534
Rh 3.8499385953332426 10.47260680266236 3.5679505452281832
Rh 4.220759879435639 1.3854411043505876 5.757623333880929
Rh 5.711568605365403 9.713700261795761 4.977309244113645
Rh 5.342649961337566 8.299680908630778 6.974597153809216
Rh 4.160066302426461 2.6914427913966152 8.097191189452479
Rh 1.3443892728544804 4.900400874186442 5.4831440251064985
Rh 8.099578739633865 9.785395144642155 5.642042828457417
Rh 5.983475547077612 0.9434026520618123 7.527391538239484
Rh 6.797495434917671 3.2716663735677005 7.23552714748738
Rh 7.68332635040972 7.318494993568645 6.115833739851979
