50
Energy = -300.54467383 eV
Rh 10.816292435068146 6.8874011497617404 8.474920892957753
Rh 9.482400604944258 6.887602867412443 10.7643709814681
Rh 8.21228461604051 6.88802874236521 8.546288182370548
Rh 8.100389053365822 9.049920260354364 7.057722354474977
Rh 9.243608188807894 11.169326990972156 7.779017960639561
Rh 9.423892740349238 9.09514495383571 9.328473505815479
Rh 10.74766744615965 9.056683311912117 6.960180062078672
Rh 9.083706075709578 10.398908863173798 5.174594572047887
Rh 5.693125532840632 9.0610334956068 5.804278140448414
Rh 4.189385755200078 9.048368379190942 3.7673600958113607
Rh 6.733304336816648 10.55433633244076 4.049592303245943
Rh 4.48902203891884 11.227404255730264 5.376927662169301
Rh 6.858247508473331 11.33522451704113 6.5338781895278375
Rh 7.111951658563917 10.423889102424296 9.046381703078708
Rh 5.932641072015171 8.198078028115157 8.302562739095748
Rh 4.673840126313854 10.426279970039584 7.8345889838695735
Rh 3.0552571573048772 9.139643002640707 6.11822138590228
Rh 4.963057387306256 9.505807022302507 10.261784355519426
Rh 4.926190677009598 6.888256118116984 10.363976569745047
Rh 7.218177087020408 5.567649174251934 10.604300662955827
Rh 7.218734001029706 8.208116980609192 10.603744605666645
Rh 3.3203332122122213 5.55812175366898 8.649033260481836
Rh 3.3210094905458103 8.218767231983513 8.648737759437468
Rh 1.8549984171896488 6.8887109599431655 6.973616043172089
Rh 4.348523878795529 6.888472995020446 6.631510334108236
Rh 8.099746516071301 4.725312386441212 7.057479379251886
Rh 6.914736568943203 6.888941861314529 6.319949550670772
Rh 9.083182011626771 3.375904118323269 5.174785112007776
Rh 6.731640609601632 3.2209932573013815 4.048485289910397
Rh 3.0536697762044507 4.637501451484013 6.118491798010674
Rh 4.188519947951324 4.727893499528655 3.766275017408608
Rh 10.526338411601841 8.418912764478257 4.400015048766669
Rh 7.861647901690825 5.529664906766068 4.278688193246392
Rh 9.459154486072677 6.887577650444256 6.162879242984527
Rh 5.569587203095793 6.888180846809552 4.094301812876716
Rh 7.862007095919831 8.246105163132837 4.279094135459385
Rh 4.487447852320667 2.548644669592565 5.376570848353509
Rh 4.671832309479879 3.349151342932482 7.834928233835389
Rh 6.857078057622446 2.4398460354477325 6.534150346644943
Rh 2.973161201622346 6.888818922509071 4.505046340344
Rh 10.747181175484936 4.717792746850466 6.960294462349024
Rh 10.52599631971184 5.355872631592217 4.399740559070491
Rh 9.412592516932653 6.887512828087666 2.742676996252628
Rh 11.986095868941788 6.887030243578127 6.159086495336608
Rh 5.932351070335636 5.5789518575839585 8.302385395247137
Rh 4.961709929878861 4.270107777568287 10.262872173620625
Rh 5.692218094478532 4.7149397485843645 5.803865037648284
Rh 7.110842951331775 3.3512859259602394 9.047098583295703
Rh 9.242696197645937 2.6052963405485596 7.778915985809103
Rh 9.423639209988904 4.679698117702954 9.328974285347808
