55
Energy = -328.05112446 eV
Rh 7.327687086978665 7.972512693362264 2.519630869279149
Rh 8.249808496761121 5.947507659830342 3.7723800059448713
Rh 8.930859975500463 10.131866486224117 2.6331036603704603
Rh 7.134619556371785 9.741721642833863 4.282176043098975
Rh 9.843005250697326 7.856255257058229 2.8462036233753
Rh 8.175241124834757 4.246660610630407 5.50387020517493
Rh 5.9690249239139614 5.095095295286005 6.289691213342646
Rh 6.317976324073974 7.261042839727501 4.876975533824673
Rh 5.096558972768766 9.579323935568274 5.906643799077941
Rh 8.786018271910455 7.958781262739599 5.20680184148858
Rh 11.2986287269553 8.088608237190742 4.748773037550522
Rh 9.609874822179261 10.32438703902718 5.069197973683604
Rh 10.317604949802803 5.864207996693232 5.638213931627293
Rh 7.02749378822428 8.477479138929954 7.120645408023532
Rh 7.80579852621368 10.048367316465743 9.04147108687911
Rh 12.694047820495232 6.451464780122246 5.920480406836625
Rh 4.641266442234448 7.241337191724822 6.935924219418166
Rh 11.640228263625126 9.795388420954996 6.556881783756922
Rh 8.113305590124488 6.186974547991166 7.112680807279554
Rh 7.339547337439198 10.932279954496604 6.449884223799455
Rh 8.379567188185302 4.12676775124421 8.50962569081327
Rh 5.433144916147958 10.880310802802184 8.146591409298622
Rh 9.662784885451616 11.157421659737937 7.5116093994864634
Rh 9.673346210931383 8.486191957127264 7.695778192091976
Rh 10.16126741810676 3.6012677736326553 6.847762494743598
Rh 8.186383236885996 13.051250000214939 7.5128059302510035
Rh 3.8534226490684746 5.012322939559927 7.8817831482510226
Rh 3.3623803670777703 9.445653777969028 8.069646173865165
Rh 12.213317429632081 7.630133079072496 7.919187299829062
Rh 5.474039570316642 8.462228548164314 9.177335475402266
Rh 7.980755383249227 7.464635762545693 9.361485847091174
Rh 12.557381763300384 9.95601966595084 8.850596468498964
Rh 6.940387261341202 12.327421601431299 9.44892758352982
Rh 14.404226952203318 10.077672894529078 10.611417358640153
Rh 10.23366791594886 10.116408719783525 9.781831800801832
Rh 13.058800082155612 7.932744415541247 10.346235236532154
Rh 6.050691786752077 5.845870710494773 8.738320943402174
Rh 9.055934203102451 5.562488396313975 10.561709687050751
Rh 6.843041590233676 4.216608304831405 10.474425118525408
Rh 2.140999603635288 8.947085674309303 10.33526154562848
Rh 3.133303884327903 7.059294577934761 9.09377200647849
Rh 8.359506782021688 10.95992823524915 11.419194076180107
Rh 6.566444694026255 9.233985645772922 11.388583850364135
Rh 10.3997758825256 5.788096215719229 8.21360588407811
Rh 12.828327685219293 9.266165167207777 12.41079723822121
Rh 4.236655711605118 10.34367130043212 10.403626064483705
Rh 12.104846188527885 11.207688135717031 11.041724525010219
Rh 5.912492390206607 11.711856335897412 11.582063297497228
Rh 10.614331065313246 7.57492852593938 10.007192534696854
Rh 6.515670359042593 6.628932653486558 11.307200951600933
Rh 4.375638234509211 5.385408513686177 10.561975217595233
Rh 8.721795881875407 7.872518189425914 11.789957177432152
Rh 4.274237869420352 7.887283672889865 11.316551233589076
Rh 10.336834782572064 9.748859143025356 12.335321955389327
Rh 11.128337155946886 7.321952177474603 12.406802741789019
