52
Energy = -311.9809335 eV
Rh 9.544713676010838 4.916833948850396 3.48093912296494
Rh 9.090395077321032 7.5375456142886295 4.366006501984931
Rh 11.034889687393301 6.1740129329172 5.343452388358018
Rh 7.977783962455793 6.770246947422117 2.2167494437835513
Rh 8.511569287843162 9.62321567301903 5.641777437358734
Rh 7.260660187380148 4.203263978400094 2.293280583432648
Rh 6.811445554291742 9.037055397700637 3.767069255089688
Rh 10.080420908228335 8.007716764676935 6.9552303919755305
Rh 10.107698891635005 3.8550774193830106 5.761410444567906
Rh 5.9633680353426515 5.887136701495039 0.8529812221550686
Rh 6.128880386157993 8.382548168820602 1.3000534804481942
Rh 8.7323037769087 5.961795524970375 6.551492887953524
Rh 10.703774099778714 5.392172799774926 7.992073825453909
Rh 7.880602045182604 3.0127616236588115 4.746948461914686
Rh 6.705016119844207 7.534939111612002 5.917042379012274
Rh 9.303930066591139 7.241939163388227 9.248416662646383
Rh 5.505560083860666 6.843315978733224 3.3297615229017055
Rh 6.066809027708639 2.0440362081074364 3.026529701968811
Rh 7.787626858517502 8.853730633223705 7.979805278211729
Rh 6.15239596795572 10.090449339089293 6.381652342242132
Rh 7.425810558845512 5.579266821855396 4.452888339312871
Rh 4.172870487012814 8.936209761698837 2.7521171200429557
Rh 4.533985276057076 4.025883517044773 1.8408788528913471
Rh 3.576874077048109 6.452566904656846 1.892500007881821
Rh 8.766685979753479 3.740984779199405 7.877808128851589
Rh 8.742554547801365 5.006269026928412 10.027454418735795
Rh 3.59860116683545 2.3960711510988726 3.760132938969334
Rh 7.113178982360094 1.9650622838751253 7.477317227403952
Rh 4.289830669128741 8.887367845745977 5.184923764868524
Rh 6.538954032455399 4.378660083653454 6.568730817703061
Rh 5.48830660719358 2.0464172347462246 5.552879836225367
Rh 7.225109702940403 8.174863823701838 10.401252681992302
Rh 3.750297811872767 10.35918600522927 7.203406518033539
Rh 6.951586282597084 6.397401257427161 8.413236058875876
Rh 5.333264778709484 4.260388844761411 4.140666488768124
Rh 4.773119373368923 7.800917610267621 7.574756679818061
Rh 2.4366695101496094 7.414926380447231 4.148411383564935
Rh 6.495799697760217 3.8893506155993087 9.270422816884633
Rh 5.571830603450762 9.682604948213314 9.02053913959397
Rh 2.834239557039325 4.898060568342402 3.7705575484346765
Rh 4.294716820649885 6.268328388378077 5.531652967344374
Rh 6.490221360643553 5.69591052258638 11.06700754322767
Rh 4.661047462486558 2.6182204890607155 7.990539920127593
Rh 4.615200428269845 5.223701996971487 7.937742089483784
Rh 3.573765189348395 3.7563968515493475 5.997835829803052
Rh 2.3645627265310547 8.11833487394242 6.755022371488626
Rh 4.831632327445292 7.274538956151173 10.087225525065733
Rh 3.0496044988783546 8.891948851006344 9.190318841413509
Rh 4.1274446213787295 4.76462197570496 10.285122683861353
Rh 1.8806810639276494 5.690244791304607 6.154659447085924
Rh 2.6014381041534347 6.42493640698192 8.72802010418736
Rh 2.34666492023974 3.9754115964281374 8.261821547956947
