54
Energy = -323.69354961 eV
Rh 11.808704611465082 7.318198928862875 3.8990721377956183
Rh 11.075789664813687 8.16814606491351 6.094593772966217
Rh 12.271438508954187 5.898052747393291 6.103363138766707
Rh 9.327767290793668 7.788547341981721 3.8873653910139474
Rh 10.705620064247443 6.607630862110174 8.148655108677346
Rh 9.169754220329626 8.670142127529786 7.688542115057691
Rh 9.340657743530734 10.005764497398172 5.495654198528592
Rh 10.545551704424971 5.251923797656803 4.400509307881157
Rh 8.561010826447141 6.775669568605888 9.403579581893439
Rh 10.266321054568019 4.415670127213197 6.946106878632374
Rh 7.741453159041693 9.738849100560723 3.5772894321528805
Rh 9.132083802267507 6.575848446627731 6.08932156177314
Rh 7.494116267157538 10.606584179074387 7.27465547439127
Rh 8.954307358319975 4.139351989603473 9.229059084370574
Rh 7.564413694210604 9.247641801478498 9.495172237317064
Rh 6.019416728671299 10.719019721817693 5.189335910855181
Rh 6.925807322951812 6.20165456021821 4.732072324392359
Rh 6.723662398133828 7.414418508443904 11.122559065711659
Rh 8.570428855608094 5.32256162104421 2.833226420460434
Rh 7.336701852123163 7.478943581792056 2.274144531922244
Rh 6.381792645049657 7.4067655064068045 8.178565895819306
Rh 7.523410398738472 5.111079727669071 7.341001701616419
Rh 5.827828341629253 11.101064291016318 9.099243623897873
Rh 7.2151984007671235 8.448848426976154 5.931367845115999
Rh 8.401128004223501 4.057673819497197 5.078693659949006
Rh 6.556632390549204 5.257053763711849 9.804621837991723
Rh 8.435062345128152 2.607159760084617 7.128917298553848
Rh 5.0037414533080184 8.893107477146808 9.958274706131798
Rh 7.3043524111173985 1.845899180531909 4.664315664053067
Rh 6.500690767686184 3.9584235695080814 3.347595645232562
Rh 4.850326931157881 9.526328294343205 7.335192644600601
Rh 6.579236841590241 2.950930733442516 8.881963804121025
Rh 5.213111681817248 6.08979536147774 2.6330893069979555
Rh 4.9879667077494405 5.12080728750503 7.615445957139728
Rh 4.864358854756635 7.246179113565754 6.051941016695923
Rh 5.57452346710582 8.360944568390199 3.7771718261433245
Rh 3.8189539699037396 9.626804962654305 4.982886287075033
Rh 4.613233668912468 4.862011487611939 4.9354231891865235
Rh 5.9239699471351965 2.9098942021039473 6.452980699811518
Rh 4.431574317492767 6.363573871830291 10.626530625991363
Rh 3.733556534332738 7.289845708051417 8.442947795946031
Rh 4.636746107070093 3.7497463111591323 10.526523270277057
Rh 4.830705066688072 2.1958667203357054 4.238735498982675
Rh 3.8959953196073385 3.953001400439219 2.6330393957831535
Rh 4.0929838248547705 2.737732243027807 8.27450776931773
Rh 3.2344281581041168 7.117012901736993 4.003206706370701
Rh 1.5505204267363617 9.095610099248388 4.287989682921991
Rh 2.382138761289459 8.28698698447339 6.618405027210007
Rh 2.85829262492336 4.908441218264264 9.070916999657252
Rh 2.63156504215854 5.6873026404444 6.61880506155497
Rh 3.122735288428865 3.1254210685023813 6.0856367919161745
Rh 2.350576661807481 2.2409579917982203 3.8875893659828047
Rh 2.057848657025709 4.720024468687213 4.245672445259065
Rh 0.9428796904021673 6.792449502841902 5.084966948876122
