5
Energy = -20.97017916 eV
Rh 6.766362074815136 6.766362074815136 7.567184705446055
Rh 6.766362074815136 8.036281210716455 5.510809882598045
Rh 6.766362074815136 5.496442938913817 5.510809882598045
Rh 6.766362074815136 9.197422 7.621502989896622
Rh 6.766362074815136 4.335302149630271 7.621502989896622
