55
Energy = -329.41617588 eV
Rh 10.130804154016454 9.591513213040498 4.1092836425155745
Rh 7.6624043712804735 9.280790791535173 3.5231147362415993
Rh 8.626559312093383 7.588505721865722 5.095569132029695
Rh 10.841081835846783 6.841957693971077 4.384544239822062
Rh 10.192560665100029 11.84320848013728 5.584758462987563
Rh 7.9498235738784935 10.847432925731182 5.52443996679271
Rh 12.138105757126498 8.619450026730961 5.558681332955299
Rh 6.1343499442596645 7.483948706524565 4.775782505897609
Rh 5.710035588720195 9.931739018346457 5.088983279070021
Rh 9.477395318325328 5.25549795776708 5.972196998372685
Rh 3.764347863400362 9.30783483679903 6.357767086253634
Rh 12.224857029098795 10.939709348441548 4.465561357851314
Rh 12.026016908409332 10.848214241433244 7.016662332189365
Rh 7.921603611882816 3.803062320730025 7.454848058624874
Rh 11.574429939983274 6.428238434630002 6.81000104616532
Rh 6.105480489831262 11.160170799084204 7.337238096430859
Rh 9.918997209646033 9.393167977876416 6.637330135380954
Rh 7.086022004336447 5.942446502133469 6.5593592752528895
Rh 7.176141855769995 8.77143597569938 6.942594556375226
Rh 4.92300755551162 9.123145275783138 8.503676896954444
Rh 12.455487751780574 4.208264771555843 7.611304923221613
Rh 4.79117834250977 7.0748022336464205 6.945980155413011
Rh 5.52047803150689 4.930714500386183 8.331190932972156
Rh 9.153014872630045 7.18449857035197 7.840953551830602
Rh 12.81846434222063 8.369945996101627 10.638110746609732
Rh 12.444749917177306 8.550165177804027 8.05918182098902
Rh 10.759003795808548 12.397355695491603 8.65768242542402
Rh 4.1853136196808505 6.919787018569383 9.579463128814877
Rh 12.308810049371246 10.556892430400666 9.51779443923327
Rh 10.094343878499075 4.714756855100671 8.458281464947238
Rh 7.740750281088371 5.018005683946567 9.647315070415432
Rh 8.665217975792702 7.538959419856994 10.455545734337012
Rh 7.412802036679178 9.592164344025097 9.433173805776649
Rh 9.95747382287138 9.36207272769533 9.253963337375806
Rh 6.966596958011731 13.09539419351551 8.728103528835002
Rh 13.403867455959528 6.333098923339563 8.680731237979195
Rh 6.656830077839567 7.1272141408328515 8.867872651966053
Rh 8.733121264929324 11.339731952410968 7.940604821806368
Rh 11.081564930739532 6.940290666116206 9.571569367657379
Rh 6.28854729151941 13.304779068079858 11.325324720652764
Rh 4.20047948747954 9.281330718743298 10.876109584875614
Rh 5.431329735891602 11.366258763855743 9.80600566961636
Rh 6.446792902405093 9.944991705686574 11.845145156807352
Rh 9.86329622213427 5.272313704066019 11.076839966228212
Rh 8.096316662613946 11.774579365469341 10.54074177283912
Rh 12.070719613050386 4.597968709275388 10.067691318620792
Rh 7.620190565046997 5.7330654510645225 12.123594859567138
Rh 6.0175718180812225 7.510656897857372 11.27874980195294
Rh 10.525758031851964 8.68507245628863 11.813074743207668
Rh 10.425803717913707 11.175815132705075 10.968277163356985
Rh 4.5646926663516085 11.62742745937873 12.201798582466344
Rh 8.056385523372555 8.197114691371663 12.790572919536032
Rh 9.991172226332804 6.615608772599483 13.163332014710923
Rh 8.77497793191287 10.61112129781417 12.735421281871341
Rh 6.819562013517141 11.973001059426869 13.392794963011365
