51
Energy = -305.8439577 eV
Rh 5.880449726995296 6.549095779873428 1.402476917734937
Rh 8.202858844916173 7.131472038428352 0.38669794580706657
Rh 7.134908119052867 8.786763623703223 1.952398054696875
Rh 8.1139878368999 5.166573618404687 1.9311209153010496
Rh 3.806525042479992 5.9035851671868995 2.76762179664935
Rh 5.857200930203242 4.297792315064272 2.8599569984353232
Rh 4.7830200335254665 8.358383948152236 3.020234537568207
Rh 7.929218135581492 2.77292057771087 3.0272153806055195
Rh 9.275299844790194 7.456800792719912 2.702424817140679
Rh 3.5760756923670822 3.654146941819148 4.095571479522647
Rh 7.029291601902724 6.824658942723834 3.666038800802863
Rh 7.962796282487368 9.116343196157283 4.403393732075673
Rh 1.6589862448076318 5.35993401232495 4.1796971027556475
Rh 6.029499152838338 10.544028535197565 3.517403782332817
Rh 10.118158548628859 5.159399364714239 3.488019095963802
Rh 5.846101369879015 2.433575901545923 4.582939700034772
Rh 3.0518089214093074 7.4788451073367215 4.7063170953172335
Rh 5.081537566239717 5.570484324056371 4.963434712948206
Rh 7.8898834106738 4.6394182263160735 4.65311682021512
Rh 3.9653494392347675 9.902363978471183 5.050605567909192
Rh 5.5444532276034115 8.066841917097614 5.437043765731272
Rh 8.268997647237207 2.2483946258364127 5.643736021898692
Rh 9.345424380576418 6.998475613927396 5.22757351884657
Rh 1.5514034282526117 3.4128693355416453 5.862519159672535
Rh 6.507925058164997 10.389049440262545 6.04948778123821
Rh 3.7312616509642655 1.5437197546422545 5.79773129076742
Rh 8.272786971509452 1.2259390811121997 7.963497627795292
Rh 2.3461785245726103 5.896514511334024 6.557344453652201
Rh 4.835827424742862 6.157798045876844 7.488166425695191
Rh 8.280186322564706 8.611975771103756 6.966819875123919
Rh 1.6986493410340968 1.4893468325144559 7.4352978790180515
Rh 4.43664509383899 10.589176749166427 7.570014086315146
Rh 9.994424437067897 4.47950796185043 5.953052630921246
Rh 3.8610034310508707 3.8826545145127995 6.658754538710795
Rh 7.1550233845352205 6.358462346759317 6.406394420371981
Rh 3.3475020752801914 8.271883861770002 7.132303449071693
Rh 6.021609922822498 1.3112712383282958 6.923159272474922
Rh 6.402540730874341 3.8859229284207597 6.652374802892273
Rh 7.274050362292881 10.47935737636263 8.437224841561592
Rh 9.225004554043833 6.178578154683746 7.747921195457983
Rh 8.66264014195405 3.669769631637206 7.938388182304046
Rh 3.974351325548849 2.0512419051402557 8.369831262254044
Rh 3.7969884614723712 8.936258619674728 9.514914555138327
Rh 5.840152944456188 8.529071158472114 8.055218004904987
Rh 2.042833881709284 3.9162484500215418 8.43921350337962
Rh 5.192136907889512 6.845227367109298 9.965747180495512
Rh 7.801796352628422 7.70395395134219 9.365371080016347
Rh 2.768651198519728 6.452410116412462 9.034535667107303
Rh 6.963081601672474 5.332545241262494 8.90729698345243
Rh 6.395975571671392 2.7484653206302765 9.005522675820778
Rh 4.459683482388026 4.4226283691385975 9.329005197945728
