5
Energy = -20.610169 eV
Rh 5.76763219435504 5.30006844797566 9.486606641300446
Rh 7.242722319144854 7.777836078423184 4.300690103307386
Rh 5.619963771772189 7.8230792117999775 6.014767957169176
Rh 7.909784168555185 5.931330291726398 5.607205432137714
Rh 6.257062649477905 5.966779499045525 7.375730292193887
