53
Energy = -318.20431794 eV
Rh 9.53770019519027 3.5337319519326345 3.9551328956080765
Rh 8.55381080477912 5.5079995229431695 2.563724255814488
Rh 6.426194599353306 5.966246812258559 1.311536823188047
Rh 9.842762637385013 4.14461829329084 6.481898932104919
Rh 10.133140298650371 6.002747310655334 4.737257010214966
Rh 5.616045776513035 4.484966972072273 3.35882579250094
Rh 8.087711235785969 7.805062124692817 1.1246648974540385
Rh 7.706833329967897 2.742599925188735 6.705551516573905
Rh 7.092414490494839 2.5746581273479014 4.1409309941738695
Rh 10.163549175828944 8.515157970238091 5.610304316989943
Rh 6.251912782105104 1.4717164026315064 8.364216904815585
Rh 9.671393989970934 2.2806220172720058 8.196357203047388
Rh 8.9258709894273 7.923069259580594 3.478112687833481
Rh 4.489659474289128 2.306852742421495 3.684963890056429
Rh 7.776160196612517 4.932600385657831 4.9555111820824855
Rh 5.4549771646932985 1.7068699027620944 5.975101555645072
Rh 9.973871614460933 6.689571152766199 7.33801348929343
Rh 9.809618177217931 4.741185284262581 8.976835731997255
Rh 4.200851658334373 6.429492332737202 2.3607267047904172
Rh 5.359285409159441 8.274808559887203 1.073976110373944
Rh 6.509672675575326 6.984888359298744 3.7175040003797633
Rh 7.612936333491993 5.182197369668161 7.625550380166709
Rh 7.8320256760728775 7.220491806678456 5.938415161818234
Rh 5.563431801034492 4.2827108158295735 6.029913056929882
Rh 7.945291214567494 9.749431481593774 5.147087808350719
Rh 6.8862113636264 9.362497238792086 2.76220340800217
Rh 8.541127197309795 7.003350798071915 9.410865230452771
Rh 2.986398720558057 4.5339596982752175 3.567260801977537
Rh 5.3273085716522095 3.7716591071180665 8.569679956368407
Rh 8.502430021398663 8.96297017594793 7.660868661002691
Rh 3.3480393605139804 3.2199433487546365 5.771737790218075
Rh 4.418776534878117 8.73717232871136 3.487687853013598
Rh 5.6544639191909605 8.523115903287504 5.773554739013036
Rh 5.709240230924751 10.810256185454296 4.532968914331298
Rh 4.366624461360438 6.380026456798649 5.032856119084857
Rh 7.713250184686545 3.3032051114041336 9.394847669543493
Rh 3.7172472962157794 1.943350087311664 7.907255494971208
Rh 6.254183051133532 7.287771659581703 8.034172493999595
Rh 2.1983813011768514 7.122171114016325 3.8142014431983258
Rh 4.220202048299673 5.905779204779396 7.50073171265308
Rh 6.526034593059531 5.5409687646777765 10.033503858577904
Rh 7.203266173133034 7.7915792535264305 11.29876931661288
Rh 2.066967372983381 5.384334099791087 5.769581174882294
Rh 3.4606540669680803 9.8736129526537 5.5915674020100585
Rh 6.469900055084066 10.5516879870506 7.095326609610007
Rh 4.427727566708435 9.1275434043344 7.99486386546487
Rh 2.4304316965205683 4.184317160000642 8.079476356358043
Rh 6.626646467232124 9.420763572629001 9.396397042338812
Rh 3.880608162902193 5.3373328915458425 9.935897023737333
Rh 2.576637332038101 7.780380606467284 6.424837568015182
Rh 4.916707682575459 7.628970720060731 10.189686810130338
Rh 2.7355910947445636 7.447273345730477 8.920864409994941
Rh 0.8973077143047348 6.212022016759885 7.783108328938333
