54
Energy = -325.94514089 eV
Rh 6.592913329559775 6.593766392592524 7.958765510873325
Rh 6.599056121285545 6.593766392592524 10.59595597019112
Rh 4.308247004683328 6.593766392592524 9.298267449485387
Rh 4.328207465200387 6.593766392592524 6.593766392592524
Rh 2.096791659895237 6.593766392592524 7.95619664442246
Rh 10.257630574272834 6.593766392592524 7.968436805627725
Rh 12.602933270742577 6.593766392592524 6.593766392592524
Rh 3.0108375228636315 10.818705769533452 6.593766392592524
Rh 6.592913329559775 6.593766392592524 5.228767274311726
Rh 6.599056121285545 6.593766392592524 2.5915768149939233
Rh 5.887205420382048 4.419363466614027 9.296868327583885
Rh 8.449992750572305 5.250618731965543 9.290434672597888
Rh 8.449992750572305 7.936914053219504 9.290434672597888
Rh 5.887205420382048 8.768169318571015 9.296868327583885
Rh 4.308247004683328 6.593766392592524 3.889265335699653
Rh 5.887205420382048 8.768169318571015 3.890664457601166
Rh 8.449992750572305 7.936914053219504 3.89709811258716
Rh 8.449992750572305 5.250618731965543 3.89709811258716
Rh 5.887205420382048 4.419363466614027 3.890664457601166
Rh 5.889598899264111 4.439369874167196 6.593766392592524
Rh 8.427449254692576 5.261833994349558 6.593766392592524
Rh 8.427449254692576 7.925698790835484 6.593766392592524
Rh 5.889598899264111 8.748162911017857 6.593766392592524
Rh 5.2037842141115345 2.3070555986534447 7.952338887387565
Rh 10.239765250411379 3.9379488565070653 7.944439575828521
Rh 10.239765250411379 9.249583928677986 7.944439575828521
Rh 5.2037842141115345 10.880477186531607 7.952338887387565
Rh 2.096791659895237 6.593766392592524 5.231336140762584
Rh 5.2037842141115345 10.880477186531607 5.235193897797482
Rh 10.239765250411379 9.249583928677986 5.243093209356525
Rh 10.239765250411379 3.9379488565070653 5.243093209356525
Rh 5.2037842141115345 2.3070555986534447 5.235193897797482
Rh 7.720939996913223 10.070660439084659 7.969054272521664
Rh 3.635513266946538 8.74676623866405 7.974301863657222
Rh 3.635513266946538 4.440766546520993 7.974301863657222
Rh 7.720939996913223 3.116872346100385 7.969054272521664
Rh 10.257630574272834 6.593766392592524 5.219095979557321
Rh 7.720939996913223 3.116872346100385 5.218478512663382
Rh 3.635513266946538 4.440766546520993 5.213230921527832
Rh 3.635513266946538 8.74676623866405 5.213230921527832
Rh 7.720939996913223 10.070660439084659 5.218478512663382
Rh 4.518424827388658 0.26325065518504975 6.593766392592524
Rh 11.968254156315394 2.6591037967754274 6.593766392592524
Rh 11.968254156315394 10.52842898840962 6.593766392592524
Rh 4.518424827388658 12.924282130000007 6.593766392592524
Rh 1.4724784968343745 4.494567633193097 6.593766392592524
Rh 7.003165641879498 1.0626128570608373 6.593766392592524
Rh 11.98298642471402 5.276494375172834 6.593766392592524
Rh 9.494402257256281 11.323078562960353 6.593766392592524
Rh 3.0108375228636315 2.3688270156515983 6.593766392592524
Rh 1.4724784968343745 8.69296515199195 6.593766392592524
Rh 7.003165641879498 12.124919928124216 6.593766392592524
Rh 11.98298642471402 7.911038410012216 6.593766392592524
Rh 9.494402257256281 1.8644542222246892 6.593766392592524
