53
Energy = -317.28491276 eV
Rh 5.1537491292500714 4.694913965171822 1.1292599344017884
Rh 7.445005477484184 3.5799328376660293 1.758844876260977
Rh 5.176431806994317 2.515939513977956 2.5156575520557065
Rh 4.208170485789919 6.6124428089241825 2.6905816176700283
Rh 3.1561814430747086 4.199058636853921 2.6891716778431762
Rh 7.273960434152654 1.0467222158938259 2.6866924507320866
Rh 6.71562172109366 5.9210914554963185 2.6294924763088834
Rh 9.480059882749481 2.4077102136524426 2.962506539735574
Rh 6.049559376920917 8.219504594084283 3.646040924837465
Rh 9.018055177944857 4.884979582882292 3.4138885489740316
Rh 3.455595761623536 8.64086845322005 4.095728797685853
Rh 5.234535614903018 10.646802641324983 3.935541501004581
Rh 8.454980339138423 7.397412465270566 3.930230285211191
Rh 5.1717096036710855 4.4588935506411245 4.168236032486302
Rh 2.3087234258201645 6.262899560405666 4.480164789028064
Rh 5.80648460875718 1.1202786042501462 4.871624697484443
Rh 7.271583656016241 3.0709888833369137 4.338956681548557
Rh 3.629853330628452 2.43116146206584 4.578753077604074
Rh 7.635087362743803 9.91906794595913 4.70099807276351
Rh 1.4312017619028794 3.897223385899861 4.5317796168776034
Rh 4.8351728171281545 6.697730149509097 5.322638980301756
Rh 8.461349144491276 0.9568940543773636 5.004225383046533
Rh 7.258502914052775 5.564015564257891 5.2511751274272545
Rh 9.685005681001822 3.357350443414988 5.37737369515347
Rh 9.762607118072255 5.906900651105949 5.711316314656619
Rh 4.121207797954517 12.423411140325824 5.2128275342870305
Rh 2.7442924950255385 10.441824424172678 6.018264961804178
Rh 3.3291241670959826 4.501154186580417 6.050646867409233
Rh 7.251937780536675 7.957012181151902 6.284874662367994
Rh 4.992932430288616 9.310864836846005 6.0719034777596885
Rh 6.23292926075544 11.463925413603524 6.3464009851957135
Rh 2.6924231199188573 7.843563895929832 6.472031283254815
Rh 7.519973382350502 3.4493485969629765 6.9235540548921755
Rh 4.991947999206403 2.6320176313553962 6.794906900534712
Rh 4.088357140666771 11.810196079626657 7.702287216671913
Rh 8.095136350066038 10.044461942752818 7.320816095033308
Rh 5.576586532702565 5.107345857235052 7.214880949501543
Rh 1.539309083853913 5.728505001934945 7.110354721446226
Rh 8.128421092991696 5.932579781079886 7.683281959186293
Rh 4.984272884754403 7.470965467136159 7.782158987379323
Rh 9.507613131502609 1.6307217848476614 7.277472708569347
Rh 9.927000436099377 4.144030615641374 7.77447356539829
Rh 7.030752883487306 1.0009665841659 7.183842464754993
Rh 3.312674658431619 9.45437065611322 8.392008035627912
Rh 5.8426805856015935 10.002922632124648 8.442232830915689
Rh 3.459754939494144 4.413293662778375 8.53855867978457
Rh 7.150731698932944 7.7918217481093075 9.019981723549906
Rh 7.64241990172513 5.096565118187281 9.911651044457301
Rh 2.856108686894044 6.920875550454315 9.013155443594083
Rh 5.869990829086381 3.416723870718344 9.111844589661164
Rh 8.347900747319168 2.7066800414609538 9.279619341289635
Rh 5.211856770215909 5.858313983399116 9.791071349180294
Rh 4.818024278284169 8.38030281630953 10.19956705604121
