52
Energy = -312.69431818 eV
Rh 4.836971969841628 9.582425481058063 3.469369006751634
Rh 6.663247390790501 8.285515173305688 2.285434637498354
Rh 8.518522461231324 7.150492976193024 1.0508762666415064
Rh 4.390510536550927 7.03132765023992 2.5411186472905856
Rh 2.9019886155246293 6.413708411040491 4.584110941098311
Rh 6.5230396895560165 5.666786345351862 1.925604183300963
Rh 9.148076354350488 8.80601352328207 3.036884752489291
Rh 1.4999439270083446 7.9299127704840515 6.247099458132382
Rh 3.6801032311877204 8.652688179498705 5.407309817175911
Rh 10.617689430122176 6.611575707999008 2.4653809060426575
Rh 5.097133936319895 5.015320593093264 3.995456784988667
Rh 5.908560685985623 7.390062107447241 4.615306147958968
Rh 7.1691458554189875 9.660836913107179 4.466537833164454
Rh 8.183432899576887 6.538767681499488 3.6718448764860696
Rh 8.944424471489503 4.709806710848973 1.7584424581251672
Rh 4.575330708593937 6.171165336102935 6.552544826497377
Rh 3.3895054724784472 9.336523249203177 7.786121835687519
Rh 3.52826611609092 3.952416186558039 5.622748130611422
Rh 1.4680692681662912 5.303231562732784 6.433129797721335
Rh 10.39740830582961 7.369551233122804 4.832715020140789
Rh 7.489095590253855 3.942445830018149 3.6841594445447625
Rh 5.121007939676831 10.741074806728314 5.897138931269539
Rh 9.566982508249346 9.75144734759516 5.454738877207291
Rh 1.6708815534685022 2.7915726668910033 6.802254437737719
Rh 5.92710108725294 2.957102112278933 5.468429469851331
Rh 8.077867394836073 7.684291855453558 6.07215977329786
Rh 2.9665902676566818 4.335150653643442 8.236349335990454
Rh 9.94024847034752 4.75381240328727 4.180349215404967
Rh 6.995783111928878 5.302831334826963 5.848976791777761
Rh 5.753253864631411 8.5150163178103 6.9315129473732915
Rh 4.231225852037381 2.139343416486486 7.421401821380819
Rh 2.7823087793037877 6.909509582530298 8.083410645075361
Rh 9.730714971317456 10.425738027104071 7.938816054873484
Rh 8.559037031508899 3.226618405951566 5.925098473848572
Rh 5.621531063470957 4.188182729713872 7.922058664470454
Rh 5.62763015215553 10.308012993439004 8.678261868485583
Rh 10.315170288876422 8.032404533148584 7.313627351103622
Rh 3.413271539122977 5.775685445804817 10.230874305550904
Rh 6.908330635973006 1.9655400390770734 7.6222815435990485
Rh 9.535491681087395 5.5828848216259175 6.551378994724644
Rh 7.4871737006196035 10.588736446301393 6.841550245315699
Rh 6.8005868617819205 6.4640870020972 8.150293500856515
Rh 4.2903258667949835 3.2167365563815093 9.993235620592081
Rh 8.253213986198144 4.254977193755066 8.286095630324699
Rh 5.392410762055531 0.9922018346427204 9.435990860212522
Rh 4.933136592734372 7.831094630283919 9.373455451889043
Rh 5.824854508119599 5.380366755084771 10.29772432777075
Rh 7.900459352173252 8.815555552965364 8.578417200893405
Rh 6.825929542832708 2.9588271225859883 10.027959348048862
Rh 9.230671064229318 6.5512619125730485 9.030256673734314
Rh 7.320140583183792 7.399224478305741 10.576500132762837
Rh 8.283699274467313 4.928324220108109 10.749400991067947
