54
Energy = -319.55042325 eV
Rh 8.259394490538666 3.888087310577805 10.476738560046764
Rh 5.932892904667059 7.499008196718299 2.9582029841399993
Rh 3.1407541138463824 10.496438617561735 8.497683189295262
Rh 9.92103007339845 8.825443371544822 6.095021774354892
Rh 7.527926201309071 10.170674121024172 6.37310422903261
Rh 3.9017930155750475 6.1163626953573145 2.2729328872005663
Rh 10.232877217546859 7.23105680414642 4.063911438263902
Rh 6.215608534921247 2.24524326389004 9.271905504721333
Rh 7.863890252753485 3.854043011799127 5.621198532026552
Rh 8.618239317849115 6.378577392940826 6.120530757567539
Rh 6.356636025735607 5.6163188790168554 1.3146355204497602
Rh 10.646165096891345 2.3902321623483234 7.757305810852546
Rh 8.98110772872673 1.6286404504165328 6.161843708771416
Rh 1.923662506618115 7.7081203396878655 6.388220581536399
Rh 6.502682472941774 7.1116727264104735 9.259517801480637
Rh 6.363071742969875 9.57779482371617 8.587948696465435
Rh 8.465330773084817 8.23135601351274 8.08703776875782
Rh 6.431629969892791 12.062250206214365 8.105941904428022
Rh 8.647771818199109 5.765483451565573 8.847411090559609
Rh 2.3991493564197373 4.195936966395654 2.472234864554076
Rh 5.730951250894208 2.7284244034133067 4.520654823748187
Rh 4.048780312296839 8.493218035526965 7.444419343615884
Rh 4.418306610009111 8.538579613586462 9.893781738687215
Rh 5.587246691077706 9.344484528461262 4.738287020459943
Rh 4.970324537881102 11.22587658406727 9.917785022455394
Rh 4.605806416340876 3.6374005645127356 6.625031624804472
Rh 7.945715372420805 8.364315935936428 4.370862149239198
Rh 8.255180165908339 6.261451182533175 2.916539125337464
Rh 7.201784027764455 0.746613710262045 4.627799320609241
Rh 1.7187508690359388 3.733879608679844 8.416560468750642
Rh 4.79415381552499 3.6860415226433876 2.0467040453725622
Rh 6.004667598469692 4.693178404590679 9.84740133636948
Rh 4.033424020786217 4.547312151387476 4.299968589856371
Rh 6.474158917110731 5.207962605193195 7.34929679262812
Rh 4.036299633980638 3.5103985518165763 8.948829096137908
Rh 8.900584396509611 2.4615641688863397 3.715920965899917
Rh 3.054820317856057 9.762723049925558 5.311981101576963
Rh 4.885650385093867 10.856468406215235 6.678640833472353
Rh 8.306899353626065 3.24223629034823 8.147449951107998
Rh 10.622591370488369 6.936533141662926 7.640723739681786
Rh 6.410950246493636 5.8327357798872725 4.741775284827873
Rh 2.287511631621183 4.751865932279505 6.239293046137609
Rh 9.857415048084064 4.748441543930057 4.38091409673081
Rh 11.184898499523245 9.461582113946251 4.04188768612412
Rh 3.6319365625775353 7.686831147665753 4.129041006871969
Rh 7.162870939243903 3.9458887171110026 2.898206134336289
Rh 4.203565877408109 6.130442996922862 8.680141945863454
Rh 6.349565210873285 7.802246148721105 6.542084291307554
Rh 6.465136487194479 1.9058300477861532 6.824596785929734
Rh 1.8387730238091595 6.169615662838098 8.27214013968037
Rh 10.324777207838475 4.594790906877568 6.9120768167617905
Rh 1.2869964283921362 10.027404962602041 7.037616880845847
Rh 4.2876208456684575 6.3500287971023 6.090207166485205
Rh 9.027368960596663 10.554799364911787 4.409491163916709
