54
Energy = -318.17895982 eV
Rh 11.82850897555096 5.755016110587713 6.504528364087104
Rh 9.257883279518536 7.204397551482155 2.2982609134711103
Rh 7.582837527957151 3.497169721188053 4.815543801840827
Rh 2.3774207297782293 11.441760388877674 8.85943444096171
Rh 7.506193228441728 8.442147179188895 6.942228205123482
Rh 8.1338216673724 10.136516354558879 8.731524143193099
Rh 4.657566493067903 9.851417906197835 5.890481918651619
Rh 6.766434263656519 12.042137250952637 7.7974576831677975
Rh 7.045390461898638 4.72292437547974 2.6250191719395377
Rh 7.156109109766457 8.578768035806526 10.518358158837296
Rh 5.092619016728304 6.399256892490387 3.3472861526167117
Rh 6.384611265364693 4.515005682075692 9.741930730436165
Rh 10.508402082453545 10.282571550066905 5.0047288814011095
Rh 1.7063844752084996 6.880899661603345 3.4756822870564923
Rh 10.594473175204628 6.0944280936140505 10.468836259872706
Rh 4.9721648676409105 8.874217030015785 8.110073588429945
Rh 4.668122898506775 5.235876473683978 7.972030515989967
Rh 9.947164401064942 5.332035345383415 8.18753748945366
Rh 3.5647373879306707 8.01817162064178 4.52395588982129
Rh 7.525969285168092 6.606552108026684 4.266652689172875
Rh 9.435142330014443 5.112470173990805 3.7996791419530327
Rh 5.909237457558482 6.746139863053365 11.942971403291414
Rh 3.1344853860180595 5.334753343523112 2.323418752311913
Rh 8.693238740222174 8.855609869227361 4.36073860882859
Rh 9.379444843737422 3.9700577940877166 11.214533348100968
Rh 5.708248280314473 10.607003739387412 9.625991649930937
Rh 12.027431134985536 8.298992938156124 5.968039868521468
Rh 9.66807270173656 7.020211783071547 6.022308872081782
Rh 7.0717216270047105 10.533874686800486 5.730836105272961
Rh 10.920458467259781 7.470409049887462 3.9683711268145387
Rh 9.098720392671597 11.51577187739206 6.757928517743307
Rh 4.3535168414283225 11.548695753104779 7.590142527400973
Rh 6.631774217294382 3.444953741508264 7.4028242601531336
Rh 3.228930714120757 5.510646718281301 4.956201833588662
Rh 9.050087008066855 4.967150255801863 1.329362262567637
Rh 4.944509632033559 3.7999890304019583 3.3735419531053656
Rh 8.094043435631558 6.19518785489828 10.809046208067018
Rh 7.661745495659604 5.684492506838935 6.826295292739047
Rh 4.3327856305301635 4.947529051566863 11.09596217501935
Rh 7.015092097968509 4.385211829594209 12.124525361948645
Rh 10.125810326365931 9.3139482609641 7.286950119846161
Rh 9.824224772582689 4.230186682083045 5.986568975676259
Rh 8.797462291552147 2.241603880959511 6.885770508841183
Rh 6.486690673152344 6.896872944112858 8.753112265030003
Rh 3.301705286496064 9.56292242583089 9.94025534611489
Rh 6.117893889884547 8.692487347013763 4.157231823626085
Rh 5.355317109654763 7.169581153731197 6.1900500892399455
Rh 4.9983091299611795 9.145675586793569 11.669312804764047
Rh 8.588956533179761 3.5446449176460475 9.019319563487436
Rh 3.3789585918952776 7.250514761628356 11.98683602263111
Rh 4.156579995951563 7.075395896505425 9.700760418616222
Rh 5.526723104108017 4.736729377139334 5.595380213898305
Rh 11.47881666064169 7.38538014278817 8.423398651589315
Rh 8.993950267532483 7.667165586211562 8.942985121807082
