53
Energy = -318.67715486 eV
Rh 2.419194104624952 6.2377916360446255 1.790525215899519
Rh 4.65585959375995 6.606453334934402 2.746127074997217
Rh 5.290904845500454 1.0340192628712124 6.907414681930835
Rh 4.857134837004192 7.780783153201706 5.271658994087418
Rh 4.127357704173501 2.331139923524986 4.957366597809279
Rh 6.825399677852292 10.816338735872728 4.851038472006843
Rh 5.438238837460265 9.384726772489433 3.331985067450565
Rh 3.145129342892041 2.449029984355072 8.13735123516545
Rh 5.954100696018574 6.217889805859381 10.290259729762347
Rh 6.941105368655949 4.373621656667948 8.648268969088187
Rh 4.382873280236257 8.725326901329963 1.1516261308049096
Rh 2.548991946620947 4.037157195829399 6.02827546876249
Rh 6.813950652079854 6.385878212212497 4.0304848634122346
Rh 8.256067737704184 9.420206993437299 8.622563214966128
Rh 5.514521838514567 2.156392146514187 9.22557799510975
Rh 5.781424363408747 8.557702995054413 9.295814042723572
Rh 6.8480888962188216 5.247611017975774 1.6705349154906932
Rh 6.726010002032525 2.4810238792577812 5.180339507166628
Rh 9.170013457585691 3.283648611803208 5.895569089599403
Rh 5.416727750249455 6.360195548535817 7.566318875949159
Rh 5.06073442700854 3.5809904621676916 7.026751750509918
Rh 4.3080822507875585 10.24610361776431 5.459098544675199
Rh 7.8312201927091625 6.9750542403328035 8.734885985641833
Rh 7.4566117762554835 7.52847786907272 6.202722504970819
Rh 2.9160182373005443 6.458096734835832 6.919845047537079
Rh 2.9864849437805647 8.541353171907952 3.2513202640496273
Rh 7.597346924958771 2.1044301730574553 7.582659930722643
Rh 9.38471812005107 5.895067431741335 5.323056301203562
Rh 2.416736419590321 6.331338227989973 4.419658543764284
Rh 7.126761064911117 4.887019148626221 6.136498249062296
Rh 4.70981084752696 5.26223945674018 5.136182905683113
Rh 8.3599554154834 5.183510199062925 10.558711044211925
Rh 8.023168716822132 2.496604546457944 10.082689536250752
Rh 9.865930849801732 7.5507904915221875 7.278764892091726
Rh 9.319608773520441 5.044217863211392 7.843233943991054
Rh 6.791246401644021 7.844858387122192 1.7454113425936102
Rh 4.279801475107524 4.450201890212285 9.406900982912255
Rh 9.86983204131609 2.7492801664662916 8.4373427023444
Rh 6.145863342259929 3.8250464987528305 11.138114281810767
Rh 5.529024273099658 3.7032617325616 3.3019790913777523
Rh 3.633757869209771 6.9684953670597425 9.43484527842028
Rh 2.2295872281010194 8.592044136932534 5.679282700597438
Rh 8.829751347307798 9.723248165371594 6.165452147151042
Rh 6.311904349947499 9.589181472322641 7.007736928019175
Rh 2.0235105550147447 4.772958185819868 8.43312146095801
Rh 3.9637294780744083 8.730970473756917 7.544520853195662
Rh 8.953983957705782 6.60337842019185 2.774725724116116
Rh 8.084412490870877 4.178868168547383 3.7196312100580498
Rh 10.254963946822784 8.128799804628226 4.686083941335989
Rh 7.914874435938437 8.742359042444466 3.9187520336646133
Rh 5.148321996055962 6.534658630037176 0.13329759328246818
Rh 4.300145767110117 4.467442169491693 1.215583526277968
Rh 2.956769693216003 4.120480427921929 3.39980315724046
