50
Energy = -298.67923086 eV
Rh 2.137141422398364 6.807442110059164 3.0261012776282716
Rh 4.180780250884607 4.119985039124397 7.30142760470436
Rh 9.41730639625137 2.7450294613241324 6.037061995550131
Rh 9.919692311031822 2.84502331337423 3.4369267541934496
Rh 5.016746370911192 5.816032893635592 9.425906503495112
Rh 2.814603933151752 6.11590157604761 6.3455555494481155
Rh 7.071068685464461 1.6979306911539154 6.799136436544331
Rh 8.345415853989527 8.747713738756412 4.5739594154494965
Rh 7.533098361723277 2.393987186825526 4.3336813132316765
Rh 6.119018807288568 3.5599826596527944 8.96254175887251
Rh 3.25867152035977 2.5553393065482872 3.6073288058404716
Rh 9.498148281037322 5.176033966432072 6.935458023423891
Rh 2.631366187389723 8.629271572831685 6.13996703347356
Rh 8.323502306282068 6.892948418793354 2.779139276320196
Rh 5.628235942358069 3.3151940693225885 2.990718068384725
Rh 5.102310498737041 2.36361763703162 5.36702984711601
Rh 4.154071337997101 7.450420979371666 4.440331668181266
Rh 2.487634854047131 5.352536901724212 8.772292953646794
Rh 11.210195634957689 4.472804041739323 5.1077929016563814
Rh 2.107541049996087 8.63503030536511 1.2697189983648618
Rh 3.6515779268357997 7.682636419418597 8.345350422178576
Rh 2.1611035463690174 9.248669946023188 3.730483445908576
Rh 0.9558892557673511 4.5236981773343485 6.761315178126289
Rh 7.488648734690205 5.700769960295778 8.500095448503222
Rh 8.317400642378585 7.4265407470042355 6.782155302345093
Rh 4.471817621061596 9.860560483811488 7.3642765493304045
Rh 8.507177516624628 3.2520458853192555 8.362504178577405
Rh 2.030652260759524 4.6487062917005435 4.401492218096039
Rh 3.625878489188868 4.864413265937191 2.339635065995658
Rh 3.8504560710557403 3.528083404863918 9.95525221815723
Rh 4.276997742121341 7.374689238572699 1.744310462972296
Rh 4.661285288787917 1.6984981875310523 7.9178367395928255
Rh 6.224948396886061 8.80327767918969 6.000553102344554
Rh 6.199877204695855 8.486591246303911 3.1737543207303536
Rh 10.014413239750244 6.799457181556622 4.835720503230945
Rh 6.917545098453118 1.2464591008885888 9.244342711067057
Rh 8.580612343989863 4.7404330911357855 4.580454310136005
Rh 4.6981909144452665 4.936197431949721 4.770366016382378
Rh 5.307087955545711 6.430368315556449 6.879015517575396
Rh 4.401601732656016 10.010707200216757 4.720264401958368
Rh 10.399356273615423 5.283942970796819 2.7258938785969575
Rh 0.841958437976514 6.933813248174422 5.133740488641807
Rh 2.0052208683047903 2.736729270011754 8.436664016688137
Rh 6.304243321444072 8.0249713731956 8.512076961908035
Rh 4.166806023508047 9.855131988887713 2.221839096659647
Rh 6.784281977477982 4.250026223282358 6.37565847486753
Rh 6.028608882102987 5.811673986399908 2.5678568436762728
Rh 2.5885432580395387 2.6528129672086105 6.0458129686068425
Rh 6.8522051220947695 6.505052461105215 4.903499401832599
Rh 7.964745633684412 4.226498173782612 2.25138535635626
