5
Energy = -22.58258229 eV
Rh 8.575601164700073 7.624747212965251 7.980426366554026
Rh 9.136404161303801 10.721605462640234 9.342141345137426
Rh 7.235519671796345 9.265150361109441 9.119235960325382
Rh 10.486121131159477 9.05904396349636 8.252694246889849
Rh 9.261348169580323 8.33923823847167 10.383268170053002
