55
Energy = -331.82999598 eV
Rh 10.940317045031131 5.054821019195151 8.128128524203442
Rh 10.35128590933853 5.763314981438431 5.411161967388239
Rh 10.119845670858831 7.321871645152609 7.538195624084003
Rh 9.935473587313219 9.48949344311751 6.321076936715491
Rh 9.720235896640805 6.634287482224731 9.916001745093332
Rh 10.096613925627828 8.057034310036045 4.0990511765873405
Rh 9.401769946935328 3.248953246680657 5.550678989129977
Rh 9.546167035837254 5.837455247901111 2.9256006833242223
Rh 8.976833805682746 4.117285686605773 9.55905403077929
Rh 9.109794338308312 9.294938456825749 8.820066125091243
Rh 8.395886459260023 3.3560510404315185 2.979719140805943
Rh 8.57222777667699 5.170699328882317 7.1923798521530955
Rh 7.998716074643892 8.328352894303855 10.972024103510515
Rh 8.273628763375601 7.44803868755883 5.740335826369067
Rh 7.834398967412941 5.147101527498441 4.65278182785407
Rh 8.115891602152455 9.768497342701915 4.484096172139927
Rh 6.94875469214722 2.7930662690432664 5.0881999379851806
Rh 7.956598878193669 7.874023350190068 2.7454657940775493
Rh 7.465411192054279 5.862919290655912 10.925396779723807
Rh 7.754448601253703 2.7655738141696258 7.5777855935255
Rh 7.660122125330722 10.422515746595764 7.008435125019974
Rh 7.571364821840028 7.231110905385236 8.554512463453527
Rh 10.335927817780385 2.6630850186775756 7.79176342511356
Rh 7.066506623382173 5.388911251966231 2.174214474996366
Rh 6.784888761391633 3.426521489823629 10.917414261715884
Rh 6.552192849883135 4.726138489488122 8.790087475046517
Rh 6.592188832949461 9.641210771585495 9.194773196563348
Rh 6.203295166215218 5.977303249164771 6.577211316490783
Rh 5.729932266180778 3.2632043083888678 2.8278565810529708
Rh 5.538191572962896 7.642204685115271 10.54580546151731
Rh 6.1021474844007235 8.755662933719845 5.9023916653722965
Rh 6.01448406498736 6.936467762916676 4.047920605721975
Rh 5.339199478906253 3.3549386719949723 6.965936378144038
Rh 4.833439023397856 5.240761176965319 10.611234237384103
Rh 4.700761531112475 2.9976070651097086 9.392649105559247
Rh 6.031885054573686 11.250671516291714 5.123004182374004
Rh 5.036980448075252 7.793665393423791 8.057293618056182
Rh 5.79473263770265 9.485743449397942 3.249197595390381
Rh 4.907687504808207 4.684006911526977 4.776861265410198
Rh 5.689593314012143 7.566773627681484 1.5141593410676875
Rh 3.980985553816062 5.277491773859426 8.13214850869492
Rh 4.9531584812381935 10.534431298934015 7.372263592598939
Rh 4.38413142019463 5.556245790960071 2.382214096390018
Rh 3.9963310258015277 9.598716637089547 9.578513477685458
Rh 4.033550742937761 7.149663602016054 5.7424118783440266
Rh 4.489505832269356 2.098117806605398 4.909962918885943
Rh 3.095942138317438 7.158385918058789 9.561600289441486
Rh 2.933630367144155 3.9777289826521467 6.159443068235852
Rh 3.8462702810430804 9.801421912480546 5.047196079279863
Rh 3.690292924903752 7.942043648217227 3.200682337029998
Rh 2.444401093444725 5.789880049362604 4.2594740620000175
Rh 2.819453993479896 8.888423259131958 7.348148215831028
Rh 1.978200553501452 6.289636680395539 6.904926396662201
Rh 1.7991070891493919 8.171423921391249 5.029612951045191
Rh 3.114433462891631 3.543321737783538 3.280696030653812
