50
Energy = -299.36441457 eV
Rh 9.059054636826335 3.244344726482013 3.542962771579008
Rh 4.801904732536112 2.7096669161285316 3.3615398797402225
Rh 6.877382691680218 2.9242758473469697 4.805463354691688
Rh 2.652028728955173 2.50412934741414 2.029391453384323
Rh 8.997689584978467 3.0096550161862257 6.279972646690551
Rh 6.8513710714244125 4.2673673851077885 2.4318681622298257
Rh 4.522306382955804 3.1098712827021044 5.9142308476847205
Rh 4.679190821494357 3.8897291376479983 1.138696368539486
Rh 10.420964936456285 4.806756292236928 5.055631813706522
Rh 6.634907473369643 3.165576991150772 7.394863743101484
Rh 8.771245778749849 5.70628561117551 3.3741228446285745
Rh 2.4005615860433704 3.0067869984612776 4.513711810671414
Rh 7.342591447138761 7.41139973132925 1.8714478172976028
Rh 8.79677961574816 3.3229489640423022 8.873372628828893
Rh 7.651339594172772 5.175074895031003 5.785221535254144
Rh 5.3977844292460535 5.105083565188013 4.31795518245143
Rh 2.1705637402864513 3.5462961332268246 6.992862271172215
Rh 3.0510316749329736 4.830756092204143 2.8635286533323874
Rh 2.9972514002057653 5.358272028060576 5.4311956107548145
Rh 9.891362547011411 5.247203337289369 7.473842311784492
Rh 4.287042987258267 3.6153582807681044 8.49434128865681
Rh 5.269432567861016 5.411037279423764 6.941283048077695
Rh 7.056114683626635 7.311638472805157 4.326452144897786
Rh 8.488745076761491 3.7542756953302656 11.409813582222418
Rh 5.100200381971064 6.167702417453129 2.086317353689914
Rh 2.798603362657936 7.204094103842236 3.641473697127333
Rh 9.56698424350711 5.5365345195928475 9.993551645321032
Rh 7.417815652944789 5.5060797108118615 8.47427913024593
Rh 9.344172812967441 8.227153875983655 3.5522879448914413
Rh 6.393712682930384 3.639628737046608 9.940564957892486
Rh 9.386572040054613 7.137023775283691 5.817550943257516
Rh 2.827359277170757 5.828391347054761 8.018292685773556
Rh 6.911053909983226 7.527819067809171 6.867770585298281
Rh 2.357316977618113 7.800575248763307 6.231967702526653
Rh 5.0998242252802735 8.494978960355217 2.974317519722404
Rh 4.694238710077206 7.40939136269523 5.355040207097361
Rh 5.034570376526695 5.874759101378948 9.620268220136191
Rh 7.314477354793563 9.728824235686792 3.2680500195269815
Rh 4.587427264395883 7.705155412657856 7.957440149711763
Rh 9.070211063938203 7.503965846370768 8.416290451331363
Rh 7.180893449195635 5.896497741082744 11.033395089161434
Rh 8.250595821875022 9.463996424706481 5.753055699066928
Rh 3.2736245456361983 9.569448013326914 4.531527380243123
Rh 8.825305613806174 9.862385772014418 8.165431791393504
Rh 2.3254961399272034 8.378626446289593 8.696898424971904
Rh 5.699057252576571 9.775548110632473 5.229000768019604
Rh 6.700222088570256 7.944873473432424 9.542848258012297
Rh 3.8652268964500585 9.93819015871595 7.041584194823378
Rh 6.391770563610993 9.883927528790082 7.713024817406543
Rh 4.586849859155581 9.632869338824364 9.526229349312628
