50
Energy = -300.7835059 eV
Rh 4.095464528146364 4.580097758510114 0.08139552471353641
Rh 6.722325570696358 3.7685761619785034 9.694087552789904
Rh 8.407862354626781 4.982529038713773 1.7645509733560893
Rh 4.983638669226126 2.3823825746987968 1.1262332084445874
Rh 7.431519713119331 2.602043374458891 2.0757819915124323
Rh 1.5169143782348222 5.449503160715724 0.537924093312093
Rh 2.3264524645359734 3.216574295708387 1.4311617989478491
Rh 3.2674639059301267 5.643644186031152 2.2865292851602845
Rh 5.651540030462374 1.0857408859789222 3.3746773435517565
Rh 1.3347147548708147 7.31481504338786 2.610869297088903
Rh 5.830091263533118 4.815604314443803 1.9849761897729665
Rh 9.839325160238852 6.237673666818135 3.750378644199202
Rh 5.269064422268593 7.3096671056607345 2.7111924140886554
Rh 8.992960611062347 3.846830773498383 4.01125090037257
Rh 3.202070598479968 0.9767259154184242 2.436606473514234
Rh 4.024150368815681 3.2050102260757583 3.342001267933829
Rh 0.6932528894374436 6.607305400005702 5.03104598078202
Rh 1.3847074066751812 9.027122945804859 4.799018409633973
Rh 0.7577907455145042 4.791915766265845 2.8644856374840626
Rh 6.475151134110213 3.425887959569808 4.302487218438387
Rh 3.2121818800009234 7.397595387944327 4.3754143784816275
Rh 1.5809044289021348 2.4442605465674268 3.8889524673613676
Rh 2.4385892757022054 4.750077688988597 4.79317972170618
Rh 4.856962498440977 5.4203334831932475 4.303718793218636
Rh 7.340626770052862 6.058683630160616 3.8318652274478793
Rh 8.082680618813225 1.4121638456172276 4.314182037293488
Rh 0.05887646462379593 4.077370289212577 5.287410921244535
Rh 3.588594577505715 1.1332378896997741 5.041044436733409
Rh 3.9357307237037715 9.409885179525437 5.8360139740645955
Rh 5.740705997063793 7.643843561128126 5.307241859291618
Rh 8.304392713473739 7.95011383818283 5.276951934009823
Rh 4.4105082226013765 3.478328094463823 5.9236778528058105
Rh 1.9659287013448676 2.7204565081919427 6.491901085744123
Rh 6.03084247355252 1.3668458208614758 5.9522277390547815
Rh 8.928790541231692 5.557569253062528 6.029893528441407
Rh 2.1659292598498556 7.792410959864292 6.871417315290147
Rh 6.410717727545878 5.1340638401594605 6.324939493718531
Rh 3.9300243794935477 5.95523417728187 6.631594691994176
Rh 8.106746210335615 3.0570465831048126 6.380652892541838
Rh 1.471520172031479 5.219622556863161 7.188254342183721
Rh 6.511702717027697 9.524816132352962 6.7476822449081695
Rh 3.9928797508009164 1.4739888077550967 7.605139032543935
Rh 7.2729971558290245 7.214077386118317 7.552651533702257
Rh 4.791703144400451 8.03257099405986 7.843147461552166
Rh 3.481951562174465 3.9338835824177285 8.357525526464837
Rh 5.96739628651375 3.1623338310363045 8.058578068040005
Rh 7.451780326567246 1.1854225232683235 7.967212332372731
Rh 7.964143490394587 4.817358352695818 8.353873077519868
Rh 5.4853895124398795 5.625770661865038 8.770349120404326
Rh 2.992191587593477 6.460834180608697 8.936951540377773
