50
Energy = -299.33142832 eV
Rh 5.726418327889604 1.2369583484321418 4.942224006014442
Rh 3.145476290216165 2.118393638150194 4.330837877440028
Rh 7.794294966011703 2.5168385817775647 4.054085934814665
Rh 7.416074650271555 4.833867625967893 3.069411164519414
Rh 3.1288134675574817 3.988070952390271 2.5713868506542212
Rh 5.328252008973848 1.9544540884531811 7.4397617467628985
Rh 2.8598417209551807 2.882371460550428 6.95582904857709
Rh 4.615625920911483 7.949931176315304 1.5324238510359585
Rh 5.4578065530720234 5.958497980574794 4.437138094912021
Rh 6.897435192797994 7.329462972683071 2.4712859791891715
Rh 4.848126293113027 8.582918201510179 4.001874198977906
Rh 11.020245035610687 8.484888727660032 6.949097690523024
Rh 7.719274662524792 2.009363849202721 6.523524304142704
Rh 2.7287790972800634 4.697759161064005 4.977199994450619
Rh 9.286248597542585 4.054541849410213 7.2598732087047075
Rh 9.53470589683064 4.557948033871118 4.510853470756143
Rh 6.895905750968723 3.756270655161574 8.289315975938832
Rh 4.816851983841979 3.5061048300827 5.52850671477765
Rh 2.7157842593538435 5.393620332377369 7.556884663421349
Rh 7.197728749165163 4.377021873984944 5.724803424276075
Rh 5.45110948872822 3.1780352714649247 3.1566330732263634
Rh 8.643704205379308 5.141418202409923 9.630348141065598
Rh 6.125490072096406 5.211808307458266 10.256226940131858
Rh 9.35329543046769 6.532699655848808 2.771172475528066
Rh 3.6527646882438107 6.1193395876565315 9.942551101135004
Rh 4.3444542379090505 3.8887067876360977 8.834130059845167
Rh 5.238972676669657 7.121480764069588 11.76458618305211
Rh 7.94334228895011 6.7195190202197725 4.918186079187918
Rh 7.646253780612922 6.212731199033169 7.585415363155704
Rh 7.63482417085223 7.304779836975003 10.625503241128827
Rh 3.3006986173395902 6.518175989712644 3.168205903378288
Rh 5.19138057699267 5.478142575886784 7.094921555611595
Rh 9.55878016633477 7.462438423796266 8.807654986136594
Rh 5.662777352109552 7.342510651941796 8.955441882870549
Rh 10.06684728951049 6.28106569554283 6.413758066072814
Rh 5.204037028090736 5.398726738424366 1.8503942121961656
Rh 6.0016621792918885 7.884264192368011 6.333323222113375
Rh 3.305805945651657 7.883538691556923 8.049919350539062
Rh 3.630574158021603 8.67969529907026 10.500837357793278
Rh 10.001627648616422 8.25573859152574 4.5567725461453605
Rh 3.458490401647199 7.056820311265216 5.68271142923993
Rh 8.558955053504446 8.678898892865123 6.637768798477484
Rh 6.044346723388427 9.41457778601614 10.95627584877556
Rh 7.526278472754981 9.115591979804668 8.85750269283179
Rh 6.266415843337521 9.817788283048392 2.2353909540752754
Rh 4.080565991411063 9.604128012909221 6.223862444290565
Rh 5.016442700618672 9.788644670590989 8.604549329023348
Rh 8.794114985167912 9.036465136005162 2.380301596012443
Rh 6.6363147296712865 10.362207164776274 6.726364114196076
Rh 7.346939487583203 9.260143509939404 4.454281850663135
