50
Energy = -297.70256877 eV
Rh 7.58512636105018 3.9134610957578686 0.4230863828586329
Rh 2.677610055871044 4.0906039139461505 0.4931396410673906
Rh 5.087648368055734 3.2420787772270634 0.6078279257569312
Rh 6.962812147505506 1.562728521958369 1.1282606907784751
Rh 9.273559045063134 2.591667559451341 1.8832609264144824
Rh 5.88800363578347 5.752924798526574 0.9388514982722503
Rh 9.176002266487384 5.058636173761456 2.2303280501599865
Rh 3.012629260263056 1.8574288272903163 1.7256429244884706
Rh 3.433634019198322 6.581521346982349 1.0845635774623468
Rh 5.357120527437122 8.177742736793583 0.6935546853591992
Rh 6.832013231181737 4.2151874787010275 2.868297161444477
Rh 1.7692842228145629 3.7998459362228125 2.8875480887407936
Rh 7.926479614980398 7.082416247023728 1.52355553013351
Rh 7.594251356343929 1.7137427576944106 3.561459382399761
Rh 0.982082192340345 1.5307850345585226 3.3264596963538304
Rh 4.19926279322379 4.651412795370501 2.563438941467321
Rh 1.0779129064838342 5.790252762386201 1.4968556390010561
Rh 3.6719868904885526 8.438907513798313 2.8001847397951876
Rh 5.159936297535931 2.0935466496335056 2.9313269996702194
Rh 8.903519158517653 3.7647243544626092 4.468352220306738
Rh 5.971988389789822 7.556638695857402 2.9898283729798427
Rh 7.96639499402359 6.24532990944421 4.108050683900727
Rh 3.311246873999266 0.983779218845414 4.304573107696932
Rh 5.419349229340123 9.717233549627705 4.140435834627704
Rh 2.4660789598789026 6.311978035465843 3.5550222958900686
Rh 1.2202877174757043 7.40445306450493 5.595412708848974
Rh 2.4376896646199753 3.72573781289541 7.148471647673156
Rh 6.444826270585795 3.3678751966668585 5.287940401271544
Rh 6.5222829424881095 7.864152306919814 5.488255380580797
Rh 1.358514260901938 1.9815644575007372 5.690250013644091
Rh 3.731654611390006 3.4591411396345695 4.817450167780292
Rh 5.343074443283766 5.679389007881507 4.660201621856546
Rh 3.839019834787184 8.221449175164256 5.405798382813997
Rh 1.0274495535390795 4.673483440524646 5.173946184820989
Rh 5.755769163044362 0.9360559002798339 5.309320507586573
Rh 3.169772639784539 5.843669161570632 5.975322369548447
Rh 3.79017748455677 1.5550975117945944 6.78378486715375
Rh 9.273559045063134 3.412579071194955 7.355103687807428
Rh 7.259209739756597 5.527224144173171 6.511622517151534
Rh 1.7122186269949553 1.6099602067673215 8.253594177663478
Rh 4.964203076367949 4.315068171981295 7.039099467027259
Rh 2.7171770837269915 7.7964090037204254 7.668578305719278
Rh 8.225525989785917 1.736837900119992 5.999928922959955
Rh 5.160304124570588 6.872848665256799 7.394535858213721
Rh 1.0181177132743375 5.805730130994719 7.6706201609260285
Rh 6.146004701754311 2.162332542354517 7.591842917990813
Rh 1.3975063919767152 3.9656437312397146 9.479543281984325
Rh 3.975547519750607 2.9519924263637054 9.066012022664495
Rh 5.871584223051183 4.978345312426897 9.18157522750585
Rh 3.387729494458613 5.538002180885318 8.827500555383171
