51
Energy = -305.15525944 eV
Rh 4.373225592658188 4.8567213387688435 0.5965099750935096
Rh 6.986664190042028 4.0015124532817685 1.682112837193414
Rh 6.590402929539076 6.557434553953954 1.23140175808321
Rh 2.4050296385403387 3.2481817929952768 1.3585965790011718
Rh 9.062438998171915 5.648815759575381 1.8217736184859552
Rh 2.435242811368431 5.533571728378645 2.3384150417886165
Rh 1.8628904007846314 7.992398358486897 3.0038219794883942
Rh 4.7407254215055845 2.5986187010777426 2.0714495849413117
Rh 5.006096754838239 5.298045446191547 2.8895689455585023
Rh 4.092408872614663 7.469010385787596 1.6291506316882813
Rh 6.98879359649928 1.5186774454340837 2.9537911480664634
Rh 6.074988489067865 9.145342115488251 1.596012823173587
Rh 8.742890352433914 3.4082981289576644 3.588670818134639
Rh 3.4201585161093897 3.6688933814327047 4.096331675141168
Rh 3.5333779047008504 6.764940010098976 4.422751534909656
Rh 8.24433474399039 8.024751165316495 2.6665767700841783
Rh 9.799183743231755 6.550022524782606 4.21641526328107
Rh 6.112543421814551 3.4918891180736287 4.146974463552432
Rh 0.9670690373742598 3.6860394654453237 3.63665437709672
Rh 1.1103892059812022 6.10199670012981 4.581697887753771
Rh 5.833958043138343 7.562262442749904 3.5839757991812524
Rh 2.4264595664906055 1.5083780768123995 3.2629273463965425
Rh 7.517346720779141 5.645377596328956 3.7804376665897848
Rh 4.01127005997863 9.349989664078015 3.51972482988598
Rh 4.848189296404481 1.2251588810556906 4.381339921907841
Rh 6.673357763480946 9.874920829126367 3.9969336251817422
Rh 2.834568530944274 0.13416580903211975 5.408402431758796
Rh 5.188619431495564 8.61543945944563 5.816458214131656
Rh 2.449349700629673 2.438877434490553 6.310309317119149
Rh 5.629380819908599 5.737904513339154 5.652633353041482
Rh 2.909158923367325 5.01339861628377 6.2287504590783564
Rh 0.5415027189082534 1.6498484560872182 5.02686316108508
Rh 8.893308105456276 2.637130749575321 7.537581420982921
Rh 2.4148031919653348 8.51734373154312 5.67401070703517
Rh 0.49740790484624686 4.180660372841498 6.159371641883583
Rh 4.779658949639973 0.8233545089124101 6.988169961717971
Rh 7.843481900714008 4.190040229576105 5.907917725942747
Rh 9.010678166469933 6.229039881913366 6.6296743536286336
Rh 7.698872382479824 7.840236933575334 5.2877181571196585
Rh 3.940604906469874 7.043697190966183 7.342784786209057
Rh 7.085395523766484 1.6816397372529575 5.724631871889432
Rh 6.653842982483333 7.080260868455812 7.521180374021884
Rh 1.306096716549113 6.681836960607825 7.185879031870632
Rh 2.4239690717953217 0.6721894768237868 8.06639902531003
Rh 4.903094696173005 3.295869009947063 6.294544540939348
Rh 1.2805327944446458 3.1468028462058335 8.387949130381902
Rh 7.731497108238227 4.760264223040225 8.358728323171878
Rh 6.464819042495778 2.460792167558163 8.134842085417171
Rh 2.787098155814809 5.091909488281957 8.74322465553753
Rh 5.248576940731292 4.919626813473865 8.213217515622981
Rh 3.895732417269197 2.6979096115576566 8.616228008040524
