50
Energy = -299.3042728 eV
Rh 1.660988661185236 4.704841108094039 5.323464280769821
Rh 2.748285516995469 7.141883298218153 5.227794091135623
Rh 4.756242136914638 7.512659979474137 3.590735552432314
Rh 4.007617630490417 9.424755247849129 5.141255912567836
Rh 0.6655587683260574 3.86333873387602 7.4919503896671635
Rh 2.7459882506789604 2.7508982975690985 4.074685920280322
Rh 5.128527711419171 11.731580325365496 5.0611816016469815
Rh 3.7744747182143663 5.135033027451485 3.9672048104905446
Rh 3.917245407857743 4.551562754451496 6.485702858804881
Rh 4.8351918614871074 10.541369920869418 7.293896492924551
Rh 6.010074088338431 9.9097586436569 3.5230500069150996
Rh 2.6172364953047658 2.408498876089402 6.711693266685395
Rh 1.9569158637379795 6.079379277872987 7.462290608006664
Rh 5.004833521330275 3.087064001218154 2.9317810993439655
Rh 3.3520322833707894 8.343449476591243 7.399426998385758
Rh 6.818634202462403 7.991858687517475 2.0935256186050784
Rh 5.187656950712088 6.766666550141809 6.124354853696232
Rh 6.514893566368142 8.944394037983265 5.848442238120846
Rh 5.833316405683383 5.46883100788829 2.44722611485955
Rh 2.8487378728499206 4.023728085790271 8.791975684494538
Rh 6.388648364131471 12.589426455012436 7.081750379664743
Rh 8.472609826360237 9.069864560557996 3.963948783771057
Rh 4.861130734672216 2.348349076973396 5.457253436441259
Rh 7.643624323153958 11.131657463390063 5.316537691533921
Rh 6.244246916894107 4.575729188135556 5.052178601125707
Rh 9.13656707389378 6.926042907718416 2.5882074830020243
Rh 7.145354096232892 2.3736659564751625 4.040140914489203
Rh 4.229510233660135 6.305168116239598 8.654384376211967
Rh 7.149060348970697 6.8326600137767635 4.3455396788765315
Rh 7.351668413661363 10.407890049564308 7.8813467836770625
Rh 9.577694457531903 6.966301570119603 5.084765931891005
Rh 8.060134113941638 4.6825271760861655 3.0565840560489175
Rh 4.912929520965029 2.572225437302699 8.088964741122375
Rh 9.047677651236777 9.086397812931352 6.515896506286343
Rh 5.791647136178903 8.343262597807543 8.297113669645919
Rh 5.091305724212036 4.312302379836964 10.053124436520132
Rh 6.24063506566473 4.890390441262673 7.726490109483494
Rh 7.689386419868095 6.851192805799376 6.9420263857690125
Rh 7.132855347374985 2.661466912654776 6.663601507336295
Rh 10.507869301242106 5.003420312049403 3.6733448344632045
Rh 8.93152731518768 3.729605532069598 5.213902914846282
Rh 6.570579455776305 6.409462205105323 9.750232039070204
Rh 7.2308550209368185 3.0562640132556633 9.187682468177966
Rh 8.302009294989423 8.301302267702459 9.023133251705431
Rh 10.179348121525905 7.060526621985125 7.633426996549827
Rh 9.09129151648715 5.889051210808545 9.721083361402435
Rh 10.863451248394957 5.045621546866211 6.217336898157879
Rh 8.804798766132777 4.486098064376494 7.691327818924961
Rh 7.585515601208433 4.542472648589694 11.125832729303948
Rh 11.127771072227915 4.914257714019511 8.707357211109048
