6
Energy = -26.85237321 eV
Rh 6.242240323473355 9.107178134089883 6.599286923487751
Rh 7.323413500015361 4.488763147756935 7.694967939605692
Rh 8.320833775331142 6.450832223431107 8.550628423050428
Rh 5.922366669768638 6.226693157378765 6.952582127513359
Rh 7.985282137251304 7.484407727595447 6.448847760823346
Rh 5.4722914056203 7.508553421207789 5.020114636979375
