6
Energy = -26.68109878 eV
Rh 6.303438903541777 8.132850939395144 6.38788977063932
Rh 5.703776697473398 6.4601103344810396 4.9478395341693355
Rh 7.147025285569138 4.735031240117956 4.185451529548423
Rh 6.667240449811397 4.791263760488936 6.505098425175221
Rh 5.565455720362336 7.981028636898742 8.642553123913654
Rh 7.259676756083968 6.478571844523121 7.932764088138711
