6
Energy = -26.87612338 eV
Rh 7.386815994398545 4.534982750538102 3.780411887913396
Rh 7.335523181926681 6.784533596693218 7.620814102853742
Rh 6.891219209729061 5.425374254079524 5.745355480775394
Rh 5.325569058822618 8.006212665198941 7.191856010007412
Rh 4.96762840502535 6.702640736034332 5.212020528524667
Rh 5.115369186252615 5.568711589326011 7.47197363855714
