6
Energy = -28.22183261
Rh 7.794593971585395 7.794508202421385 9.58201930378262
Rh 7.794423028414637 7.794507368984043 6.007003696217334
Rh 6.007026307638185 7.794438889883366 7.794457098205819
Rh 7.794512999999983 6.006921057780148 7.794525906871458
Rh 9.582005692361701 7.794588110116679 7.794566901794099
Rh 7.794512999999983 9.582102942219882 7.794502093128555
