6
Energy = -25.41370662 eV
Rh 8.479174049229966 5.093059243043048 10.522966758127637
Rh 8.2309245760461 6.637094707378264 8.912173022968933
Rh 9.521460042762914 7.680371323402139 7.263847925108466
Rh 6.774394255237071 8.436379368380054 8.815122225478381
Rh 8.02740993662104 9.464656451087818 7.1505923593857235
Rh 7.8095904800772 11.513809295140922 6.269063459280611
