6
Energy = -27.11961764 eV
Rh 6.896953641884981 8.929754068666682 6.62085759015881
Rh 8.803806999999999 7.530645894010956 6.634286951049198
Rh 8.07391617492426 5.248954043846063 6.6254882376394555
Rh 6.896953641884981 6.892767906929163 8.241313883773405
Rh 5.719991108845699 5.248954043846063 6.6254882376394555
Rh 4.990100283769959 7.530645894010956 6.634286951049198
