6
Energy = -26.55258487 eV
Rh 8.630831671044769 11.237092471178535 7.997902002816335
Rh 8.053373396462726 9.132562467727917 7.821438550892626
Rh 9.084131160720363 7.040703555401147 7.143625701815465
Rh 7.4750906683234595 5.339529818350234 7.925569087163157
Rh 7.638221891894152 7.327329487178438 9.393849775729631
Rh 6.511037165023042 7.411477566766014 7.036384621576494
