6
Energy = -25.50811711 eV
Rh 8.027102008373623 5.8553945849305515 7.599362201400285
Rh 10.96556010919376 11.394290437474229 7.968969421906444
Rh 9.606516736503366 9.796351973193357 8.336570466702632
Rh 6.486790742375617 6.154473260667191 9.393193349218937
Rh 8.214762949769506 8.160930950300179 8.273484553313459
Rh 5.9559545006956895 7.647829694148096 7.613018442928129
