6
Energy = -26.39556892 eV
Rh 5.718409418784518 7.342553812197333 8.847007111392218
Rh 6.3449251441570995 7.535853454070321 6.595333257635166
Rh 6.464206930882081 8.009695296647951 4.296835174373041
Rh 7.145702314197626 5.804234901271807 5.003254443372726
Rh 5.835355419380322 4.065544169501502 5.8844116543547145
Rh 6.506163835352031 5.34528565010581 7.740164770812792
