7
Energy = -32.79204215 eV
Rh 8.00369491743521 7.23610368346006 6.799299360780165
Rh 5.145550182821064 5.593223142482354 3.827395919228404
Rh 8.259956540044053 4.9368198131345284 6.8338486220593575
Rh 5.902907433478908 7.044925021609806 5.7720179126789475
Rh 3.4423652310101516 6.437571814688617 5.1925393387432175
Rh 6.204248624511855 4.639928413110607 5.787104219307935
Rh 4.3809691537468565 5.432633809600715 7.105066125036677
