7
Energy = -31.99803952 eV
Rh 8.612935764283986 8.349268382779492 8.875782719230916
Rh 9.914803932661572 8.049571599059274 6.697740843107154
Rh 8.159855498333705 6.313949393459056 7.4467858740083335
Rh 7.414100609959168 8.684921493059852 6.696421757760251
Rh 8.314246171562434 7.004958761013557 5.077297589368606
Rh 6.30228176267344 7.477042957737476 8.541769208820364
Rh 4.532064092523261 6.877819337318438 9.681297894120627
