7
Energy = -31.98710883 eV
Rh 6.895452615681027 7.955898944261419 6.651906578663433
Rh 7.045255091233087 5.929592216401977 8.109234385301537
Rh 4.614451951414062 7.62367204055032 5.665717009043704
Rh 5.589962691596787 5.419482585161067 6.178097856703419
Rh 6.574980770108389 6.946828910066001 4.279830375210779
Rh 4.3634860108680025 3.579331694098753 6.56844860506999
Rh 8.144823206404727 5.823416081815242 5.871892898126735
