7
Energy = -31.5217091 eV
Rh 7.690646333117833 5.773545297494214 8.694501299999999
Rh 6.530863888707937 7.9100508832393785 8.52534205718683
Rh 5.371081444298038 5.773545297494214 8.694501299999999
Rh 5.371081444298038 7.288182479921661 4.367226477415872
Rh 6.530863888707937 6.530863888707937 6.530863888707937
Rh 7.690646333117833 7.288182479921661 4.367226477415872
Rh 6.530863888707937 5.151676894176492 4.536385720229047
