7
Energy = -33.93230452
Rh 6.090723467125665 7.8092299140779105 7.52438496304725
Rh 7.979753475888175 8.555774626489896 6.706092783383947
Rh 7.591717949189323 6.04559001130079 7.524384963047249
Rh 8.902361136513594 7.364563410663988 7.341070189343329
Rh 7.246174793892594 8.752329334901637 8.432910379379774
Rh 9.127710203404863 9.020222813409935 7.897356930219995
Rh 8.169854302613142 7.560585217783197 9.064778462950896
