7
Energy = -33.1791659 eV
Rh 6.847678094443458 5.328762985687878 5.327282459991518
Rh 8.53926197095023 5.822178772980845 7.047421144899231
Rh 8.514750718601048 8.126350706631216 7.8968201561674
Rh 7.166858717076279 7.717062677203041 5.815468169486982
Rh 6.427914288595052 6.7763250820495085 8.08425228421856
Rh 4.8433716761260515 5.5173236419292015 6.515626874679554
Rh 4.824393287706721 7.879145560711834 6.474815701434299
