7
Energy = -33.01974019 eV
Rh 7.455529286469509 4.208669527359315 6.948521220138303
Rh 5.544780563055231 5.626710451711733 6.831873827768097
Rh 8.748236238230623 5.922728475779089 5.788850833173162
Rh 7.661553346369095 6.468795455256186 7.9471726459847245
Rh 6.778035677597463 7.274624036429757 5.719337009923387
Rh 3.577095718357768 6.680967757253524 6.221755595122653
Rh 4.8061984816919825 8.343037842184357 5.142294645150738
