7
Energy = -32.3708509 eV
Rh 7.797906310204389 7.369519150054398 6.635893613164823
Rh 8.11224075145821 8.537207321036293 10.31292523470708
Rh 9.435305658354022 7.543310515141267 8.365670545088449
Rh 9.569908013969634 10.015716634281917 8.942698910414492
Rh 10.606521403825392 8.196046938725543 10.358739622881952
Rh 7.362974173138767 9.31688521814488 8.112370053621103
Rh 6.056052209225215 8.907105625176877 6.159647637906075
