7
Energy = -32.21925258 eV
Rh 7.692649065376565 5.723390168175533 6.629623083867664
Rh 8.362458883410829 7.912395042548975 6.023404975136957
Rh 7.155354802258091 3.6854428935552694 5.695174102920773
Rh 5.010534488044484 8.212708614728928 8.02144195941382
Rh 6.180882951646057 8.64025289971659 6.065485139966801
Rh 5.4635807359116235 6.318417209566728 6.620437542621892
Rh 4.90023607417342 4.279341601543408 5.7163111291380355
