7
Energy = -33.82332396 eV
Rh 5.3593489174124125 4.953317791067131 6.683467762438615
Rh 7.372109022469839 5.3145141564118115 8.25488142580389
Rh 7.096385846931204 8.618037109950084 5.729469170404137
Rh 7.475116090577565 6.09382574757522 5.825235439807538
Rh 8.44464653105179 7.577072088966955 7.666549147200511
Rh 5.905869892866964 7.287128376435872 7.558230805512906
Rh 5.187292218096424 6.996873113502828 5.12293463274219
