7
Energy = -33.02457318 eV
Rh 6.640332548466403 7.612066974692346 4.767430979860195
Rh 4.500434775006561 7.752625551208761 5.631021378220845
Rh 7.741345438672427 7.295433046624731 6.825833610939645
Rh 5.494902906829273 6.955615861324412 7.725066239498781
Rh 8.047076723520739 4.790532603079578 6.659504795367141
Rh 5.994960658843889 5.297902130828114 5.1883943027105115
Rh 5.943508347762708 4.623547818162182 7.569495047595241
