7
Energy = -32.29572837 eV
Rh 7.80337055047045 7.534613771409191 4.923303885086308
Rh 5.406938888504028 7.129669043259101 5.835791255892963
Rh 6.9672464484679875 5.269958289939898 5.158399617546786
Rh 5.440586743916867 4.93969347690512 7.145818107242893
Rh 5.283103867058221 3.603847512223471 5.214062169520779
Rh 5.645771144948334 7.028103452387451 8.38304704396689
Rh 7.218199937507095 8.259332034748603 7.104795501616215
