8
Energy = -39.5039451 eV
Rh 8.626243446801876 8.506836720342912 6.955931345319785
Rh 8.17068803590988 6.174073822821722 6.055316346951396
Rh 7.857812628881403 6.526336200845608 8.477116001003028
Rh 6.344871034142479 4.856441038149839 7.36208295603103
Rh 5.938749433911121 5.581428227115562 4.959104524957088
Rh 6.5315577594413226 7.9689922802577655 5.631669378369572
Rh 4.73575222109421 6.6157192840494385 6.94615881740162
Rh 6.270207860266082 8.2548578235223 8.069840538523971
