8
Energy = -36.40772078 eV
Rh 8.909640082363575 6.519662260754091 8.109705000354388
Rh 7.007085187224053 5.020425087234622 7.944968577772972
Rh 7.3028251295641695 7.1245263432316515 6.5068976403540635
Rh 7.438543251628438 9.000196132412261 5.093941338527733
Rh 5.453928314659853 3.3577099402331596 7.127546655945489
Rh 5.2495439054971325 5.460961907337224 6.095108654900686
Rh 5.480761985144337 7.633445698563101 4.745919300275448
Rh 3.506612215181514 6.241575566915781 4.718318792990057
