8
Energy = -38.82433881 eV
Rh 5.416756583315547 8.455624447260847 7.874649201424957
Rh 5.623894478661098 6.516324389821724 6.285607301325301
Rh 6.6986711056039665 8.059517240219439 4.776298052656879
Rh 8.777675917521712 6.944673577645417 5.087329381991978
Rh 7.833945383755074 5.408697131558828 6.709470652737759
Rh 5.772965039138609 4.356308000150602 7.5691708135444795
Rh 7.718353588963239 7.965248211939418 7.104445083476621
Rh 6.4833093931039025 6.393604976221392 8.808618278587469
