8
Energy = -40.73595364 eV
Rh 5.31442935811325 5.3142778888035185 5.314423233113212
Rh 7.697368631495508 5.3144042343968545 5.314220092981038
Rh 5.314584674793572 7.697212191098587 5.314581549793713
Rh 7.697514977088729 7.697340507779045 5.314432233113204
Rh 5.314217217980976 5.314400234396725 7.69736350649542
Rh 7.697165114488077 5.314574751404282 7.69716698948797
Rh 5.314426358113289 7.697337507779084 7.697512852088821
Rh 7.697362631495477 7.697521647911107 7.697368506495609
