8
Energy = -38.99005115 eV
Rh 4.647518212695961 6.390633063550585 5.502906928262344
Rh 6.4956753658836215 8.001511397713788 5.823913726668454
Rh 5.535041991124115 7.493909627235662 3.4956557871829634
Rh 5.602037269821891 6.686873612282813 7.845900235722827
Rh 7.871564099436951 6.142496383724016 7.038691140246091
Rh 6.023254726209025 4.540918548625449 6.63520853709041
Rh 6.955689777889672 5.8670841229725434 4.668087713817776
Rh 6.821526214124064 4.82888090108016 8.941943588194288
