8
Energy = -38.69573812 eV
Rh 5.131605332247729 5.671734144281607 8.522960102311703
Rh 7.280577956088055 6.93603182671664 5.167918002150124
Rh 6.746595943403133 9.018043323355618 6.426523261274507
Rh 6.2780628838058306 4.864022576657874 6.468663812201778
Rh 5.221538770831534 5.733645431777857 4.360172544356991
Rh 5.020696534195651 7.148886102797754 6.450983713443926
Rh 7.225485626644419 6.91385490827877 7.777252104592495
Rh 8.746518720964554 5.364863454315027 6.476608227849501
