8
Energy = -37.72721296 eV
Rh 5.87788565444486 8.116612991507791 10.324147322938144
Rh 10.410078912771707 8.45643896833577 8.82769556624339
Rh 10.669858208188456 9.330586254570592 6.598050182138305
Rh 8.181173856966874 8.70608181730842 10.36508180568749
Rh 10.060725316198836 11.359493555191394 7.614031359741905
Rh 8.458130203441764 9.61440821805477 8.086846606198508
Rh 8.99977482821869 6.570573656434776 9.423269675745967
Rh 7.104059235992846 7.587694773086266 8.332563093425376
