8
Energy = -37.87361852 eV
Rh 10.497523209356414 8.828869969395765 5.690442808870546
Rh 8.752109402467676 8.054904989892862 6.832472923432631
Rh 7.813894682549758 7.919196842227172 9.144968021307557
Rh 8.52923545526569 5.788185721106401 7.7879116852711645
Rh 7.019904330481137 6.554756108672453 5.932679648766519
Rh 5.38097437496999 8.268388044683693 9.633822579193808
Rh 6.086227972137773 6.369314710825035 8.251987809517514
Rh 6.346595781015677 8.69434134622605 7.252521621062645
