8
Energy = -36.76532647 eV
Rh 7.3403069015643245 11.078871269823534 6.314891438827576
Rh 6.317475169232357 7.625573555230086 8.306912935233647
Rh 7.850777055995259 9.056495377629398 7.014617319020012
Rh 8.969325360692395 7.4306791955034965 8.608172541406951
Rh 10.046686016374275 7.912048165054206 6.453288736791366
Rh 7.980359255296543 6.568642747834412 6.567943674471402
Rh 5.186048838969622 5.77208026141154 9.289509761025075
Rh 7.47696045194996 5.393585669916234 8.699789633690036
