9
Energy = -45.89350863 eV
Rh 5.3388720334295945 5.040249711609129 5.401526037847191
Rh 7.676211325867781 4.7883971485308185 5.681238770000561
Rh 5.140805413153435 5.829359762310442 7.65214039681541
Rh 7.53865556766278 5.581091810751265 7.942303937819071
Rh 5.688611899916032 7.267377013529846 4.581764401130537
Rh 5.505046913591796 8.172263022641618 6.7880361538278615
Rh 6.311897153969045 7.536635416713301 9.100430336776265
Rh 8.021179194776069 7.007600027320436 4.873255180003095
Rh 7.896674255455508 7.894979876187394 7.09725854360192
