9
Energy = -45.61383501 eV
Rh 9.163124735166472 9.639488840181947 8.079862947113966
Rh 9.735912264430976 7.453918699782658 8.343209422359385
Rh 6.5385407013604215 7.973433838790201 8.530089114009026
Rh 7.5647428570501285 9.050053297752138 6.912384031512286
Rh 8.136835323127833 6.864105654803387 7.175549251405232
Rh 8.07517021419053 6.069700176333981 9.366804884929802
Rh 7.0456554570452985 10.214398365376843 8.893127331258611
Rh 8.136835323127835 8.294833636461796 9.96625260928281
Rh 9.65144316331213 8.219688451705013 6.243706291693049
