9
Energy = -43.3130356 eV
Rh 7.645541319570681 5.476826229994108 9.238001890789395
Rh 6.874449356884851 4.38003608806151 7.286608213109687
Rh 7.210247484593525 7.596482376966442 8.266885462734756
Rh 7.287870730502465 3.640977052534734 5.078291696008336
Rh 6.4820296998259925 6.4580025141505075 6.411463308426626
Rh 5.535425227137465 9.205912704650494 7.7881548770313245
Rh 6.861080516335324 5.819412746932715 4.244749877360822
Rh 4.832836433147478 7.962933737895697 5.899030193619414
Rh 5.17779691031798 7.374603229775445 3.628389441606558
