9
Energy = -42.78486395 eV
Rh 10.980929528039226 5.962665299750625 9.546436714955565
Rh 8.701838218134167 6.308532384714504 9.072736889697682
Rh 6.489419344031983 6.87613448529883 8.333932076020952
Rh 8.391502798239152 7.227799630693891 6.637730086856563
Rh 10.422440619336099 7.747791218288149 8.032348529489061
Rh 6.84229693360893 9.116100577275477 6.505781240183015
Rh 8.177612175181821 8.809939172101902 8.525771195033597
Rh 4.739134015839255 7.965789155103665 7.224128742810314
Rh 4.698108972422602 9.801924397615172 5.781229276272854
