9
Energy = -45.0634006 eV
Rh 9.153817133623365 6.45363532132473 6.814269801401693
Rh 8.59523657502294 5.1278650580429925 4.9425825757511
Rh 7.254658209176824 7.325633205329497 5.285985287071522
Rh 6.888319254197583 6.365406106576224 7.594904006563371
Rh 6.323117420146881 5.005962915387128 5.674354789457375
Rh 5.249787891246267 8.15325524109233 6.782324157098116
Rh 4.691705368348785 6.795912525390609 4.879691052079028
Rh 4.514668708887678 6.3661506338285285 8.245212175574148
Rh 3.97136358355353 5.035739300715744 6.382927232036584
