9
Energy = -45.2351033 eV
Rh 5.86394685750586 8.11655193430308 9.36661712671009
Rh 6.350827654768185 7.963581312976591 6.872609917103309
Rh 5.685833541447595 5.910398486612901 8.226583438299317
Rh 8.17868775592441 9.59402550244308 6.181747029673229
Rh 8.03381737040874 6.225431811696877 7.289598360925504
Rh 9.887242878501533 7.83159735890994 6.611587525608451
Rh 7.573189256914479 6.354278315598744 9.79011950247475
Rh 8.207334266038144 8.403374137477183 8.42765298935225
Rh 8.014899013841662 7.396539735332075 5.029262705203825
