9
Energy = -44.45608013 eV
Rh 6.836615038707484 8.123394359966776 7.377896077540428
Rh 5.452643912056874 6.836615038707484 5.594964620016949
Rh 8.220586165358094 6.836615038707484 5.594964620016949
Rh 6.836615038707484 8.85172839328219 4.996530607444096
Rh 6.836615038707484 6.836615038707484 9.524727530029129
Rh 8.948035273285475 6.836615038707484 8.033012565988
Rh 6.836615038707484 5.549835717448192 7.377896077540428
Rh 4.725194804129486 6.836615038707484 8.033012565988
Rh 6.836615038707484 4.82150168413278 4.996530607444096
