9
Energy = -44.43006154 eV
Rh 4.870446481731173 6.881034472844113 4.249646193613219
Rh 6.934249492592438 5.785513683612849 5.126910380905894
Rh 4.8451927030684745 4.349784739573201 5.159421630044729
Rh 7.039578597815421 3.5154190257700533 6.176721074386909
Rh 5.654763980215905 9.075130348931216 4.6146610642491215
Rh 5.180913759449767 4.078011363213586 7.680550352949312
Rh 5.0088751279708035 6.366741062500269 6.687825154289303
Rh 6.8736397591416 7.963270252233898 6.314420563031492
Rh 7.228756983262251 5.601840891531787 7.645374073358401
