9
Energy = -44.55974417 eV
Rh 6.2391659853991674 5.388618797527928 2.804524151113015
Rh 4.206434519942896 6.409437619405022 3.9902774695466396
Rh 5.812585670322816 4.035884469380022 4.906541369829778
Rh 4.087937293181736 4.091228362753489 3.030228460769076
Rh 3.1126664521790284 4.367394027501903 5.2204568563110385
Rh 4.511187748491859 3.727511677256085 7.077101838809351
Rh 4.475202952700806 6.180331425444567 6.528623903703135
Rh 6.548698604128357 6.484038696350865 5.048089725280062
Rh 6.688408433810865 4.9978425845376515 7.07644388479556
