9
Energy = -44.56987827 eV
Rh 9.09645484950574 6.471839988407765 6.967219157164048
Rh 7.7271028702454885 5.629747391372196 8.695015233051839
Rh 7.206514391827439 7.376715063911278 5.873325379994561
Rh 7.274865367520025 4.825417930731741 6.331917446319661
Rh 5.80639279197851 3.9769389790391667 4.7325524854238505
Rh 5.8121627134646205 6.515675381973493 7.636237943808521
Rh 5.042649255312767 6.133167448476566 5.187258241385653
Rh 5.377654986242425 8.64965477459733 5.077989413686371
Rh 4.0111406057781185 7.802124148812321 6.806140542157555
