9
Energy = -44.25716392 eV
Rh 7.780376695415998 4.057446654913267 7.0206977072733165
Rh 8.842325401933012 5.963921092484191 8.05845598870975
Rh 6.299117081384215 5.8485327056681 8.10727093769649
Rh 6.593621670734816 5.521831687961541 5.58860516971516
Rh 5.692136411730833 5.9189592403332485 3.3935655286292254
Rh 7.706754076195311 7.396779589265903 6.520600590673665
Rh 4.559153420251631 6.898532604392581 5.24101864910531
Rh 4.505205525839696 7.3243892094252665 7.658528239349029
Rh 5.817984063330859 8.807278615124977 6.212270519543668
