9
Energy = -44.69235961 eV
Rh 5.881544871778529 6.962170899432326 7.815011274091811
Rh 6.103288210310051 8.63264831099477 5.863750701153979
Rh 7.449742924984509 7.661310774496209 4.064461408329109
Rh 7.537435568322592 8.853254181872494 8.162872725542211
Rh 8.110608033061824 7.221167747809713 6.443196249428856
Rh 6.06011091979964 6.103592142114004 5.413725385667721
Rh 7.521655546815427 7.060488459656626 9.769569099838115
Rh 8.078892408098056 5.466235234511609 8.080448916480487
Rh 6.112318648844052 4.4535345689267025 7.1388667150127105
