9
Energy = -43.79263673 eV
Rh 5.855185287596814 7.424156584317572 3.5314003898133843
Rh 6.944688830648423 5.74626225608216 4.6846039759488
Rh 8.796230446563632 5.4154469094679 6.107226965338512
Rh 6.88415940281118 3.9095382145300697 6.467493034522779
Rh 5.463044848747465 6.011050345522566 6.556073036077725
Rh 7.385903676463851 5.883332470039985 8.034968106650721
Rh 4.4875515267267785 7.861830693029687 5.379463733220253
Rh 5.957581478636574 8.285621104593696 7.350104821462966
Rh 5.538945768763697 6.846757499668609 9.206583670841608
