9
Energy = -41.64113185 eV
Rh 5.021394424596889 5.490942213683694 6.824037314855935
Rh 4.016049910479681 7.665078716047783 6.814346838123783
Rh 5.369323328032424 9.778942122472015 6.804583239705825
Rh 6.438653409306306 7.58248326318325 6.815165102200042
Rh 7.5854268623188155 5.220767588671104 6.810737885844083
Rh 9.97230803378276 5.259666515113941 6.8115903382725165
Rh 8.957452089634979 7.406248140490965 6.807813385342319
Rh 7.867787722368496 9.53959482214059 6.819006242218824
Rh 6.081920202751071 3.3665928379793395 6.8030357155453265
