11
Energy = -73.45201766 eV
Ru 4.635781183914917 6.4061109015211555 5.607341380791027
Ru 3.5508802218887543 5.344992352690175 7.405605691470156
Ru 5.9954128211406 5.951923372687623 7.711458749099359
Ru 6.497142648436147 8.002931155365946 6.0087403325929385
Ru 6.030681469878685 4.696394388475222 5.447183368805681
Ru 7.367228025622635 5.908741182038647 3.667640132858899
Ru 8.642507620808495 8.004031391003544 7.223841669777186
Ru 5.939117835146694 7.638770021251532 3.8225837700475993
Ru 4.991026764161861 3.6279639415883516 7.2380687773844885
Ru 7.997245154660689 6.135257824483079 5.858980787347351
Ru 7.3403118666254645 7.184568703523167 8.930518175877868
