14
Energy = -97.48407059 eV
Ru 7.304900618125933 8.208179126123628 6.4733403789062445
Ru 7.3178992621693 9.555870184201558 6.464949406491621
Ru 7.696676540881331 8.251495508373006 8.877312050183116
Ru 7.709143337975149 9.52551163549864 8.869338228544928
Ru 8.243439980018827 8.250523330113712 10.512462195006165
Ru 8.256075425389081 9.539035285879807 10.504135093520258
Ru 8.629852235660552 8.177251489877492 7.266643013394035
Ru 8.642961950046457 9.567145810758976 7.258037197159923
Ru 9.105813883660486 8.17808778379151 8.885847512326972
Ru 9.119326084366765 9.57939757419418 8.877312050183114
Ru 9.662815217598947 8.20258433684625 11.285975635517222
Ru 9.676444371247653 9.565709179455178 11.277596471189238
Ru 11.240431743384114 9.328626390972486 9.609502770065664
Ru 10.80980338491819 9.32257832847095 8.171339997511325
