10
Energy = -66.49122842 eV
Ru 4.686547949020348 4.952595898710326 3.0534719472243066
Ru 4.360320033826229 7.084424207196341 3.7362360236189773
Ru 6.471747857597474 4.813815695322422 4.790416152206301
Ru 3.2209227807021477 4.428032619451363 4.70465117385344
Ru 6.479367583589416 7.168215609751567 4.670493087438983
Ru 4.753050787431574 5.996041253383896 6.014051136814047
Ru 7.570716131863943 5.124952034031195 7.004433479875177
Ru 4.911869826531235 3.5125062942434253 5.989943281388007
Ru 6.803625314920965 7.249668174746455 6.947851812797012
Ru 5.595690521787964 4.523607000434162 7.942310692054927
