12
Energy = -81.17388374 eV
Ru 4.362123395848751 4.815076975735312 7.09406132339687
Ru 6.332252512781573 5.112910456150865 5.786972546446541
Ru 4.5618487976926945 5.896865619966614 4.419011807974193
Ru 7.179630585516526 6.189549771502004 3.8491191255762875
Ru 8.168984176440768 7.795443910510572 5.428141771390393
Ru 6.243232566761329 7.434629734909715 6.753101285886641
Ru 5.501787861084301 6.326006459633419 8.724269437628879
Ru 8.069232222505516 6.646726117502921 8.065242845187631
Ru 5.651460236350018 8.053212225264653 4.531453643357069
Ru 3.913639842015366 7.095585753666538 6.467247565704036
Ru 8.664080944022645 5.464422627448783 6.043701734032822
Ru 6.851018850517035 4.46216171057197 8.014812956516435
