13
Energy = -86.91610459 eV
Ru 6.792164747919086 6.660604969244147 4.331230108076566
Ru 8.862272897333447 5.055289733720758 7.580377296738873
Ru 4.113566238226658 3.8352052091274924 8.353408721507591
Ru 6.644149913684778 8.338020859087498 6.177374233047882
Ru 4.731745480409454 6.875839632428902 5.659477605519996
Ru 4.851033918872423 8.523218205645671 7.6741494438692675
Ru 5.132967685841207 5.1190416423047855 3.809369275132399
Ru 8.686406631229083 6.906652346141057 5.9601120105017475
Ru 4.876997616086066 4.477448113900317 6.1977146344684995
Ru 8.303734335503158 8.69303776744942 4.406765531101861
Ru 7.034300861137343 6.568250077930373 7.855504902432958
Ru 4.751494066662058 6.08672030967504 7.97848598188303
Ru 7.176524660140791 4.845114731534114 5.973425216717927
