12
Energy = -81.08616587 eV
Ru 8.542440929919094 8.025793437995896 6.572100373256238
Ru 8.845743850895623 5.711444169014872 5.665786376525639
Ru 6.554902551461978 7.0418916746630975 5.756857949823057
Ru 6.994102077436523 9.542437117385377 5.501101142710435
Ru 5.094841900915337 8.70801252364587 6.939708043518587
Ru 5.892981062741776 6.558250570477117 7.94373143665295
Ru 6.982140866547776 4.675867330601293 6.615679726950275
Ru 9.751743506677835 6.016750400115119 7.7643873640161685
Ru 7.240881413685661 9.954440388784752 7.875755561175423
Ru 5.811110276994939 8.683518838494056 9.357626716437888
Ru 7.904808999234299 5.029643740785028 8.729171108381053
Ru 7.87483294233276 7.542480186881632 8.768624579396143
