11
Energy = -72.28794307 eV
Ru 7.632862492252788 8.599186511788991 8.722271174419605
Ru 7.2517451859997815 6.853690609757669 6.020098623388535
Ru 8.328068674629606 9.00915732076455 6.328982412219757
Ru 5.79501340522695 8.514909689026302 7.145063808288386
Ru 9.915856956729318 8.21039807547868 8.15329626663313
Ru 9.732612401964943 6.897229808025988 6.171892591181243
Ru 8.150469347225984 6.299718571346833 8.179231148574488
Ru 8.673952472765079 6.214482657179873 4.249513793617744
Ru 6.1934147404710185 7.250733929191546 10.050211628856157
Ru 4.405705109135581 8.148970391998207 9.004400054716573
Ru 5.686112056990261 6.21074099705663 7.830948164617545
