10
Energy = -65.48322193 eV
Ru 5.534312359542156 4.078504494865007 3.994189801538779
Ru 4.469389018811239 6.055921081108131 4.391001790243864
Ru 7.103153327712884 5.7237218137394645 4.588484643542691
Ru 5.60640742364531 5.08603910095287 6.446478005166886
Ru 7.835024626721964 5.858664323311366 6.93114887449834
Ru 7.1218908828078344 7.927563412753302 5.201181490884252
Ru 6.439667011770064 4.491670446418451 8.529197885249346
Ru 4.750765146776139 8.142606503143327 5.0108836854945915
Ru 5.7962483803764595 7.290272824639032 7.121645008154205
Ru 6.650277285194692 6.662827228210832 9.147548058920027
