15
Energy = -102.21406777 eV
Ru 7.727211487173189 8.553296397349387 8.650672604129044
Ru 6.127250662898475 7.860278210955001 10.296521893702787
Ru 9.698096268569362 7.83683658748845 6.044638572812587
Ru 7.529441831705457 4.491938186162139 8.587178399854135
Ru 7.829056647871795 6.057572569218578 4.758586496651816
Ru 6.292596793355107 5.763514337790095 6.8802719840819995
Ru 9.670655488063671 5.483785045419251 5.9925028203998405
Ru 5.4043576650512914 7.834034457703631 7.96557850574504
Ru 5.6402687685842645 5.381677077976294 4.58042137786206
Ru 5.744979875281026 5.747019127073796 9.351134596070075
Ru 9.027809429367677 9.733513518303488 7.013703624827147
Ru 4.004466063159408 8.693750922201772 6.445033539673042
Ru 5.269297545855117 7.697425996664799 4.810557332497762
Ru 8.455079938670824 6.530828479996389 7.8564432711034735
Ru 7.2110427590512804 8.066366802179235 6.094101604735012
