12
Energy = -81.56740825 eV
Ru 6.251078156302276 5.5200966586480735 8.734049298413263
Ru 7.195966288586716 8.168108285506273 9.026786372605601
Ru 5.583819796251161 4.158744235524037 7.024586394426963
Ru 4.7550977805610835 7.140577160146613 8.028294371632157
Ru 7.944596194183188 6.370765323487688 7.334913616121702
Ru 7.262650895410497 5.034754048980087 5.676266255277399
Ru 7.997291722555387 6.689154119344835 3.897390027716034
Ru 8.712008495651482 7.998246434635519 5.445193051648507
Ru 6.35775917583627 8.09313768458444 6.589371414654821
Ru 4.087777642901571 5.788334687168458 6.318802116030161
Ru 5.690017063522822 6.74673250748509 4.932461648561294
Ru 8.810296421482372 9.023500505158346 7.480286624941198
