14
Energy = -95.57722482 eV
Ru 9.549126722822752 6.922127042310291 5.678214854531485
Ru 7.736896561602493 8.16117190242135 6.239404714808928
Ru 5.995459095491507 8.625275462766043 4.767581566986993
Ru 6.181403424453733 6.2833663945125675 5.14580311557737
Ru 8.415117647899867 5.448716716405751 4.321267477774333
Ru 8.196104944929617 6.023847562156454 7.5373722466824375
Ru 6.330310432714595 8.800231619619927 8.053656106668786
Ru 7.478202895990078 4.40023682965883 6.164058888286211
Ru 5.91964522049632 6.569669930500745 8.417110185157231
Ru 4.097560024030044 5.583686430967811 4.537121842436624
Ru 4.659152590930488 7.8085212666634085 6.57566427415228
Ru 6.68870645524143 4.456939234575677 8.860286367330616
Ru 5.161190088453312 4.7146593475712715 6.9524452063820235
Ru 3.150055190280142 6.03768774485889 6.604384305170089
