11
Energy = -72.73356279 eV
Ru 5.150551882377795 6.233337760960005 7.711271927743786
Ru 5.152460151499178 6.227425609190343 5.043789565002872
Ru 4.273124039185142 8.226059722122693 6.372722558193572
Ru 6.928279376257907 5.126039383996198 6.381298365525721
Ru 6.616671979721457 7.723277193541901 6.375214944104976
Ru 3.1175973101161665 5.988474101761006 6.376647600570282
Ru 4.769266587726928 4.084756223004164 6.38179012670434
Ru 7.889584004894553 6.5641371859643405 8.103853077453591
Ru 7.892287580553646 6.556030163694117 4.653770861824121
Ru 9.32728112252187 5.525905900686548 6.3823095404377534
Ru 9.042140068665542 7.903800786847468 6.376575535958918
