12
Energy = -79.44930088 eV
Ru 6.720951317947791 4.266608749386637 6.786475422697036
Ru 5.631369234828204 7.899942684600345 8.866826470514168
Ru 5.390814372634713 5.766582565994661 5.225537323700207
Ru 4.72160614727179 7.981366628442371 6.5018366842069995
Ru 8.963847241742053 5.533604416847172 7.455707420222952
Ru 8.014682330188311 5.66156645841644 5.103556786437846
Ru 8.300939370066086 7.768175299510637 8.743716370496024
Ru 6.775578030044395 7.863685438918194 5.059999545989707
Ru 6.9553285501721 9.233356900414725 7.161210059021931
Ru 8.9790052098291 7.79279840800249 6.2975855673084515
Ru 4.65224515861377 5.721991493540326 7.653720728322964
Ru 6.833894933599152 6.669774077687757 7.143991009021019
