15
Energy = -103.46289662 eV
Ru 7.2224512918213 5.5708213389083046 3.498360652936015
Ru 5.244410931351093 5.023462453312709 2.129452288200367
Ru 7.256245400359941 3.5923670936252807 1.9674237355097537
Ru 4.904570289794553 6.046623564941515 4.3731467083192985
Ru 5.173264586639699 2.8808253008481643 3.0933287081778578
Ru 7.154422885375753 3.423172699535023 4.4492868836341986
Ru 3.182405163201655 4.46371793377422 3.564565774487544
Ru 2.651278737321576 6.502311058668332 5.191310469470892
Ru 2.601793244902461 4.315880827088469 6.161617954021565
Ru 4.827683417629702 3.895281200596577 5.337848079372525
Ru 6.73884283299712 5.389051702943795 5.966564165131874
Ru 4.717003503869061 7.62455347470789 6.2352763399532485
Ru 4.62469352904544 4.1157253015063535 7.767090939421847
Ru 3.260035618981296 6.185671163439489 7.633811391451238
Ru 5.737441303899719 6.26707762329469 7.927458647102601
