13
Energy = -86.48428238 eV
Ru 9.573127836055072 7.1384171068801034 7.174275918191963
Ru 9.593568076403606 5.617261460985966 5.285301075524169
Ru 8.007615766055592 7.440281807596409 5.3432598770436375
Ru 7.137852505151167 7.746160506936273 7.693104249565343
Ru 7.740452443199649 5.438251678102155 6.907957802980566
Ru 7.125232902639588 5.223412241847733 4.499663872042481
Ru 5.659903362830599 6.63517975502976 5.967495177094237
Ru 5.60099617949908 4.142956098704401 6.229219008863817
Ru 5.615641886904094 5.847339158526665 8.334273791705275
Ru 4.388033898170304 7.877648469402557 7.675653660976312
Ru 4.376588394363288 5.244115665749961 4.420653995218576
Ru 3.517587214292307 7.641055273577479 5.378989656934981
Ru 3.5508426846209367 5.618453768291488 6.801696420680797
