14
Energy = -96.82979695 eV
Ru 9.558727145107406 7.295920893764784 5.500998375766688
Ru 8.163231577004767 5.5885359570828435 6.463880944735966
Ru 7.210624861878816 3.889695937916584 8.01878617924196
Ru 6.860629538834171 6.1970784638336776 8.509330993167053
Ru 8.029991430045182 7.528319761942024 3.8094181229554827
Ru 7.835188369198658 7.961153269692959 7.071503663772021
Ru 6.7136213264498235 5.813729671313862 4.807239967031178
Ru 6.242811274384264 8.728579440953048 8.692767886656366
Ru 5.097239482246363 3.835890898878131 7.166581077260182
Ru 6.336588009437127 8.19162593342051 5.433695506800237
Ru 4.778037085395444 6.03386048226944 7.77472013973658
Ru 4.7335457667853715 4.3313156661534435 4.955195812439529
Ru 4.593094900478915 8.74778021017889 7.109761919870815
Ru 4.472066514546505 6.578598205404316 5.571945101942204
