11
Energy = -70.84015065 eV
Ru 6.782567620914257 6.9205377963709465 12.79825294146617
Ru 6.202312310188551 7.612492593006736 6.851484676825838
Ru 7.544099977186522 6.497809569755156 8.630725597955887
Ru 9.22898526477461 7.972028200550426 4.954452929957789
Ru 9.35451756594249 7.409020171702638 7.2266096899105365
Ru 6.8671692287584625 8.172140873372683 4.686064573827151
Ru 6.457639305786839 8.692098361312539 9.015054639853107
Ru 8.8528857625629 8.564586567576404 9.302731759068
Ru 7.907706825710357 9.273694535520152 6.844775235473455
Ru 7.790782147617393 6.040566707827318 5.980564622982147
Ru 7.547156130939816 7.260181906900412 10.898381506536971
