10
Energy = -67.99117244 eV
Ru 5.348094732379183 4.6988671922661025 5.376959791182854
Ru 7.681981341496329 4.699012311841616 5.377104460365894
Ru 5.283371848454338 7.01726253456287 5.401383678621867
Ru 7.745967202844917 7.017300754027495 5.401442682810787
Ru 6.514408731536313 9.142529430941195 5.406749586633621
Ru 5.348006821529407 4.698847907117672 7.652520029638558
Ru 7.681878480558307 4.698585927184031 7.652703345917814
Ru 5.2837135808743625 7.017192609650682 7.62848428310236
Ru 7.74626822121115 7.017021137393322 7.628527898147795
Ru 6.515326520329874 9.142397676229201 7.623141724792768
