13
Energy = -86.60852302 eV
Ru 6.9253301666349545 7.573853769665431 5.003362713033148
Ru 5.946633047887219 5.391815188098779 6.109075827198754
Ru 5.63192896807813 7.608728992073554 6.997901406453767
Ru 9.06736547331773 8.437118490149222 6.359750354200044
Ru 10.922167503976741 8.600063212301837 8.046597066533646
Ru 8.823842320956505 7.859312427346363 9.75597828509155
Ru 7.184911171353662 6.284977225661669 8.192093114918217
Ru 6.625560276272737 8.680047879381599 9.04439174839026
Ru 8.288031781819154 5.9251953260656745 6.022797796789801
Ru 5.5260751410543625 9.056778985416901 10.73377989630122
Ru 9.663708966672985 6.645879371715929 7.915433534783634
Ru 6.948842528266774 9.615127306708866 6.635899050947528
Ru 8.7479596864318 9.773715020286117 8.343776314515168
