13
Energy = -88.87567831 eV
Ru 7.2990928454988575 5.5975771126815035 4.048938357488829
Ru 9.287301019991228 5.239974467906872 5.266883150762981
Ru 8.458742010282682 7.644738808322315 5.03121312032695
Ru 6.3138208482287395 6.802528703377977 5.922789513134111
Ru 6.536806545327829 9.157292978924534 6.3214258259455045
Ru 7.112134617255759 4.49455467633726 6.321886261319756
Ru 8.526563284640181 8.803738767253735 7.554080639136277
Ru 6.1628809447399995 5.997273049637757 8.321989474256855
Ru 4.861570680354071 7.906925316923466 7.771673624209815
Ru 8.389105812089708 6.439199675816207 7.180771854823439
Ru 6.400723713415129 9.312961429908169 8.890193879066254
Ru 7.663723052815978 7.405260140230315 9.49421044148376
Ru 5.287400431109438 7.497840678429482 10.173809663794776
