13
Energy = -87.17772451 eV
Ru 6.908984520977097 5.647695994135313 8.932506144723833
Ru 6.760088103268667 4.346594228604124 6.708631082874107
Ru 5.641610891003557 7.920157280643341 8.801264955658107
Ru 5.403530600946388 5.869025928938212 5.011891846147853
Ru 4.8058513793265805 8.033896718960992 6.317377605958662
Ru 8.99254239630569 5.567972758963985 7.363690954474833
Ru 7.989505374554114 5.801152777560981 4.969017227868587
Ru 8.260140046571651 7.78126658710438 8.579129399355134
Ru 6.783076089841248 8.07964114389946 4.608087705484674
Ru 6.961219709010022 9.291103030496512 6.9588964442595085
Ru 8.94792151432298 7.89021513478854 6.107396791106858
Ru 4.716797883059768 5.775497197055562 7.583565662368906
Ru 6.834102909733815 6.828497653340544 6.819046035076692
