14
Energy = -94.1052411 eV
Ru 4.352156197865845 6.877913810158135 5.702960411013727
Ru 7.628405049530731 6.3381815144203015 8.649003591857337
Ru 5.9730119945167965 5.328315045856446 6.753301304729406
Ru 7.858013824853595 9.200793117045023 7.314610037801046
Ru 11.483413366174348 8.447844009866051 9.035449448234802
Ru 4.2857277699182585 4.521675455033046 5.290085455527137
Ru 6.237156467172893 6.123744410768796 4.45140454376114
Ru 6.241616822374007 8.511167850421792 5.197646316754139
Ru 5.884696574171481 7.688665422841877 7.5002689409338075
Ru 7.787805301236171 6.915869825992855 6.233008903660477
Ru 9.431387264847755 9.678168207434087 9.243876188224926
Ru 7.11002013477157 8.599027537503805 9.609787266246045
Ru 9.671444544181934 7.603233720215295 7.91996146164236
Ru 9.186100104248933 7.515525295934403 10.273240991643965
