12
Energy = -80.82163041 eV
Ru 6.17851445478401 6.973445198332893 5.452316270475659
Ru 8.368261527568036 9.551578773560834 11.139729837194281
Ru 9.488834582886946 9.045090670482624 7.628059395957587
Ru 10.13110084708632 10.379823104860595 9.531307907150921
Ru 8.61349366951357 7.448081041588047 5.56878989674809
Ru 6.189255884130712 6.338151947963004 7.851715414665563
Ru 8.59938234163812 6.714645852182953 7.886199401948245
Ru 7.654686185237191 5.242342424207238 6.174934162989207
Ru 9.780913983747201 7.981179095783819 9.836126584552783
Ru 7.081981819957286 8.494981257243605 7.149815992767624
Ru 7.340123174805888 8.046045355128703 9.616232796467571
Ru 7.778208781776159 10.33628259299436 8.859344428916883
