11
Energy = -73.1846922 eV
Ru 7.069483176000829 9.50528291781521 8.144738882930888
Ru 8.584438320129765 7.584689074425353 7.931101456404111
Ru 9.335187223470776 9.889637115093567 7.241735549990643
Ru 8.923212588899638 8.134788325677867 5.559047951424418
Ru 7.410847500871566 10.077244529565938 5.772336425465343
Ru 8.162737466952741 5.770436109124295 6.2553296434432015
Ru 7.799938943194082 5.254249696419805 8.644885727236781
Ru 6.278750801195671 7.139557568672026 8.876236518970401
Ru 6.664388256560449 7.769247195782299 6.451698359131268
Ru 5.8821459819394954 5.444392772205451 7.169407838815866
Ru 5.511330487347639 5.052935441780736 9.575942392749862
