13
Energy = -87.50436744 eV
Ru 9.14198924017719 5.017774770821487 4.8600002160168145
Ru 6.548145146941085 7.030647698442436 7.530621061842404
Ru 9.218161023718778 8.608953459759311 7.07322500630212
Ru 7.208924611472888 9.286479059939078 8.414208668611076
Ru 8.480278831656097 7.3277321059736655 9.108264553019664
Ru 6.324154506177524 7.792420698486953 10.122367493365877
Ru 6.9389627605237205 6.397789866340562 5.169426145019725
Ru 7.16851684821232 10.034450559773097 10.758578419371679
Ru 9.004190706825936 7.61982445191396 4.817047179251421
Ru 7.045850051840887 8.812019525753925 5.851910436350831
Ru 9.311595015900858 9.549542028118777 9.617539901753586
Ru 8.41785682095258 8.09660687328391 11.437192307417316
Ru 8.765252153953048 6.16892602782801 6.749199866133037
