13
Energy = -88.20212255 eV
Ru 9.118354082174244 5.211283609264398 7.635643085817848
Ru 8.425187358008769 5.961422618299373 5.44206675626609
Ru 8.092343568556457 6.9236122925769354 8.706041494128836
Ru 7.658739497758028 7.631380325505698 3.9297184690633484
Ru 7.041688314708408 4.422821892871484 6.68788743666656
Ru 7.488038602462074 7.895528023939454 6.5421189519716725
Ru 6.000298783402114 8.396745527241364 8.418331370463626
Ru 5.937929988491987 5.981574979198476 8.013457289555406
Ru 5.587072704214699 7.9600051601102715 5.0543088655585695
Ru 6.060764113862096 5.52172868698415 4.706434593906783
Ru 4.731496407505526 3.9356968357995594 6.263753002095359
Ru 4.269280704787935 8.625238550557015 6.972960164083015
Ru 4.3680530464218865 6.303238675550099 6.321191304105895
