13
Energy = -88.54309479 eV
Ru 7.672534779140643 4.209551114652095 8.153171147848465
Ru 6.561354441376458 8.149898813367264 9.094558483948925
Ru 7.630166727751537 6.483115181381035 7.543918952087083
Ru 5.37419358783452 4.18075899287274 8.381412277397647
Ru 6.335525188819545 8.728727143292307 6.944285348614493
Ru 5.239812151866883 6.454398185728845 7.783503443821433
Ru 5.198935735347083 4.696268794322638 6.007916739345769
Ru 7.369245869707735 4.7245595276320795 5.792789968049484
Ru 6.111890649999981 9.274796688721253 4.782514057688695
Ru 4.992842031832805 7.0881117202665065 5.29752490471885
Ru 7.3719499538779205 7.122537346886802 5.059952078914422
Ru 4.898176147017582 5.374509104070453 3.686292046891543
Ru 7.195453869051846 5.407467367402339 3.4581606484621297
