14
Energy = -94.52228595 eV
Ru 6.134015957471282 6.646907030367838 8.336792732424701
Ru 8.601824483462812 6.928074604334561 8.905284668339492
Ru 5.040545477019384 4.485597145418106 8.75519318967294
Ru 7.556303416268833 4.688245560974356 8.494957364738047
Ru 3.8677415687570242 6.063479089523618 7.180971086964688
Ru 5.908728528597599 4.949281821962082 6.48878860659046
Ru 7.987501250197179 6.434552883510927 6.571996424399068
Ru 5.717660702046151 7.457487187785545 5.939033114116199
Ru 9.662653059503509 8.214006812410224 6.965649936483133
Ru 7.424829695007614 8.750857120594846 7.430259603337871
Ru 7.824105590158728 8.277319587531407 4.92627216177038
Ru 5.55459230503562 7.745941003441084 3.4915462276964666
Ru 4.304913806468679 5.851930025481646 4.720383805454489
Ru 6.8800727689164 5.971808823848102 4.258359642786521
