11
Energy = -71.81807065 eV
Ru 7.263878486052507 8.913349432845335 9.939053812552311
Ru 8.803491552165575 10.289582446834782 10.892535019458302
Ru 7.570897449812275 6.710513560106025 8.643334727108014
Ru 10.007239482490847 10.340198072950512 8.96823099356623
Ru 8.539883939923403 9.024583471493823 7.857757969660613
Ru 9.754848181986477 6.950148882364055 7.4356835362540075
Ru 9.7468433543596 7.0737261728954985 5.120924651272359
Ru 7.691499067192442 7.3511325065997335 6.157356324114748
Ru 9.519820888547434 7.96475019865247 9.862770835782959
Ru 6.017911785170798 8.5101134095561 7.779607061091751
Ru 5.630086690392035 6.321699991935961 7.263459953222885
