10
Energy = -64.06408854 eV
Ru 3.116680817895582 5.475938545195941 5.156739977245121
Ru 5.3388285800311674 4.585046175943147 5.792428060441187
Ru 4.537466796051932 6.486521132091729 7.087340640621795
Ru 8.761431653876576 4.268956562603225 6.844050431947256
Ru 6.797507398037744 5.618468188270199 7.587577470946076
Ru 9.025870766559407 6.521197339906306 6.9902581694149255
Ru 6.741924646406139 7.662430104646979 6.311592735120028
Ru 5.374187257176521 6.567570252280641 4.3762620844992535
Ru 7.542790479872065 5.684843967923474 5.1892231974854255
Ru 3.3771339293301494 7.77680455138737 5.2686670370904976
