11
Energy = -72.73921319 eV
Ru 5.305918646358658 9.431121392325295 8.52252352338679
Ru 7.775436713778393 9.233820942648949 5.843797395928971
Ru 7.415831602708316 7.20102369932297 10.614269456287953
Ru 7.535718292998004 8.080312030745022 8.133836612840826
Ru 10.98329322214946 7.508748538901754 8.195571340457871
Ru 9.014825999395022 6.140068309387711 8.78313860082537
Ru 9.189561499088713 7.104653363065228 6.5262884153703995
Ru 9.34777540163458 8.361552551037516 9.78016850375698
Ru 6.98438678811241 10.543092086626922 7.474614415501228
Ru 9.569879707757885 9.334960802975171 7.463300457939224
Ru 6.691368740621984 9.283401974059954 10.292752475486376
