11
Energy = -72.96826963 eV
Ru 7.06654435115684 9.470542095033334 6.326598074997079
Ru 7.301754476166082 8.507872626522117 4.225811502369893
Ru 8.836727756548559 7.690316974335639 6.0038384527633655
Ru 6.421583741958418 4.6263295910096875 8.852679434217375
Ru 5.616419632805768 4.988754672017022 6.194044432638239
Ru 4.895262576340495 6.384124527260644 7.993605264175861
Ru 7.409115529600587 6.1055297703829 4.802084182140549
Ru 7.843312257719556 5.326776779991819 7.084826996634653
Ru 5.58568516220939 7.380009007714433 5.61634481589986
Ru 6.617585878731836 6.675532067691106 9.835141697690185
Ru 7.058079562501164 7.496282800272985 7.717096072211348
