13
Energy = -88.98325711 eV
Ru 5.603551646113514 8.892067174206941 6.920763741393139
Ru 5.603545215604662 3.81656381755625 6.920764813144739
Ru 5.560372235852044 6.354318175260162 6.999634201371171
Ru 7.604034658960585 5.053949000927828 6.296069012918387
Ru 7.604037874214758 7.654673416823942 6.296062582409789
Ru 4.250190725494906 5.032826576741219 5.27135877180438
Ru 4.250196084252156 7.675805486773336 5.27136520231298
Ru 7.126353268843775 5.146489523154597 8.644000893404499
Ru 7.126357555849423 7.562111459568306 8.643995534647374
Ru 6.166232338652912 6.354319247011637 4.534607560680403
Ru 6.293376366155607 8.803733468373922 4.513134083549028
Ru 6.2933731509014335 3.9049007386437076 4.51312765304043
Ru 9.124432489123095 6.35429566847994 7.781169774597502
