11
Energy = -71.69067905 eV
Ru 4.0177697978114 10.688244748325948 8.064738561249515
Ru 5.703506124231727 9.457393094226845 7.8734368140949025
Ru 7.708221305119786 8.772399723909597 9.254424315203275
Ru 6.609724789411239 7.74373423741609 6.250129841013988
Ru 7.581626628541181 5.5540694668718595 7.042688336506216
Ru 9.071252318888314 7.399726873455131 5.866305734848207
Ru 8.447747036895192 6.364528719496307 9.410315792746072
Ru 8.102838695983579 9.429205884284528 7.006168566879561
Ru 9.936601236684693 8.209648799195511 8.234086600776687
Ru 9.909357486695601 5.9027819065328 7.5525163976951415
Ru 6.216987028620892 7.083803419070906 8.498842700328128
