15
Energy = -103.67708634 eV
Ru 7.615749328023648 6.74146255557933 3.077612876217786
Ru 5.600501642763046 5.473814725881858 3.1253832946094593
Ru 3.025208797295709 5.512068835501562 3.7605430037289707
Ru 4.333746763411825 3.2835262839675363 3.7372686200173795
Ru 8.688128437867336 5.25285227232594 4.397873883644996
Ru 6.008826743709481 7.213715706497228 4.790553460684303
Ru 6.746877903905746 3.8654188231202276 4.530470571516398
Ru 3.4306354539904897 7.219616060893481 5.395051203486438
Ru 4.742633971622529 5.112587912096743 5.506801066570466
Ru 2.6812331072845392 3.7922408287157463 5.645678071390412
Ru 7.152392095972447 5.605834833240207 6.198333419441805
Ru 4.979431197369906 2.737193719904928 6.1706811122541705
Ru 3.0864939468485266 5.474578846913137 7.278729677760052
Ru 5.188000733849811 6.945371785384298 7.248944020281986
Ru 5.389366918259732 4.4389438521522475 7.805302760570023
