14
Energy = -96.07861363 eV
Ru 5.037189959130569 6.569609447933552 8.202951900681398
Ru 6.210052114487748 8.575050880193716 8.634214450665253
Ru 7.789954857780202 4.868551832687926 6.6076556047030275
Ru 6.043286991891263 4.235482298333178 8.279527044875412
Ru 6.954261389969985 7.287035612464299 6.636082675859339
Ru 8.375661148871396 6.51309779530214 4.758627477912364
Ru 6.3825500358322715 2.9345514609126284 6.112932438253349
Ru 6.952885949649477 4.596641075663393 4.267785811197181
Ru 4.284233636979072 7.613340090875905 6.059296238699024
Ru 7.463570081636047 6.151197298412958 8.777846196622425
Ru 5.559656000746963 9.434979839213163 6.512575937249152
Ru 5.375286885552718 5.1588279438187294 6.086341265977508
Ru 7.089229308492997 8.92370445286978 4.761988548934756
Ru 5.921987744566162 6.920592447136594 4.3015557081340905
