15
Energy = -102.02094453 eV
Ru 3.187409063967037 4.897039347052199 3.3888106288815716
Ru 1.8198629631439474 6.6524423132371515 4.452201438250254
Ru 7.597547501250594 4.640283671832603 5.993905385892167
Ru 3.983630207893424 3.0694551982436886 4.866195136169734
Ru 5.41794675122611 3.8816379499301625 6.748484324539873
Ru 3.5409856057219713 5.508750564896775 5.818490378813876
Ru 5.754484102241814 6.466130881150968 6.432969472468536
Ru 5.246166785872409 5.634195397414702 2.082119088963521
Ru 7.412189433575258 2.3953969360867506 7.007084927965204
Ru 5.5833714703921 4.970783705223711 4.442501507079058
Ru 5.889999309568678 7.268696843687946 3.9362632941513103
Ru 6.503856937865684 2.664920310233631 4.81570835279156
Ru 3.916039863741024 7.802333452324557 5.302807468625142
Ru 3.604349046614271 7.225573487905821 2.84912419320225
Ru 5.0479891318861645 1.4281881157402576 6.369162577167022
