12
Energy = -80.25445866 eV
Ru 5.635129973769883 6.2861755274171935 4.736493932792446
Ru 6.155961001218738 4.953332702835383 6.854845240252458
Ru 5.765969288030211 5.928653534122282 9.114654457544479
Ru 7.602212712084899 4.794803352182383 4.855807340414665
Ru 8.209892681904067 6.426324575843872 6.730270332275061
Ru 7.988279232405446 5.05973333754716 8.702404785320091
Ru 6.004579357116136 8.765463826359905 4.889621401988307
Ru 5.787128653043237 7.361806888217197 6.995998812955338
Ru 5.247116967073533 8.415229513484451 8.959408821636822
Ru 7.867681228778218 7.175476031059642 4.415345974715047
Ru 7.727668916321698 8.827932992500752 6.491075683760864
Ru 7.5819350912777495 7.578622914966834 8.827628225854832
