13
Energy = -88.7294087 eV
Ru 7.5025381436125125 8.436768803850894 5.557406824269751
Ru 8.49532593712686 6.197067977235795 4.9342712412930485
Ru 6.575582896644574 10.48271915885713 6.700852446740401
Ru 5.523841880694452 8.243019071678606 6.954059122909875
Ru 6.097565522853369 6.448790990629284 5.406306095923361
Ru 8.947458545315039 7.166259361010569 7.083770123415128
Ru 7.745514960770587 9.164760612501038 8.114406465163881
Ru 7.381316365962642 5.239170358453744 7.059837791111351
Ru 9.931954922922525 8.282369445846447 8.960815833563736
Ru 4.905657040983759 5.847722832761035 7.472805403218278
Ru 8.886180756144794 6.1012187758255605 9.299736988241262
Ru 6.65387271018786 6.938470140828141 8.708837578119066
Ru 7.943670378413783 8.093417631578816 10.364140987770654
