14
Energy = -97.45974144 eV
Ru 4.474050521768384 5.379807880775843 3.6430813257550527
Ru 4.487001286150053 7.643422928859084 3.6347776401997827
Ru 4.867917527057597 5.422371115479619 6.047158646938703
Ru 4.88047105041832 7.61396555512951 6.038947764417906
Ru 5.414696749130627 5.422191241989537 8.600282359482337
Ru 5.42744213478095 7.626864779405099 8.592013704001964
Ru 6.7163056351308095 5.347781139133733 4.437161059921212
Ru 6.729645216716048 7.655352857489864 4.4285333568140155
Ru 7.19556895364684 5.348175274545297 6.974871341956459
Ru 7.208937277167952 7.668237314269117 6.966182592893246
Ru 7.75239441224772 5.373725944611869 9.375718800091363
Ru 7.765722944555235 7.653884048738355 9.367345022833007
Ru 9.329143384306738 6.498804210472689 7.700430921891655
Ru 8.897904787681814 6.492617589859213 5.340697343562524
