10
Energy = -66.27132747 eV
Ru 8.931822734003042 6.305612682493999 7.454445780888635
Ru 8.550255156731403 7.972770300386115 5.686355395050758
Ru 8.061113719719527 5.629084179124474 5.29686526818121
Ru 7.1101306777339595 7.887929062819097 7.63469770593629
Ru 6.549446686307892 5.511766684959948 7.247388139512526
Ru 4.647287489379171 7.079209917468292 7.411363368151298
Ru 6.158915174690429 7.1964854431026986 5.461061055316436
Ru 5.598227667587133 4.820324770205495 5.073635441829411
Ru 3.776535901088088 6.402806452461153 5.253792718314274
Ru 4.157935628185102 4.735681342403699 7.022065962244264
