11
Energy = -73.37135358 eV
Ru 4.783584239042333 5.763508273659756 5.177245128352309
Ru 7.194915486535773 6.346362813604832 5.521118056781079
Ru 6.9202113145008575 5.834611120156999 8.021859457728125
Ru 5.689987735049354 7.938253637138146 4.306874773899836
Ru 8.74837019073774 7.246595207879811 7.2517822798604445
Ru 8.697597051713153 4.778112283141743 6.693871873861423
Ru 6.252243643679949 4.192600889068091 6.350252581190781
Ru 6.863322292845393 8.274747793441831 8.458552761265112
Ru 5.24192367220023 7.596963317747183 6.703337796435323
Ru 7.25854017043417 8.790835911173561 6.068457378282887
Ru 4.51496359731885 5.403068131408064 7.612307322038014
