15
Energy = -103.05793882 eV
Ru 7.1097013054302804 8.567415232935957 4.834306500459832
Ru 9.29718008109678 8.43584254491716 5.682514811073169
Ru 7.928014966246235 6.286929302484798 5.597105332149989
Ru 5.691111402362253 7.183183308325879 6.3449973618123945
Ru 6.408156395999479 9.594237497559034 6.854269000846314
Ru 8.227132901651697 10.682412245617456 5.603468688144327
Ru 6.061728331642775 4.767537405766469 6.439856135843195
Ru 8.23074379492444 4.493089615789339 7.368219792331909
Ru 8.62460725369633 9.38996998491594 7.710364657325333
Ru 4.614401865281461 8.367388117388323 8.203706177912514
Ru 9.079704217761526 6.885830067354134 7.717456531590836
Ru 6.914029436489159 7.83515363424105 8.645712061775392
Ru 5.362360793996758 5.824409248355358 8.470446576079837
Ru 6.323966486735613 3.554222845022209 8.636494825725086
Ru 7.59282890942411 5.5980470920661975 9.356749689668906
