14
Energy = -96.12202859 eV
Ru 8.64232388945234 4.470708152073659 4.984549800768872
Ru 6.373518436512694 4.804475478946794 4.281261484507153
Ru 4.779767227490196 6.257255269984439 3.4130158671553064
Ru 7.732242692312066 4.187757386158381 7.096276934473384
Ru 7.632887453529811 8.92816708477777 6.025657884559198
Ru 5.782388142688127 7.9856547571840615 4.692865144004999
Ru 5.549418233088205 4.909951938716799 6.4254963943342505
Ru 7.888740122183086 6.728512390361172 4.916069723275701
Ru 4.066530886157054 6.5577493186491695 5.786742004051102
Ru 5.504855690674991 8.102717379689405 7.102711717100621
Ru 7.405799454310333 6.691921089830775 7.18732846200313
Ru 5.350179046256074 5.816909695823124 8.601711618654715
Ru 7.5977353800969665 5.348506789148481 9.164235707865718
Ru 3.5265309581733177 7.222175064847615 8.119066454777327
