15
Energy = -101.79113394 eV
Ru 6.092520399122337 6.515915987325009 8.105207346031996
Ru 8.531126595956522 6.94908171711236 8.674176145052561
Ru 4.936739147480988 4.273755752757172 8.41412002432191
Ru 7.48836152277994 4.622327306620405 8.322348314899326
Ru 3.855988840903952 6.064646182316569 6.893396970490953
Ru 5.847842173480221 4.753262820757578 6.201106913332142
Ru 8.02524859652665 6.3705799981883295 6.3570681747718165
Ru 5.536133990156858 7.502418807903545 5.65182364414621
Ru 9.577319542311908 8.18527511337838 6.632166924909454
Ru 7.268191428458163 8.604539455980609 7.140998445353479
Ru 7.766180824380276 8.203139494653824 4.681642524179757
Ru 5.491712889910747 7.797962230544433 3.3173223585916416
Ru 4.32731812217957 5.641921053594034 4.433714356390543
Ru 6.804566903626144 5.9442731734157235 4.179729197949929
Ru 3.6539450133987375 3.7740969386028804 6.198374650250906
