10
Energy = -65.64491428 eV
Ru 6.579863659460933 9.142271527289727 6.286588327527004
Ru 6.064410285192578 7.2385850362421555 4.801892289155136
Ru 7.614166072428799 6.948753595444593 6.680762783067193
Ru 5.524236562837036 5.328233088987485 3.3304167327564818
Ru 5.216385897476289 7.271569751692499 7.112296916161946
Ru 4.692552610834327 5.382025466970981 5.6456961629087825
Ru 7.087654790830333 5.046388322357176 5.206845108547722
Ru 8.66350644618298 4.752723865432441 7.075791517370483
Ru 6.260990375636165 5.081018258364143 7.517006642281636
Ru 3.8677944656563272 5.386893783404942 7.968682555846881
