12
Energy = -79.47249764 eV
Ru 8.089389983371687 12.10799877366724 6.090739697495801
Ru 5.4999349342246004 6.127489051137145 6.278318438208425
Ru 6.912724640523022 9.113953661211125 8.79613012925841
Ru 6.721521009458651 8.135070221608101 6.5753769989593325
Ru 8.242113373569422 10.212258931803618 7.063467578073888
Ru 9.26740528520305 8.461411268452798 8.815759532361785
Ru 6.217374190135708 6.7822173909072685 8.582800674236159
Ru 10.31191347252071 6.1980764944437094 7.730807531331044
Ru 7.345465434793806 7.69757834207672 10.733775745434043
Ru 7.850139145973589 5.970164062001872 6.905909941952652
Ru 9.153548897852636 7.993500011640396 6.478237525817782
Ru 8.48737900853544 6.247083090183907 9.234127419923645
