14
Energy = -96.24975236 eV
Ru 8.541104187631179 6.48321250923636 5.014466123885578
Ru 6.228647125042987 5.408634806173088 5.046352512785049
Ru 8.166014214428621 4.322515384498881 6.302852227149375
Ru 6.579274739032966 7.649156236755495 3.886359935080891
Ru 8.35236642736179 6.472732327102708 7.446083163235198
Ru 4.240093598839964 6.655690952806163 4.055959067738921
Ru 7.432996684666604 8.390008893106614 6.0498929132493595
Ru 3.867385616509765 4.497983817353272 5.352391790805098
Ru 6.78371927529017 4.648197587979414 8.279628578191788
Ru 5.828772885507989 3.3285811669679752 6.4696533887960115
Ru 3.3856176796017006 6.67233289416297 6.341745445258782
Ru 4.2992130857543245 4.751880152037072 7.737604128998502
Ru 5.838960782187412 6.657697741907827 7.021827438196701
Ru 4.95073424646738 8.491794041409687 5.494144592681152
