13
Energy = -89.51987317 eV
Ru 5.03376211828375 6.666800211725888 7.863330540396458
Ru 7.49750063889499 7.124367152809138 7.856962037861793
Ru 4.379989878022405 8.621040076636064 6.708458125103587
Ru 6.536805655510511 5.524611977313705 9.366203013811736
Ru 6.683385794987214 8.814247940331011 6.218655483533978
Ru 9.01119858521659 8.547447458266982 6.696253806717178
Ru 9.17715789189468 6.936373712642723 5.076912645955544
Ru 6.659679355695985 7.264707932684521 4.669135054391642
Ru 4.177494571768579 7.343594297352623 4.789123858281917
Ru 7.755300842090985 5.5689713025292145 6.223697124381519
Ru 5.1439445439656675 5.576246392068231 5.9280435189132845
Ru 7.1676304151771975 3.852978355745381 7.96504295418465
Ru 6.17619777822125 3.489360090070522 5.981200321314881
