13
Energy = -87.61951554 eV
Ru 8.900679045343491 6.595459127244897 8.180891899468856
Ru 8.405223003121225 7.115049717123564 5.881642246951639
Ru 7.621482120737172 4.930221317354459 6.8342276246231135
Ru 7.774047890940871 7.686179567646621 3.6151177459011086
Ru 6.510418880427419 6.961823142677904 7.652077233076358
Ru 7.054600960904578 5.4913418691249145 4.53083811008032
Ru 6.143328091778247 3.3483036455926496 5.523987382028355
Ru 5.918128177230301 7.545602337388168 5.254234710996473
Ru 5.296250750296161 4.843746148376175 7.382887834461143
Ru 4.645854135114538 6.417564006453166 9.192279915602429
Ru 4.7300522918119885 5.4009993653720425 5.078951017029986
Ru 4.016179902465749 6.948864525265999 6.917461262827566
Ru 3.5225075949876627 7.528327675594664 4.626189699461473
