15
Energy = -103.15059975 eV
Ru 5.266912691692497 7.038657292111202 5.0467074740522175
Ru 5.611019248900509 5.572927319931186 7.127076102145158
Ru 8.142295501192784 5.593487639817221 7.158883078427362
Ru 8.512854966181672 7.064813819356299 5.086740201801804
Ru 3.547314289252618 6.850564425674773 6.7392699329939045
Ru 10.19248420200715 6.905113693980591 6.820585562130576
Ru 5.587084823554311 8.064544504675096 7.37825408411733
Ru 8.118497342124167 8.084875345313156 7.409755985131266
Ru 6.874476147402952 8.779612455435236 5.194517946793297
Ru 6.829605513973848 7.825234831160726 9.471920820768121
Ru 6.90670511066213 5.332993063748044 4.847840571875981
Ru 9.099133052302017 6.65587090322379 9.19186437907113
Ru 4.587836277719059 6.619217476405774 9.136077311174674
Ru 6.911302299331066 7.239607414326869 3.201270182545426
Ru 6.852256781286666 5.412258062423627 9.229014428070458
