13
Energy = -86.79204044 eV
Ru 10.187713086198043 8.611787822370767 7.241307167376647
Ru 7.365298738533504 7.499363545936518 8.409541109146234
Ru 9.7996314816595 8.411192343993218 10.334427644227988
Ru 7.998599419873943 9.039914013700642 6.282452804107129
Ru 8.464224710614793 9.612670768230279 8.688925761400501
Ru 8.232985468996013 9.915397308862978 11.18774819198584
Ru 9.572538745950819 11.634671982839551 10.615222389462362
Ru 8.374501254147681 12.080808569207786 8.754398970803713
Ru 9.253749487730094 11.075838265990965 6.915855661907809
Ru 8.782866758977365 6.737954048936327 6.309457316400849
Ru 9.585472635801429 6.526675935788302 8.478877463979718
Ru 9.482674851662056 6.048094925592844 10.698860386556499
Ru 7.518100456083605 7.423987285052879 10.70128194914793
