12
Energy = -80.06620953 eV
Ru 4.673029953597003 5.620774042983327 3.7638373651017654
Ru 2.8181182186805396 6.761977446015188 6.223411414292553
Ru 4.8537853468031775 7.434285306166898 5.389621668471067
Ru 6.719982560280834 5.5164836120714025 4.7738071394710095
Ru 3.7098395343923642 6.344402969590618 8.273681195062666
Ru 4.782080499736845 5.151478960218947 6.2642472949692
Ru 7.814654798301099 7.426475457439503 5.82212939005615
Ru 7.543783578795767 5.40918973333912 7.1783381710360175
Ru 8.621902505988933 4.3159598091540605 5.114606507849705
Ru 5.761301108961989 7.0678727321413675 7.620754665480029
Ru 7.8722313119458205 7.680498879656991 8.253684081853663
Ru 9.68496219633215 6.111298026717796 6.022215416244156
