15
Energy = -103.23965314 eV
Ru 4.521584680980833 5.61298400128765 8.129633995404852
Ru 6.242868718587554 7.870797855560667 4.557035072618187
Ru 6.745451787864242 5.727337565011614 9.233244285871796
Ru 8.52034080809006 8.149736986438452 5.356690286186282
Ru 8.77269050521826 5.759122673481766 5.565874755731784
Ru 6.7169204367037825 5.517905593810561 4.324673790372974
Ru 8.718499450642343 4.844984017516897 7.98749149511307
Ru 6.300843008611443 8.172106492103014 9.131264841384775
Ru 7.930510977729811 7.155651847984193 7.5348653182376415
Ru 6.583120388070615 5.209491420202655 6.774026153669935
Ru 6.9462884248281185 9.45280398372731 6.829733577853143
Ru 4.473964778671424 5.86900998763992 5.42639476503085
Ru 5.52979619955998 7.51450789745362 6.822956001946682
Ru 8.387193451712248 6.926826859798844 3.2849539041674207
Ru 4.456077101337979 7.062883562843079 9.88731247501958
