14
Energy = -94.33371263 eV
Ru 8.004520396461482 3.3776203536732115 7.345460095615987
Ru 9.039871010803514 4.508690828354138 5.299420354248996
Ru 7.795303416852436 5.838393367862026 6.947451156098669
Ru 5.880591290500087 4.608315479110833 7.885710617899356
Ru 6.632160883270565 4.129520916649413 5.49049376431856
Ru 6.974006058908607 8.148473118003709 6.113294399637899
Ru 7.458991418766255 6.268210688738277 4.4639422017086465
Ru 5.9736269412718945 7.1393341484690165 8.333829972421888
Ru 5.41484892319524 6.252665178699458 6.044444637000611
Ru 5.205257334482836 5.387955081695912 3.711023433207976
Ru 3.72934877553189 6.247039292461675 7.792315131407215
Ru 4.3888424728322 8.41167167902481 6.591990331709345
Ru 5.3688182352825 7.904199678484716 4.1769337819081676
Ru 3.313084586132372 6.689729335377272 4.983392839484502
