15
Energy = -102.43606258 eV
Ru 9.72972801999563 5.242586229632061 7.331927122435008
Ru 8.458773664035427 6.381496680847396 8.81469999974515
Ru 7.159657304407778 7.603306010541967 7.270654425881919
Ru 5.270332813260975 6.971713811860469 8.833984051823453
Ru 8.164345088045001 6.1326233133289065 5.680560683178478
Ru 8.006230426151369 8.524246149154589 5.19313574537649
Ru 6.656247624111951 5.161800208827513 7.580564604775158
Ru 8.162525118121176 3.716062576407926 6.585443344232996
Ru 4.7533308781525845 7.827576283817745 6.607116786157773
Ru 6.087428996785222 7.615446273063253 4.435248062995833
Ru 4.348328773370593 5.480236928523756 7.03700723104401
Ru 5.971871933701329 4.847501083540073 5.228933860344113
Ru 4.00439821641984 8.60644743688209 4.1942409714732
Ru 3.878934249283318 6.372127848712058 4.768244901287058
Ru 3.8842231900270354 3.987304300186612 4.963273840203817
