12
Energy = -78.80872692 eV
Ru 7.490082314160982 6.445146965348637 5.0105344212626415
Ru 5.548423715658316 4.640240082303837 4.618887458998314
Ru 8.212661926018187 8.214086065364981 6.704332955299344
Ru 5.94809724342194 7.814876810108102 6.521136828100217
Ru 7.098651078126195 4.498901729190966 9.065760197404257
Ru 4.363865531509289 3.22236842285304 5.949121325375766
Ru 3.6938762030868926 8.216533788944123 5.875866773263751
Ru 7.018582865089383 5.48381230169562 3.022236291548509
Ru 5.737692692057683 4.45067526287641 7.258699479504563
Ru 4.129601482795768 5.971999082499839 6.2891170492284605
Ru 7.63217867534904 6.10750056399495 7.489033977833661
Ru 5.251004492826441 7.055110312914493 4.326372461246115
