14
Energy = -94.98967087 eV
Ru 8.067830059072014 5.704455034739376 6.076533891950672
Ru 6.707635898351913 7.78347991763332 5.013718852047288
Ru 5.746468139600827 6.065390765189368 6.639642660944989
Ru 8.729895591467713 7.980548325234701 6.2730469012935774
Ru 4.97803565786283 4.503399655236024 8.20712290290251
Ru 9.660502723401398 6.468410740139245 8.073391096058446
Ru 7.298083658354119 5.187633771974989 8.301906992043476
Ru 5.460780291015801 6.9014163378379285 8.972547839556722
Ru 9.932697606317502 8.68660792586675 9.012618732399405
Ru 5.568766393747442 8.48918654640893 7.07455079881406
Ru 7.8181384958428035 7.182436681541763 9.519702192665292
Ru 7.379270549993358 10.053261068024481 5.890878072581377
Ru 7.594131102895594 9.090465240359094 8.153180601127358
Ru 9.595264964038378 10.113350786570203 7.1621830708455585
