14
Energy = -95.19272792 eV
Ru 3.953208376733352 7.861391472299749 5.5838452872358015
Ru 6.267179254248183 7.236104719667136 5.301770704515664
Ru 7.984334702940158 9.275457219271185 5.44736626253701
Ru 4.284076022150544 5.582524793089867 5.638612683634785
Ru 8.838685621654665 7.216441972514022 5.232015335580227
Ru 5.39135936556561 3.781541032571208 4.595206901175454
Ru 5.1458464433481685 6.817779480860617 7.577333866591104
Ru 6.8776603121055135 8.624750308411443 7.4061260352521066
Ru 6.0240826770561755 8.293738883096571 9.527056052104944
Ru 7.237232086682996 4.900440479468368 5.239559568074511
Ru 6.715036866798818 6.116003684533191 9.473368640078117
Ru 7.658931050914316 6.3429778041638265 7.370089280476572
Ru 5.851587950751624 4.460774852370162 7.153933323874015
Ru 9.420082877305482 5.122633463517343 6.066827310088346
