10
Energy = -64.881456 eV
Ru 6.023927490167721 9.668981505759495 9.789143433108455
Ru 5.120191656746206 8.107443250447915 8.439984216085502
Ru 7.01460379135053 8.525983623183112 6.902151464228344
Ru 8.107865082426775 9.075847269711627 9.04974894351441
Ru 8.250993575169622 8.630784335829032 4.941352176465768
Ru 9.614341736943446 8.86543737513303 6.986244489913026
Ru 7.182421735097166 6.8064717076550005 8.617232233380367
Ru 8.565399194823877 6.663358732454984 6.623459028165816
Ru 9.685805470368585 7.117253255963278 8.76103254469907
Ru 8.545200960269009 4.896489840489341 8.203494451431913
