11
Energy = -72.82972437 eV
Ru 7.755505246921873 5.423823022225812 5.531980989758581
Ru 7.890914476919399 4.626079134028904 7.86357349119452
Ru 6.098877547643023 6.418104365744185 3.880113578184738
Ru 8.457810206677427 6.878518595095287 7.427606286297457
Ru 5.800078866676701 5.204216675795224 8.346725847385585
Ru 5.250833240260905 5.729165274379655 5.8922987362437995
Ru 7.079314492090414 7.833970255302251 5.488849532643964
Ru 8.50033560533214 9.354844728137923 6.294341583691234
Ru 6.129542740424892 7.58399194367538 7.70681870607219
Ru 7.6727539959365645 9.098996491073237 8.397002647314237
Ru 3.9360673273812825 6.440050169142438 7.747227927491431
