10
Energy = -65.91025701 eV
Ru 5.907858450937978 5.357984524087471 7.914266240812093
Ru 7.115869311995977 4.6163783279691915 4.906249515432746
Ru 5.082255067175668 5.465098312169757 5.6898767840450235
Ru 7.947866460526704 4.437839368041949 6.995999445254607
Ru 3.6042025591052487 6.589862154120451 7.165945867924057
Ru 5.561117539309271 7.720583993977446 7.081889724198519
Ru 7.988314610748295 6.712014087252621 7.326611189451316
Ru 7.067297263265767 7.015767625886077 5.165181073966922
Ru 8.546012849073517 8.713297832658695 5.988405080076649
Ru 7.050652135607781 9.27307474706934 7.630900896016014
