15
Energy = -102.98878591 eV
Ru 5.785748650239291 7.868380226577463 4.309396277710684
Ru 5.925108711530315 8.628250114148376 7.5811172577747294
Ru 4.083785103923571 7.668412331926404 6.003082253556326
Ru 8.012700556711199 7.930478418496691 5.644597934282133
Ru 9.70306278337277 6.6242709796696815 4.558339453713769
Ru 7.41028658062711 5.943304734665791 4.240436300680725
Ru 4.917876567971599 5.506800572967526 4.591956120962024
Ru 4.544590333182624 6.650738735317541 8.378867986665613
Ru 6.145811757268845 6.415298832942545 6.48460779548034
Ru 8.580368018818184 5.586838299141606 6.43554274740075
Ru 4.642569166690119 4.475967058917574 7.013079757414459
Ru 8.01137473737571 7.327357724361944 8.093799336941546
Ru 6.3557870363130595 7.477517855387631 9.785203958446218
Ru 6.672482445866601 5.2581091875256325 8.578344287534668
Ru 6.634235019854998 4.023901711329136 5.770462844578329
