11
Energy = -72.71867695 eV
Ru 8.478113181533569 8.166579600669728 8.118505387236352
Ru 5.2043261276512744 7.30000527251888 5.96287263286422
Ru 7.169297292139102 8.94767936657245 5.938116503056174
Ru 9.27596920134514 7.526810499872659 5.99294440609507
Ru 8.61548034800647 5.330600380557673 6.353988056364095
Ru 6.077293882840579 5.079138854178922 6.267745776234159
Ru 7.236848934568838 6.7537111407851205 4.742176076568568
Ru 7.372393326301275 5.9164422938525805 8.288249848589153
Ru 6.0822153795241185 7.993091393416615 8.053638374672229
Ru 4.694911466875627 6.023224528622052 8.091098685792357
Ru 3.788591283073858 4.961192524977669 6.173695432264546
