14
Energy = -95.47879597 eV
Ru 8.933235729676388 4.4685944613197774 6.492386596647455
Ru 8.812303443357449 6.192160801688264 7.999851479443322
Ru 7.430328279718049 4.454878948807334 4.374417451912548
Ru 8.405309871660453 6.537540342563587 5.376352095246425
Ru 6.880507521726455 5.56128205515555 9.127031727140091
Ru 6.495718995549213 5.177096668522451 6.550363199929815
Ru 7.062812606017598 6.806228137489416 3.4684452133687644
Ru 5.156115909433505 5.714677295352155 4.6278026081610575
Ru 5.951691689706431 7.680788685736951 9.29247667539993
Ru 6.831493413444878 7.540131850124354 6.935075092145752
Ru 4.697865630324276 6.313665388297252 7.767085270189752
Ru 5.579486514629829 8.016077624698918 4.937966150308626
Ru 3.503882905710963 7.015246681490592 5.856952803876848
Ru 4.7048321939130355 8.758633657500901 7.259792312574627
