10
Energy = -65.82833852 eV
Ru 8.727840498854247 6.5484133696669256 5.271097414653279
Ru 7.869714416863975 7.103794178780973 7.321391390913615
Ru 6.297612891973628 5.286387024331739 7.117720129560671
Ru 6.5933507516357155 5.678590704171735 4.78388903241444
Ru 6.6685384598954816 8.005647245193932 5.4007520823464015
Ru 4.434261204860623 6.776662552604892 4.93618271509188
Ru 5.1580275973878855 7.410303176714844 7.2101586244107025
Ru 4.596327694821984 4.23393734353542 4.573831400109539
Ru 5.523694686057667 3.1831737930005968 6.369585304592599
Ru 3.917019306953523 5.19692349417657 6.7488553829065525
