13
Energy = -90.52184721
Ru 7.718184772004174 8.298619560156348 6.610761728146585
Ru 8.086405968349696 8.32483266317711 8.986998377837054
Ru 8.465623733750578 8.31528694065157 10.540469269487412
Ru 8.999285591095852 8.289592300949627 7.500652668383053
Ru 9.339721551147338 8.308444125149697 8.991124429596146
Ru 9.676021783011736 8.314512085273469 11.418996396722767
Ru 7.704084796224655 9.542360757452325 6.615055319731697
Ru 8.072921359990405 9.512081671979454 8.991124429596146
Ru 8.451249539319148 9.516267125051533 10.544718224157828
Ru 8.985107927545993 9.576387061805487 7.504991177133376
Ru 9.325770822138407 9.552094833759343 8.995467747422733
Ru 9.661468576086738 9.541076044242127 11.423239038640656
Ru 11.040373892955943 8.434666143972976 8.420381879523228
