10
Energy = -64.7273679 eV
Ru 7.47539655000692 4.125112125615356 4.57160152010307
Ru 7.320006947942102 8.774775013722904 5.317730606409792
Ru 6.8160398158097015 7.36532165127827 7.192243630529507
Ru 6.980023828596081 6.459507601789794 4.807200944019525
Ru 7.174416657015319 5.791211798021885 8.966777968897746
Ru 6.901229843259867 4.842422277040077 6.785023736381633
Ru 5.087422756633922 8.01754649680493 5.456237342074306
Ru 4.982938348650503 5.855792002694621 8.096681259230277
Ru 5.202836142186864 4.650202307028253 4.908546514186145
Ru 3.9178441832195148 6.1437527984085785 6.083220794585948
