12
Energy = -80.9837599 eV
Ru 8.814704432204698 7.40623615554098 5.4110741029929565
Ru 8.94549752869362 7.340115493409523 7.915044780789001
Ru 8.891502508474998 7.6979386293557575 10.141196626594958
Ru 6.613352939491661 8.377828699073518 5.368196961127962
Ru 6.712538085714468 8.102559044279376 7.7007258165957975
Ru 6.605650560218664 8.4510504275178 9.968860751537454
Ru 8.357261258380822 10.123251903548073 9.952425432289228
Ru 8.489968430905781 9.74239835789459 7.693101562038484
Ru 8.239632460460594 10.005743074800025 5.457737580629649
Ru 8.671469417187538 5.352781782630409 6.3788808494107725
Ru 7.05044556664889 5.777391879158089 8.101480768892154
Ru 7.081434852056071 6.0961626864720015 10.384732621055015
