13
Energy = -88.28943646 eV
Ru 6.074175698781345 5.537756547743812 5.310308294372669
Ru 8.462211551675558 6.677961758678304 4.8580599630128924
Ru 8.00911738650024 4.649796730664582 6.563361803085607
Ru 6.571628552334908 7.742231703076469 5.875283944719811
Ru 8.476600615976052 9.10964449064767 6.559073088634304
Ru 4.50286878661294 7.056379546774179 6.864136106030111
Ru 6.243155209194527 9.33873802647061 7.697670198448776
Ru 8.681439542525046 6.772566841302635 7.243315490264642
Ru 8.106189674459014 10.794918957799975 8.27012035698317
Ru 5.818243724728655 4.865221273906082 7.673899548757149
Ru 6.2982410323124824 7.011405967794239 8.45102551546546
Ru 8.21570728657331 8.447047763035052 8.96732322800663
Ru 7.988670395388384 5.444579849168986 9.11467191928125
