14
Energy = -96.15456826 eV
Ru 4.847231950644899 4.30069690847805 2.483559993017528
Ru 5.7798267703125825 6.571282863334468 3.084276664431902
Ru 3.383119084241706 5.7667166567323225 3.634483947075467
Ru 7.161187080636678 4.611013481346473 3.593756558151279
Ru 2.8533930633084 3.300997777076028 3.7319812262363783
Ru 5.2362827009744 3.004317819679659 4.39444269849081
Ru 7.402052932392278 6.8070307971979656 5.061652517591205
Ru 4.99860147455787 6.628117395517714 5.376854676703812
Ru 3.748524642267047 4.477553879491524 5.670222427444925
Ru 6.351570112951058 4.683760849449884 5.825446045273913
Ru 6.335096113466504 7.709861853840816 7.141503157076446
Ru 4.913145843420104 3.8075188035285885 7.749338696380431
Ru 4.098004865891771 6.19713082848083 7.625472336694511
Ru 6.3897422232928385 5.631778944203527 8.124787913789675
