14
Energy = -94.96413016 eV
Ru 4.513249239407927 7.417124734045598 2.8673191181990307
Ru 4.786420530799507 4.861150170662007 2.7561337405071433
Ru 6.53023549456613 6.442210536545964 3.7068040931977677
Ru 7.035605165534674 4.009419540395587 3.9112600548505543
Ru 3.0826385713615387 3.5044211069539197 4.3671902683067625
Ru 3.04540103469901 6.061093006559107 4.177618079948272
Ru 5.281278897418707 2.435017902969881 4.635997525108256
Ru 5.062669208467529 4.908707510807518 5.181626752655728
Ru 7.118818338505111 6.034086063017184 6.092543788651725
Ru 6.677987780985481 3.4852719719402803 6.458813819865492
Ru 4.8718489710284745 7.33086601070921 5.416897049823841
Ru 4.167925587618731 3.2623094999769964 6.752842275936455
Ru 3.155650623862884 5.690804714972438 6.710681986482946
Ru 5.384434946294394 5.271681620994405 7.678435837016129
