15
Energy = -101.854062 eV
Ru 7.9141446611353405 8.217041175444935 7.329321345110245
Ru 6.535953977090122 6.400552021187889 8.416909118703636
Ru 5.187689814034171 7.91351456990621 6.9813257927205825
Ru 4.17897101271016 6.6834602920037005 8.840160616499837
Ru 8.862586480911956 5.7584413743213165 7.397113537194205
Ru 6.970460013102082 6.460248347866068 5.889282687150861
Ru 9.138867266478359 7.200920477646638 5.2549946674146275
Ru 4.579419122285012 5.437510903433947 6.847781721072241
Ru 6.8715765015574455 4.230334782648008 6.9902539222811235
Ru 2.9407442774512353 7.222609039544203 6.28248854520128
Ru 8.444169734926977 4.68367701174059 5.015848945346869
Ru 4.785935715701193 6.82206075908664 4.694452641094471
Ru 7.162980797053054 6.332053940232244 3.440624286359029
Ru 5.821564987681738 4.582924769370156 4.5396225745384475
Ru 3.420325619972637 4.78962583918912 4.8941390712883726
