10
Energy = -66.71170364 eV
Ru 7.822148639018375 7.4719985327606535 5.656273516226566
Ru 8.545222328616966 8.620614308702633 7.775938107754196
Ru 6.3834725876787415 8.690597006575322 8.5465305695834
Ru 5.778055564440288 8.057170602733752 6.419566617966193
Ru 6.421137866002853 5.89758882813951 4.269146670673645
Ru 8.19511786986422 6.730090227157106 9.017423224976875
Ru 4.550461292082427 6.310695139481176 5.541244896399362
Ru 5.874444494466562 6.191087337851776 7.828136422421452
Ru 7.983902018454683 5.656702403479725 6.982717000493551
Ru 6.383295539632167 4.352501871196623 5.952809235605191
