13
Energy = -87.28409192 eV
Ru 7.077357313677406 6.92160838326992 5.38633749411765
Ru 6.127772271600019 5.983600741694509 8.203506110871762
Ru 7.73943516344195 6.8706224962031825 9.748009727534013
Ru 8.12829686799891 9.052679735322215 5.745696652200187
Ru 5.490298927992476 6.680658227397125 10.579716239885006
Ru 9.039978044148022 7.719353265805371 3.9625010355394954
Ru 8.477001181764017 6.401685857492561 7.376819453181021
Ru 8.588637211849456 8.705720675000434 8.21566895637618
Ru 6.465802587020161 8.892808190619915 9.79205023172842
Ru 9.318001300740212 5.764646928925594 5.250230955521923
Ru 4.486267837697488 7.810264139347266 8.768707621447287
Ru 6.3213990558009 8.317364306346075 7.352205204799483
Ru 10.154792117048627 7.881012419082442 6.235761213435326
