14
Energy = -95.58489968 eV
Ru 7.461578700211757 7.260689457568597 4.473660296731116
Ru 7.487038937584207 5.801286524835898 2.594710483585118
Ru 7.187801819490643 4.750507979215705 4.722086949329127
Ru 7.99634331010021 8.654707191568967 6.4281601560480555
Ru 5.487736595168398 7.695237995312114 5.933087212686095
Ru 7.786854650785084 6.15997930145005 6.655085919410133
Ru 5.325895713742789 6.162827909205298 3.9430295308464745
Ru 6.571542675863501 7.665685526907078 8.176630468636848
Ru 7.517448114053617 3.6368445236254128 6.854866037161911
Ru 5.1690401293289465 4.983886471299351 6.152160748540158
Ru 3.3725188787687883 6.522469055722052 5.550081510443726
Ru 6.317226988115672 5.14985742000339 8.35309408782946
Ru 5.655045654833731 6.620550956104229 10.119179840361985
Ru 4.375981723968439 6.595281380616916 7.8994115963374
