5
Energy = -27.72893374 eV
Ru 8.775156826949623 10.549815266740989 8.833872556405867
Ru 9.38213090986333 8.519294641388019 9.581240033918576
Ru 6.985675853693605 9.204676213742589 8.61153591178281
Ru 8.49580178394849 7.791017472809038 7.554535386253107
Ru 8.170301399152093 5.744450335842236 7.227996275023026
