5
Energy = -27.58872334 eV
Ru 8.591311879295372 6.270154626479836 4.3003664292445665
Ru 7.001567471161004 6.78001962478062 5.463462966077318
Ru 5.335018875088731 5.414537594494162 6.489465828734181
Ru 6.772026753362003 6.829001381871264 7.83321667174652
Ru 4.47815855005319 6.873376418981705 8.048549309329706
