55
Energy = -426.40404973 eV
Ru 3.3581766754595326 6.156838578541415 9.375837407511174
Ru 9.698953437607642 8.032326604761625 6.100383421343567
Ru 7.72431290416561 4.385590683623577 10.34312590248649
Ru 5.588861332456436 5.549314703144142 4.965065678678753
Ru 9.730320097533626 8.181324108359199 8.728521737283732
Ru 7.512541521227361 8.536590159630519 2.22308750695856
Ru 5.466525090714493 5.659951906806671 7.659539925891191
Ru 3.3401760669108325 5.841563095739811 5.981144443778997
Ru 7.536893625062638 8.5588531570765 4.7856837452300915
Ru 7.682311065386746 6.767060626228725 11.4810863356277
Ru 5.6641995366046585 5.88845219297453 10.253255786976538
Ru 7.513344900965673 8.80198743691466 7.396787675470752
Ru 5.504306815596084 10.05817485906625 4.685649768533626
Ru 3.314895431221045 9.526646788503978 6.026507347151111
Ru 7.589969853609194 8.91477023353012 10.011058005239093
Ru 5.3523780808179495 10.25094099402529 7.336163156288949
Ru 7.625519802284571 6.234579966867157 3.6078542746372566
Ru 11.79185122394899 7.232762531678951 4.865670198954051
Ru 9.742856362088338 5.715291501047023 4.95603473662689
Ru 7.5753257697045395 6.367473379375975 6.241860658202788
Ru 11.849346983244796 7.3218751016597485 7.418662487548732
Ru 9.848269909218407 5.690164726658659 7.616449495827281
Ru 7.620778260518571 6.537197094033023 8.870096122682739
Ru 3.2917109987934694 7.708539966933707 4.400097182140957
Ru 9.8233971954742 6.06900036523309 10.197279056351952
Ru 7.503438522005442 10.681120545912547 3.276944802285494
Ru 3.2367966429750217 8.155386748586766 10.780990878835386
Ru 9.535196481196602 10.136774929350876 4.683759075158802
Ru 7.470018933992767 10.976970954428028 5.975863734033677
Ru 5.525531003774562 8.277995474131371 11.392520542762334
Ru 9.585437218557756 10.33940003630004 7.280930645339024
Ru 7.495331562364063 11.142379876491386 8.53745647945149
Ru 7.601818261057078 9.204971866010514 12.555843245097467
Ru 5.514927878499589 3.4377160508193985 6.474905629987324
Ru 11.84644747154598 5.083601828477658 6.271569374439505
Ru 11.809399046175821 7.66757487823329 10.078827704596842
Ru 5.5474701720954265 3.5886212809424656 9.053844305718528
Ru 11.90980030475722 5.3334697812802565 8.954434661476512
Ru 9.696215112050817 8.374218384819388 11.330826080663114
Ru 5.492604537105614 7.747386541451835 3.4915940480341394
Ru 11.70101456239841 9.539261481339652 6.076484665230952
Ru 3.3496219307199913 9.695560971832293 8.968564188230143
Ru 5.317784804243734 7.946369115672888 6.12213147662845
Ru 3.3664687693685296 4.248957240539349 7.809031218618122
Ru 5.548116103033188 10.399585564995052 9.97286282356001
Ru 5.360823019635576 8.115837098917964 8.749361409876013
Ru 3.0956184085872467 7.5999773120799965 7.5585600879367005
Ru 7.584545163470293 11.197183039731321 11.242853523884966
Ru 9.69367873121159 3.535835552180508 6.405730336691186
Ru 7.638713502675542 4.056980846690942 5.066994013507832
Ru 9.604324783956628 10.484849549778525 9.880168196643721
Ru 9.7225527668334 3.7251711170151847 9.070735704754977
Ru 7.594930138646009 4.157344389007734 7.696774526256378
Ru 11.71754326792785 9.733881213991335 8.614855904301622
Ru 9.610495159702435 7.852232767757004 3.521565859756847
