55
Energy = -424.63939428 eV
Ru 2.014806003609477 6.990935550425937 4.942744076108124
Ru 10.735769701571375 8.266379106412748 6.8501094801482285
Ru 8.30146055775158 4.146359780018557 8.212118819449245
Ru 4.91110327053436 2.151031800696766 6.312816624431295
Ru 8.415381562757881 7.798170374641153 7.940246451206295
Ru 5.413733635509099 4.090533010838152 10.293723976023266
Ru 7.574876511816409 5.881238196198035 3.910108489376491
Ru 5.758669123424136 8.268029807590318 9.865610327950195
Ru 8.159425743242553 3.9052796933955247 5.5592014797907074
Ru 4.369157802451356 6.618465695776375 5.843746145786713
Ru 5.02265731392149 6.284677984151268 3.2982861311975937
Ru 5.697002800101695 4.04312961421475 7.788542441275911
Ru 2.810045410575423 6.675984897145437 10.017396807857779
Ru 2.410638814177785 6.325263869091304 7.389161266794582
Ru 3.2071571969170756 4.359680307434163 8.839561218703833
Ru 6.9175945802500864 10.291203214352066 3.850040717929776
Ru 4.484516569349692 10.683042430654472 3.2828087245899575
Ru 10.629023143094413 7.7521597148780135 3.7165475878790875
Ru 5.057865350816755 10.277461147780121 5.655667480429961
Ru 7.182469799497308 2.0915742177231653 6.85080166107223
Ru 8.833084082605753 7.65924851566647 5.389150552812765
Ru 6.7862106708368515 2.2675364120844463 9.218780584564314
Ru 4.314535163241216 2.1506245794932966 8.647416734268734
Ru 5.81704806262903 8.424264200991969 7.321542711707108
Ru 9.65140928271445 5.757123662528611 6.910916604505309
Ru 10.024565789401613 5.511841939875892 4.480855719941637
Ru 3.659533685812924 8.797256141686049 8.63692156325032
Ru 7.000720235885572 6.023684636896135 9.37986109956261
Ru 7.025496854803611 6.105474339019163 6.560931158362323
Ru 7.968376837069592 4.200218153047869 10.71664085648997
Ru 5.077668735672816 6.248084959864474 11.079159979538634
Ru 4.691861203838338 6.439598553045935 8.426736832887684
Ru 11.243205447269808 7.602574896829625 9.099034947082234
Ru 9.607148140949226 10.103699895026166 7.659374777797553
Ru 9.462761347068122 9.894257947205533 4.559631342493262
Ru 8.201959980584007 7.984467021495849 10.562132309157542
Ru 7.215089266300445 10.023624031920525 8.80737302323198
Ru 7.612030526312968 9.89762066400536 6.232695979830631
Ru 5.7169791803579795 8.577563342138012 2.3815692229754664
Ru 5.686424345837298 4.312859030220092 4.937794052192656
Ru 5.071172172356312 10.786650754567184 8.00216952980806
Ru 6.276070445588514 4.134223403999835 2.5628577211943293
Ru 3.5319833652532218 4.273109027797222 6.335459791907762
Ru 9.521712537391178 6.054806718920729 9.484456490910864
Ru 8.7902661324601 3.772897203634097 3.151786774132482
Ru 8.235613516021731 8.22588087797848 3.025048383854541
Ru 7.367846383750395 6.239184531360089 11.974456024262038
Ru 6.90848044908155 6.431879092924933 1.5332540839069086
Ru 6.33752448935284 8.058070506566105 4.77629570823649
Ru 10.01026792650753 9.379123235659915 9.934512799755863
Ru 9.266673450648558 6.057009430843367 2.0389314335221047
Ru 3.021205191822393 8.812407942950959 6.379107858106988
Ru 3.079777618168153 5.029365361268761 4.095863239992532
Ru 6.954554326011744 2.2786961682591795 4.10796593137045
Ru 3.8406249052565204 8.467709047043538 4.053310908618764
