5
Energy = -28.23717108 eV
Ru 7.96106555961972 6.761075379093627 6.547250548923424
Ru 6.178894622103721 5.45791372791385 6.055388589053634
Ru 5.78863435019076 3.5011222562031246 5.553313023495795
Ru 6.677021274296791 8.538920723501427 6.936395188806955
Ru 4.9055744756088915 7.280410795658515 6.450831754651372
