5
Energy = -28.05433361 eV
Ru 7.066267013477028 5.376480030369282 8.761340423362961
Ru 6.6798916144065075 7.106879556065101 4.41887694066974
Ru 6.326612892795763 5.90234194978716 6.956930205273772
Ru 5.830663560592593 5.080833496607847 4.858953743491839
Ru 4.9757434873748485 7.403580685255169 5.855950879298105
