5
Energy = -28.55039482 eV
Ru 5.581719797169919 3.668150075686207 3.0289787346428887
Ru 4.034611083743221 6.272037261949953 6.011256785949128
Ru 3.2238227948640032 4.690995887056058 4.54704362215337
Ru 4.725357583541981 3.09105448018174 5.040727303528979
Ru 5.589481539660565 5.430205372525566 4.523777717001344
