5
Energy = -29.7594678 eV
Ru 6.369003142216763 3.885789917241526 4.789945828596028
Ru 4.965731203678523 4.72193256881857 6.6055694378076435
Ru 6.837758959591997 6.3244627428582945 4.5837778437439525
Ru 4.710812731655368 5.665775911532754 4.551522426604199
Ru 7.098369985995172 5.376536498864754 6.626634865145322
