5
Energy = -27.26618106 eV
Ru 8.355585016423424 8.169242491593268 7.222472996711549
Ru 6.473179751289765 5.2899948802155405 5.681593815351317
Ru 6.366682685019491 6.7854891873515655 7.197531979966356
Ru 6.604865570725968 9.032399380290903 6.305007998230762
Ru 5.265355416871063 3.8184682400092855 6.632418022773741
