5
Energy = -28.15913682 eV
Ru 5.827594554691124 7.484632106555177 8.25981726363605
Ru 7.773868379850107 6.8557825379725665 7.152114244456355
Ru 5.398400581558592 6.9964907638662925 6.12356666875762
Ru 6.982924742999221 4.939654124386248 6.240411673679841
Ru 6.124515946413275 5.9159776535429 4.3162466733657965
