5
Energy = -26.79908467 eV
Ru 5.972323283720612 5.16950185913552 7.088739800305173
Ru 7.62238169885939 4.437197222946579 7.989012423246695
Ru 5.997341210029449 6.851775390149466 5.031263683355927
Ru 4.989896321103406 7.172844847720501 6.981703111952021
Ru 5.615950698153861 6.51792610536205 3.0793848977065674
