55
Energy = -423.20021728 eV
Ru 5.706755253971845 10.341232673945147 9.460016582798184
Ru 6.94237498784603 10.733996024872686 7.070148267784255
Ru 7.632126064979918 8.815325740710751 8.569375825913774
Ru 7.558270909245726 7.017302393537491 10.459485721990537
Ru 5.327935730632253 7.973625720496251 9.364557092337757
Ru 9.285729205096303 9.667424342501654 6.763108948775822
Ru 9.288897023006808 6.897597723676742 8.660225816279798
Ru 3.127062550002398 8.86466149529713 8.67229279481376
Ru 4.506860867985817 10.420975140876447 7.351576183367937
Ru 5.482343652452575 10.31830841343614 5.025369852636971
Ru 5.940848825461136 8.442767787843655 6.680604541484501
Ru 8.139778653153867 10.609878062662526 4.8370176016253135
Ru 5.64003924248779 5.460213663911694 10.147875707456402
Ru 10.75748512418059 7.544627232128238 6.704916767358989
Ru 6.768101842133278 6.2964443346741295 8.122329759185067
Ru 3.0492794362495466 8.691206037944982 6.166420679689091
Ru 1.7274298306129756 7.0308970736994585 7.640745111620389
Ru 8.393443852903237 4.567423949941706 8.98296700057575
Ru 3.350771169275559 6.119148669487964 9.663697898496759
Ru 9.728040768466181 8.361914011842691 4.548123813029586
Ru 8.342631653905869 7.383615356790628 6.328631718814246
Ru 3.160597371181003 10.228618444369985 4.283253259395267
Ru 9.604157224683387 5.2272028360734 6.713131139800819
Ru 7.1861737551510405 8.484868749811303 4.34473007653721
Ru 4.181574428287004 6.799130484875672 7.401519837018481
Ru 5.004519995579402 6.900984992734235 4.752852551360951
Ru 4.985117852706721 8.842455752883566 3.0704830017244538
Ru 2.824690296235594 7.862738494429558 3.758471314265398
Ru 3.8887128266300017 3.611673086459994 9.566180068401282
Ru 2.627054172168289 4.657637133522586 7.735313524318083
Ru 2.531253452763153 5.942443447821384 5.455894068202712
Ru 5.961344841577205 3.8172827307887522 8.291334261593665
Ru 7.183136723373495 5.091054289312091 5.792663721072871
Ru 4.6144453281217155 4.647335376708655 6.206693208064696
Ru 10.832173182978865 5.983049473084109 4.63765894909323
Ru 8.49850382323567 6.196504121325669 3.9670895602347684
Ru 9.137933690567047 3.797712225416465 4.654058508872919
Ru 4.005634998163686 2.416873587334968 7.2852636778462845
Ru 8.264678718239537 3.0729516847677347 7.007287376472007
Ru 6.540358472691418 1.3760086731325378 7.960998904118378
Ru 1.7290011387315503 5.637802640140413 3.2515394633270107
Ru 6.532442548979949 6.7500197795727015 2.560339319873093
Ru 4.110636076573343 6.073524630748724 2.3725669234741487
Ru 5.6383740067766075 4.619943027060704 3.767709202855283
Ru 2.6643704111891364 3.3912354297544183 5.21797545458947
Ru 6.087255591063949 2.644812725943161 5.916597456529504
Ru 7.72929250886635 4.485586211883698 2.3377765785912468
Ru 7.690368158439296 0.8087585600294763 5.6624746368845615
Ru 5.222932982656171 0.3561056518141647 5.886736101772669
Ru 7.256671171636214 2.442451897624921 3.7282745043163095
Ru 5.6610266920130465 5.140174287797824 0.7262436404432026
Ru 3.3900977389926417 3.820962553009884 2.9004756180931652
Ru 4.626894348625585 2.0205640451507967 4.030913244646574
Ru 5.642252606465393 3.020473450510713 1.8377372641581022
Ru 6.229354230209873 0.21171168343066754 3.637513905619149
