55
Energy = -417.12296601 eV
Ru 4.720696359664708 2.766426755462191 6.018858007008175
Ru 7.803377221445931 0.46910394601538524 7.967159852441655
Ru 9.168955818948609 3.1046661772703854 4.116877930929325
Ru 8.033343812688315 13.000109607795462 9.503453854423388
Ru 6.360035724740138 8.162589383250687 8.387992439617625
Ru 4.148780915565513 8.285439363002968 9.551451143871349
Ru 8.722705745065895 8.759563100767602 9.086621936723729
Ru 6.443305335556574 9.036593980312562 10.719924656873264
Ru 7.482864197423777 2.0917100703626357 5.942498710360203
Ru 4.049212205499453 9.577620518978302 7.34316527439191
Ru 10.616594975679387 5.2812991760467645 7.24318634406874
Ru 5.5986895353830946 9.26053966990009 3.24571001744885
Ru 6.149660297987703 4.629694362881104 11.213977397591746
Ru 12.500937589691318 6.480344175654574 6.215229118924789
Ru 2.1942291517385906 5.913448303177231 5.98072143741613
Ru 7.576078709294938 10.444949118924033 7.521987611235819
Ru 7.88886642319953 8.152631586675618 4.120889158917748
Ru 4.60077486286993 5.291125072490883 5.178681265256054
Ru 10.611138602094467 7.654069388572556 7.88595806058956
Ru 8.538892887269304 4.284657437923429 6.329412050067892
Ru 9.056089809227558 2.420661065477102 7.981392587311511
Ru 3.8633871258221766 10.188440413706495 4.885177179522513
Ru 11.155871861314143 5.0227536126142285 4.781769134212206
Ru 7.590913953842814 3.9819342956967927 9.11405515006477
Ru 2.30389910986065 8.271876214173961 6.1391844064951515
Ru 5.613240196978373 10.63542289388033 9.006207781385873
Ru 4.8836244892412 3.5322983875856013 9.405248890296757
Ru 5.968043884194767 4.54123734268226 7.311541464211939
Ru 7.413411802585029 6.4502531896543855 10.12786866563151
Ru 6.019478098262846 1.9658519209246996 7.958344621376013
Ru 5.377394019100566 7.010639701987704 11.601785114238787
Ru 7.9965827820336495 10.77306331937393 10.122161809434022
Ru 8.105177108542673 4.498897929520302 2.431116129468727
Ru 10.425657674273856 7.463560852527557 5.3153691761036335
Ru 9.47858728535419 0.9483929289050446 5.487277370996235
Ru 10.70425450766684 2.9625828571560504 5.999794327023649
Ru 4.061978230029473 7.640005740824287 4.353054723653379
Ru 6.975153388610388 6.4756775982702335 5.8674032985333415
Ru 3.519046952406915 10.222296593173358 2.457129645797077
Ru 2.0281993710048343 8.886793765598787 3.787767017656872
Ru 5.0385572501357645 6.056913868428321 9.354267963726114
Ru 6.647359355726535 4.028532110314291 4.4974254659090125
Ru 5.776615407847224 4.539387920588611 2.244537161363578
Ru 5.979679296793256 8.93844636271398 5.8512466505769245
Ru 6.280108709155178 12.72843995628725 8.149115828442659
Ru 8.497007313909922 6.2053539319316 7.980409603829422
Ru 8.579716871983337 8.290683110575712 6.55542629351234
Ru 5.568084519660107 11.48530971608001 6.2776894771094
Ru 6.019158422748412 6.576339286050689 3.373695456950175
Ru 5.389417595944798 11.77988357832222 3.854188166655532
Ru 7.367925712868345 10.601457246776942 4.661242278614135
Ru 8.89731600643809 5.79686058103705 4.224339946349064
Ru 3.4223143462671204 4.495700698399521 7.383951443225495
Ru 4.429297121425503 7.019420787431424 7.05642145886359
Ru 3.5296124454103754 2.089351424337155 7.999940441774053
