6
Energy = -36.47178657 eV
Ru 9.283776591862946 8.337328239123128 9.858850232551072
Ru 8.262336204024427 10.217266934504876 9.224914471781544
Ru 7.102504677293441 7.928237911668512 8.617263166113744
Ru 8.172006844998682 9.452191507007974 7.08100115591993
Ru 9.276980163070009 7.57792301305063 7.668709110052666
Ru 7.538229985061502 6.185068814948374 7.1231636481561935
