6
Energy = -34.41975203 eV
Ru 8.987128382055348 7.079623669191096 8.59640060342566
Ru 10.98178502588648 10.773305466808607 7.795402952693964
Ru 9.33638597492476 9.715818258972158 8.35076874549442
Ru 6.900534160752862 6.1485226289319765 8.500090087686717
Ru 8.025082890309523 8.846350381912396 9.91080141013842
Ru 6.8922775335252044 8.335222229136495 7.904361855220935
