6
Energy = -35.48561497 eV
Ru 4.287773477267226 5.202305827058945 6.902093289741194
Ru 7.850293176019325 7.748469822319848 5.563950218577701
Ru 6.12236367485225 6.274397066247598 6.632878473991604
Ru 8.560905344433277 7.995260769796058 7.963002396344686
Ru 6.439392972665908 8.44795686242793 7.395954861007376
Ru 8.327393012040368 5.912884412695145 7.1211938364313125
