6
Energy = -35.55184904 eV
Ru 5.373706900361275 4.0646894290881335 6.546977847849279
Ru 7.067523422800812 4.746002083221253 7.809960729453376
Ru 7.142711364881703 6.941781104050926 4.731005398144039
Ru 6.8881033512550625 6.8661255321306385 7.10656573211868
Ru 5.774518644958126 8.5678905890756 5.432728887749449
Ru 5.0553821164623765 6.0809281522782195 5.64943601769374
