6
Energy = -37.47683471 eV
Ru 6.592230709503565 7.0623250715885835 6.612763513353098
Ru 7.723479593789613 7.094264660785896 6.617854658332593
Ru 6.592295958655825 7.931354037666027 6.6125867933377265
Ru 6.592295958655827 7.062396251501353 7.719418811086269
Ru 7.72348028651124 7.0943610318470505 7.714298471234963
Ru 6.592465015921258 7.931465423573264 7.719285752655379
