6
Energy = -35.35109411 eV
Ru 5.840087906489819 7.431665640172233 8.643222436825269
Ru 7.039547509605596 8.246621551977956 7.015286864517209
Ru 6.49721743151923 8.014512801736565 4.917221418691496
Ru 7.273689831057754 6.0009963196109695 5.2224109024976455
Ru 6.154215655876324 4.441354825048149 6.251814374131183
Ru 6.7622288515335125 5.558471845873849 8.021606844384268
