6
Energy = -35.7847308 eV
Ru 7.946376046873291 5.244286619673612 7.381496468704053
Ru 8.4073155552859 6.379539168918449 5.48997582729901
Ru 5.987602667904153 5.1032431983995306 6.302535038650563
Ru 6.607887223264587 7.4768526054336615 6.261987693630119
Ru 4.21334473771001 6.2157929925577635 7.111717005950442
Ru 4.652010195570752 7.358860409710799 5.16988402585737
