6
Energy = -35.29114573 eV
Ru 7.098008515012155 5.357072549638417 6.001185632655125
Ru 4.977003629745903 5.510260980699833 7.380951138934644
Ru 4.851491229634681 7.12323177326963 4.004954735231131
Ru 7.057974386064597 6.748879901247954 4.3336112975043966
Ru 3.8909371767076926 5.725951493129256 5.3619852383738555
Ru 5.4211927973613285 3.784170744589258 5.9274003527695935
