6
Energy = -33.33931388 eV
Ru 8.222789330439996 4.8471336578035835 10.25690164064488
Ru 8.2973535988402 6.498937043036451 9.093654222173138
Ru 8.857999641087003 7.431323828305734 7.005788827510651
Ru 6.737731760582919 7.973700173561825 8.169222590702711
Ru 8.038670275635244 9.628621762055705 7.138118399112535
Ru 7.5762214798258505 11.33510580121299 6.149427033957327
