6
Energy = -35.31989876 eV
Ru 7.997522229028789 10.370242215740006 7.217787859611083
Ru 7.844955419703748 8.993295325360288 9.020827600492693
Ru 6.783501458714944 6.655132479927604 8.716388821105747
Ru 9.143530556616533 7.22267596977288 8.171906585376597
Ru 7.341254522118467 8.119486067136899 6.807884772227381
Ru 7.822441496015039 5.628939807116094 6.982131566730483
