6
Energy = -35.76283708 eV
Ru 4.792232848962583 5.509999698847858 7.649731187608558
Ru 6.111064001509001 4.506925780682459 6.15661075229432
Ru 5.439974142349039 6.621513618037103 5.2731686561140405
Ru 7.708064356143084 5.6270623504828015 4.98062780175327
Ru 7.548421305742988 7.752331730391668 5.854000780397109
Ru 5.953599589517707 7.531083789711989 7.437173818831327
