6
Energy = -35.19170505 eV
Ru 8.836948700154197 10.480552740116238 8.286478752345054
Ru 8.361613357806997 8.51176151652083 7.657010740117328
Ru 8.357108801054805 5.961002892022116 7.069830202079207
Ru 5.892170851243993 6.433690694139117 7.44541760957271
Ru 7.509319319046969 6.829507266739873 9.036005170306716
Ru 6.763135979974646 7.998465225731371 6.142201237271332
