6
Energy = -35.94594197 eV
Ru 6.980568355917643 8.670883247194254 6.663536487339831
Ru 5.980405711597094 6.979232109406012 5.621080690268889
Ru 7.350468958383958 5.321975834590887 4.9237473159526255
Ru 6.947098108236699 5.368290703910834 7.1507421405000295
Ru 5.813976563711396 7.66882061010236 8.361830461455675
Ru 7.998263884315239 6.964519582544821 8.285358799400555
