7
Energy = -43.50378833 eV
Ru 7.553525361096208 10.814410714858292 8.06656704596884
Ru 6.936940561410952 8.87804807052769 7.151862238650102
Ru 8.280872732709414 6.4930174489470325 10.134357061556239
Ru 7.965697644564608 8.607075901789527 9.482491800372886
Ru 9.052859808289373 8.0363752969471 7.394589906526937
Ru 9.32060412078431 5.95232213274603 8.242458871623016
Ru 9.648212582784158 10.060774989994119 8.355173091715944
