7
Energy = -42.86769558 eV
Ru 5.776933289010891 6.969558699787895 4.1033642638986025
Ru 4.535337434059054 6.8600162918952385 6.254129248495826
Ru 6.778198139292562 7.915247582058432 6.034799946917565
Ru 7.606735847841187 5.863054000878938 5.151262253767685
Ru 6.464321541825727 5.841691901456135 7.379899714489257
Ru 5.378553406989796 4.860747774782358 5.39465042144776
Ru 7.050788943660671 5.34327766892191 9.353030692553473
