7
Energy = -43.35187387 eV
Ru 6.627765801264668 8.60647738738227 7.064675127616743
Ru 8.50036495511031 7.08744760518382 7.217645378361788
Ru 7.062126229606154 7.49271403555381 9.007814203920855
Ru 5.314174275042108 6.763907160703363 6.727352261405562
Ru 7.028798990424098 5.392511955428123 6.874430548993748
Ru 4.96830633725916 6.073002244342091 4.574556891885358
Ru 6.674306448071996 4.72357191549215 4.724120847277504
