7
Energy = -43.08588571 eV
Ru 7.332630138674679 5.986881220608881 7.963483054019271
Ru 5.137988663232071 5.973129414906152 8.798056483417936
Ru 6.392296573927306 4.583867835903284 4.754697770583181
Ru 7.654837143732045 6.294550224630747 5.490942074127846
Ru 5.33364471541796 6.02550545911075 6.579658271620405
Ru 6.048127061641917 7.7751768298217625 4.882011700070282
Ru 4.7844777382826775 6.054127632113234 4.17391609249904
