7
Energy = -42.62568303 eV
Ru 7.82552133675067 6.811155062260916 6.087868522810556
Ru 8.22037919996337 4.498609722841651 6.624543300069706
Ru 6.229845490070392 7.955755098877135 7.6126649614536195
Ru 6.631124537962338 5.625753417514195 7.810708998642737
Ru 6.075034196561823 5.463257766134368 5.34714100674935
Ru 4.728878884149872 7.1030899793487 4.315302514360227
Ru 4.519030544686306 6.925036031901368 6.530106668845198
