7
Energy = -42.22571285 eV
Ru 6.5990940254487676 7.657573494053649 6.858083829388405
Ru 7.688694325932494 7.603818757173347 9.844642426601359
Ru 8.802097505619756 7.369406851888547 7.676927150894915
Ru 9.814851006856959 9.555502588890425 8.500585186503567
Ru 9.94927324999045 7.925470182042544 9.964769288265362
Ru 7.478706791978008 9.304022933207985 8.42026383491433
Ru 5.894956191058174 7.668676590703233 4.914375825366708
