7
Energy = -41.56553686 eV
Ru 8.638036115665543 8.34586154524795 8.843777461388898
Ru 9.78105707922525 7.964007691852651 6.70821820657104
Ru 8.068708493362445 6.363027501678704 7.424797184649901
Ru 7.404869880578043 8.611547393507227 6.676658361986875
Ru 8.259959362155882 7.0151695154959475 5.162499139647147
Ru 6.381683880984966 7.657276431963553 8.786853773314778
Ru 4.6544969904189015 6.785101876162986 9.37455452384105
