7
Energy = -41.40213515 eV
Ru 5.3291671796961575 7.386259805021488 9.817366746551144
Ru 9.251926435402668 6.927997160213894 7.289127885113326
Ru 7.2273023383034145 7.759452748867731 8.252792936999047
Ru 5.409220812895723 6.2774849310651675 7.935680540484416
Ru 10.21706972886321 8.95234328645776 6.713303090208733
Ru 7.102909320556853 6.430236724860705 6.184486574468059
Ru 7.963638221114297 8.747100465858923 6.214971075892534
