7
Energy = -45.16693219 eV
Ru 6.408266545751053 8.300941921202517 6.546260203014922
Ru 4.931458260251104 6.898616872918476 5.5198299693367705
Ru 8.128901057312532 7.084485140956486 5.675230480277718
Ru 6.648291172413816 5.49128848175092 4.9637752005176985
Ru 6.398927006976641 6.933137864407161 8.370843693819637
Ru 5.215898996806353 5.366320806165479 7.195235373383695
Ru 7.862996733931707 5.519948686042169 7.323564853092659
