7
Energy = -41.4251604 eV
Ru 4.196311857225999 7.483346008853049 7.805950711386688
Ru 6.432555320969952 6.743666763605309 7.400849215113751
Ru 8.498044264600539 6.909250266713304 6.082636067857315
Ru 8.091758652876951 4.928092097805583 7.187526624934281
Ru 4.671686367368789 6.426042057462707 5.854958671483366
Ru 6.734653363067628 5.480672221512985 5.185728106589158
Ru 4.753159199844193 5.396528361891073 3.84086682791399
