7
Energy = -45.15318851 eV
Ru 7.731775979477968 9.384654963401122 7.629857515687366
Ru 6.25490288991854 7.9822991834748125 6.843346300380252
Ru 9.21254296639738 8.16825194355729 6.998844177733835
Ru 7.73177597947797 6.814528811031177 6.287947442998806
Ru 7.722489707515817 8.016968743270159 9.454378822703536
Ru 6.539935709931451 6.689645226985603 8.278357235780488
Ru 8.946070441993227 6.84311545356779 8.40673483000348
