7
Energy = -42.4853326 eV
Ru 7.091633222857725 9.552171072452225 9.429692070008766
Ru 9.347753719809495 9.40386654490859 8.820354825316826
Ru 7.6258101945836705 6.9709385212868415 6.074358300490747
Ru 8.14197533615992 7.315954499192127 8.751478073915061
Ru 7.804649930427374 9.046403821604166 6.948126547847459
Ru 9.696389869513867 7.412530544477886 6.934350705666367
Ru 8.045231046835347 8.073352384237456 10.904078553405308
