7
Energy = -40.37799788 eV
Ru 7.825519780209118 5.9487917060064515 8.665916034461402
Ru 6.609205970256483 7.947774763337676 8.694501300000002
Ru 5.392892160303847 5.9487917060064515 8.665916034461402
Ru 5.392892160303847 7.2696202345065135 4.552495906051559
Ru 6.609205970256483 6.609205970256483 6.609205970256483
Ru 7.825519780209118 7.2696202345065135 4.552495906051559
Ru 6.609205970256483 5.270637177175288 4.523910640512964
