7
Energy = -42.98611334 eV
Ru 5.62949032509864 4.087888147225996 5.846372451652345
Ru 3.9843523383894195 5.046905104234956 4.423855537644643
Ru 6.2068997946725 5.927320643878306 4.188864564350354
Ru 7.341456045092492 6.011543824321969 6.4812601981916815
Ru 4.922993855286511 6.437815826508866 6.186162526314408
Ru 5.821795445765975 5.043464327969551 8.020754842212652
Ru 6.629570435688813 7.981620365854821 5.389288119628134
