8
Energy = -51.3262352 eV
Ru 5.561221540294662 8.504392135164862 7.541418400497557
Ru 6.875543151368975 8.002452754598076 5.7978822612742364
Ru 8.041167706663755 9.467347979350135 7.691840143971153
Ru 7.156231565911923 7.688058997897588 9.02325467486114
Ru 8.510832245546426 7.16859620810285 7.223818941161873
Ru 8.82577698034241 9.065146208343036 10.06879412774711
Ru 9.660024253842808 6.949577987320726 9.646373112978363
Ru 10.350257394353651 8.471273424232558 8.041638257366985
