8
Energy = -50.15754584 eV
Ru 8.921055422424047 8.458731059791408 8.970883551596785
Ru 7.045128037508171 6.021670560615291 7.856314476584179
Ru 8.6198382103531 5.583326787373394 5.957093703007443
Ru 6.92267675580467 7.516593201825108 9.703832739584504
Ru 6.134505008457782 8.200925369732145 7.417610807362274
Ru 7.443121904127874 9.994552430323274 8.062396159825125
Ru 8.556118547051542 7.67504041165783 6.806467549131019
Ru 6.5265032749872525 6.737553516432016 5.531156124021645
