8
Energy = -50.70092178 eV
Ru 4.531545038001 6.07672757044279 3.659791818348028
Ru 6.806929015860693 6.449453439708809 3.67588291931749
Ru 5.812957141468573 4.239699136277962 4.707276159504348
Ru 3.35899568391044 4.618242178975595 5.231151227501233
Ru 4.04783063258585 6.756839638440845 6.0815516466959
Ru 6.426821440537846 6.239303237335425 5.904204977381662
Ru 4.97958268066973 4.554699181590535 7.010958118734236
Ru 7.273473866940056 4.3031711172023694 6.96731863249129
