8
Energy = -51.00255108 eV
Ru 8.286192201156238 7.881253889552949 7.204317173925528
Ru 8.152163368041291 5.630840661921169 6.790696943203862
Ru 5.937671195696509 5.51932813170006 7.723751831051505
Ru 5.890626344967776 7.754591777268377 7.6582774133832565
Ru 6.8529671696683785 4.127395171636889 5.613612012523252
Ru 6.816777976676169 7.387087075714522 5.437227579105887
Ru 5.019440351325633 5.524950716189958 5.498392465632918
Ru 4.503666400525971 7.753591144050012 5.6510630230813845
