8
Energy = -54.55854132 eV
Ru 6.024539869585513 7.624084935886848 6.492186150961209
Ru 7.625099207347084 9.224554621601023 6.490529858869539
Ru 9.223136742208368 7.626500338031509 6.488332958574939
Ru 7.622544423638359 6.026031529540706 6.489949209586254
Ru 6.027060702504016 7.623628945328007 8.761868519310475
Ru 9.225622683221594 7.6261408342276225 8.758018141207822
Ru 7.627611164147865 9.224163929420738 8.76019977931408
Ru 7.625099207347084 6.0256088659635365 8.759623382175587
