8
Energy = -50.54917429 eV
Ru 7.824921278510798 6.587081376591026 7.356106601850605
Ru 8.729470287312965 8.337040360639044 5.8809064424471895
Ru 9.840427362914328 7.889820333420645 7.935805103832263
Ru 6.3767606051590375 4.815962007165283 7.692018231955464
Ru 5.678241154999198 6.82350748146866 8.55144059395563
Ru 7.761203275914183 8.224138107097337 9.168431853173264
Ru 8.582527809847496 9.996640860113196 7.692503189526031
Ru 6.612942619112726 8.688219028215102 7.056628044789998
