8
Energy = -50.42550741 eV
Ru 6.1991777507641705 4.582350231286925 5.368331309414494
Ru 8.154044661251275 5.999605397819785 4.82697289833262
Ru 6.361171685522163 5.994212540707571 7.521667321172293
Ru 5.427502773944259 8.058129126558226 7.95822417026366
Ru 8.303179908486308 4.996128659065343 6.850787101863112
Ru 6.261297690382336 7.181377501143068 5.488227725473423
Ru 4.044516376879086 6.9396643006656555 6.575865671485112
Ru 4.293089387823962 5.7345535359885655 4.661173407210261
