8
Energy = -50.22411847 eV
Ru 6.83398682406642 10.595379792872095 7.119714234780994
Ru 6.7681545209367036 8.51711204335377 8.468398387488582
Ru 8.571717078813824 9.263799342179514 6.828968515081176
Ru 9.005379667180936 7.58005963619596 8.864590855798848
Ru 10.1915901596501 7.6324504255640555 6.797955528670414
Ru 7.68441250550617 6.85326551035655 6.956165906178471
Ru 5.84077065169551 6.487686462797029 8.787751917666256
Ru 7.937879974137234 5.604935401530756 9.089405215651132
