8
Energy = -50.6142534 eV
Ru 3.2670927739363016 5.615468371275762 3.825787723011966
Ru 5.571403209792183 6.941208717787339 4.323171062880466
Ru 5.475127312290039 4.459950533726864 4.181893430439658
Ru 3.12846109032325 3.360325871311716 3.9125725335003603
Ru 7.441073848517144 5.93380329647578 5.050749667539017
Ru 4.1304885647983784 3.173433374074344 5.9028750664597505
Ru 4.325843352280928 5.599846622861921 5.962008715465423
Ru 6.396628377869338 4.652081742293831 6.577060330510776
