8
Energy = -54.53631695 eV
Ru 4.905701008518867 6.504314167591699 5.372358796770037
Ru 6.525523330577615 8.124027762193721 5.37065033615971
Ru 8.12264205721312 6.5268981181893855 5.368424665579107
Ru 6.502780873757899 4.907179945124169 5.3700608742587015
Ru 4.908184736387661 6.503835082667493 7.662405317200475
Ru 8.125076530217257 6.526561656235782 7.658483637329416
Ru 6.528003984328329 8.123638111872904 7.660708718927514
Ru 6.50529739220592 4.906755069331517 7.660117566981472
