8
Energy = -48.79937089 eV
Ru 8.338710243868677 6.181287223219826 4.949828102556719
Ru 4.811009720181841 8.39587745058585 6.814902767634425
Ru 5.173331116605124 6.1752279404650405 6.790094252207177
Ru 7.257392585967168 7.38780652721243 6.945979577201394
Ru 4.725922090590776 4.992008776634006 4.965657127675068
Ru 6.159674323917036 8.628502158514971 8.590725670893237
Ru 6.84049810958049 4.507820060036698 5.553015437710917
Ru 8.667266924730052 5.49724112652728 7.122341337802031
