8
Energy = -51.29866687 eV
Ru 7.612592094661066 6.863030458945679 5.443659748691577
Ru 5.252884372757436 6.724595114657916 5.1510180290016585
Ru 5.374063173962961 5.196885977044316 7.041647101835011
Ru 6.5075479871526225 4.683827089327505 4.842365275930489
Ru 6.408052488351195 8.680408107184538 6.318557455449585
Ru 7.859519363078949 4.634216195826775 6.796380727389509
Ru 7.122968293139877 6.630985664110453 7.777664560452152
Ru 4.747996509713508 7.471675675720196 7.5143314558184855
