9
Energy = -57.51386521 eV
Ru 10.026535629218044 10.251928347800009 6.460689838725969
Ru 8.710140804940215 8.400105959112913 5.8864004166877155
Ru 6.8577057199625155 6.173262174089944 6.233402528073231
Ru 7.010279068219232 7.398759798604804 9.461975301116365
Ru 8.649260922930882 6.788737482965612 7.7632826590013355
Ru 8.801569499641536 9.236697540500442 8.134138613696729
Ru 6.650357461223381 8.371700540630737 7.255541126943757
Ru 5.183871214448632 6.602715272921616 8.005640674372893
Ru 7.031143502975338 5.137196792804173 8.472744887956543
