9
Energy = -57.93144753 eV
Ru 7.785406950504011 4.131354629451331 7.084627407499888
Ru 8.834366700314467 5.930493120092986 7.986417930050786
Ru 6.276569562678298 5.963189224971426 8.016203133360113
Ru 6.633041359937128 5.4757188527657075 5.575707850218678
Ru 5.702666465478573 5.981345214404905 3.5092872374317334
Ru 7.624204676211722 7.314711639121674 6.483751437493098
Ru 4.599053767489345 6.888965553804575 5.1810077053006784
Ru 4.531945264653497 7.296484887254611 7.684983118627584
Ru 5.749001383234926 8.669473454693396 6.220485745495929
