9
Energy = -59.78535568 eV
Ru 5.249348051384017 5.377012962375294 5.432262041611823
Ru 7.449608356120334 4.8431056734456535 5.582096512300913
Ru 5.348403783157227 5.66341719516227 7.9926911545211095
Ru 7.585560722650602 5.439759192600708 7.790788182174291
Ru 5.854356722694643 7.393548397825224 4.3506124793288
Ru 5.420493451017861 7.626387560760784 6.64735926588194
Ru 5.969826891461318 7.783762384884237 8.968053123392103
Ru 8.024966212207998 6.941218566609865 4.85382629788171
Ru 7.7709034110209005 7.605255668050981 7.055778544622576
