9
Energy = -58.26389062 eV
Ru 5.365993901822009 5.86954358182163 4.463270722878677
Ru 7.773642361749592 5.87594315329999 4.464036630154642
Ru 6.5708989631315005 7.959002438446556 4.466741271846355
Ru 5.361017322978572 7.257942604450291 6.568026436899162
Ru 7.770084245909675 7.262982342334133 6.568077535092557
Ru 6.563424797922921 5.175219529706184 6.567912187325532
Ru 5.361871914252288 5.875946135879537 8.671333849134086
Ru 7.773224983348294 5.87733628182808 8.670632195418973
Ru 6.573121639087399 7.959364249462444 8.673249207938907
