9
Energy = -58.04406951 eV
Ru 7.985612572010224 4.444424089456923 5.637066123963136
Ru 7.33909895139219 7.0194944259809615 6.041358677572076
Ru 7.720975582010333 5.203617948363432 7.912732987868103
Ru 6.130119675237291 5.532738449677917 4.68346533558963
Ru 5.750538637663315 6.497590936405506 7.69242415561738
Ru 5.7625421235548355 4.255966673697786 6.727731829553161
Ru 5.462375263286923 7.747900690493637 4.257519489267578
Ru 5.207467783894393 8.494514882376874 6.538942461001003
Ru 4.154554071045878 6.359206521716672 5.8511386953843125
