9
Energy = -57.833293 eV
Ru 6.838933306268617 4.240994442977496 5.160552477359978
Ru 8.687612715599398 5.61379022485875 5.434894231920525
Ru 8.369502313201114 7.598593313948453 6.500571953958865
Ru 6.335288286321356 6.763904542947721 5.1675638324263575
Ru 6.807996620078001 5.706449641819534 7.272921830803753
Ru 6.043869958633293 8.094135961621621 7.272130239499246
Ru 4.713739511349157 5.064903376814626 6.0496701233511985
Ru 4.076724202148911 7.419867384339187 5.987768841738326
Ru 4.55434557993816 6.349513644847049 8.117504098825929
