9
Energy = -58.60552234 eV
Ru 7.611992552066999 8.151090124537287 6.577228249047856
Ru 8.122576134650606 5.494957408646125 6.766751159921144
Ru 4.784993903536466 6.0515297981074365 6.78491965814345
Ru 5.529037121651964 7.495952794455008 4.922230377081644
Ru 6.253969312022448 4.860457172026426 5.314478949884196
Ru 6.190945006627043 4.236084473186945 7.6901716913185325
Ru 5.236574796514189 8.470393340535438 7.148510042673657
Ru 6.5676110965362895 6.62916879240087 8.20219612175058
Ru 7.755887961070524 6.663953061745429 4.647100847110969
