9
Energy = -57.67867693 eV
Ru 8.980469578021237 6.3491423150255795 6.910306565801419
Ru 7.66842594813964 5.537144915753732 8.555871823023617
Ru 7.097254012272585 7.33850615859989 5.884876867176089
Ru 7.034781968994345 4.842360338368357 6.1639001774522555
Ru 5.687977966102779 3.7917535069614106 4.574851928184183
Ru 5.776265627562567 6.526007718346515 7.54246645023429
Ru 5.1116516954913775 5.963397854221459 5.1868266933232015
Ru 5.252888057539374 8.522613745787389 5.006079230714453
Ru 3.94172268670596 7.718246761890677 6.658528093163618
