9
Energy = -57.77887227 eV
Ru 5.798606731598456 6.860483123714543 4.172905975297532
Ru 7.819759072705179 5.247602333814034 4.307962088037744
Ru 3.928607261926912 5.079939007324534 4.2585752986752325
Ru 7.819479038311263 7.18152579042362 5.476983100363093
Ru 5.992784749238379 4.587821558022102 5.5256529639209555
Ru 4.223538335065257 3.1424841857564565 5.872402512908649
Ru 2.87993911136737 4.82124522240076 6.558043271209795
Ru 4.593909512795456 6.3957357422105465 6.257750980597365
Ru 6.627650053907359 6.367436903248893 7.253997675904974
