9
Energy = -59.78269988 eV
Ru 7.590484917722943 7.718262407778896 7.773934080757343
Ru 8.72586438225906 7.184250454347573 7.923645494670545
Ru 7.689648631948596 8.00476156535677 9.2679645687623
Ru 8.861789793506336 7.781181474579213 9.067047323217944
Ru 8.195618676764811 8.669330004054059 6.691988906409673
Ru 7.7618053137748015 8.903024701857088 7.923645494670545
Ru 8.311271805180093 9.059754117019759 10.244136255646096
Ru 9.300843034473697 8.217307717907618 7.195122460321598
Ru 9.047213528906074 8.881486472562306 8.331872331007636
