9
Energy = -57.86474811 eV
Ru 6.43387604658818 6.2798096871702445 3.5718441593680206
Ru 7.843248690495713 7.172138473084355 5.1697415036420615
Ru 7.8437521044397025 6.423956645412577 7.562818572093893
Ru 7.026970109033562 4.912135633605872 5.833127707580518
Ru 6.003417252459332 7.965582864109271 6.618703567479745
Ru 7.101921334940017 4.157979398973797 8.129024805260126
Ru 4.884923580446667 6.142897651347518 5.22949413619698
Ru 5.485397745548329 5.775165305874992 7.575206102174279
Ru 3.690876015571183 7.476876330995779 6.625099416206648
