9
Energy = -57.36972422 eV
Ru 6.287065188023232 5.450870021915806 7.516262943400278
Ru 7.603710185430223 7.2359959308571415 6.511599963108218
Ru 8.560890679715982 5.159865369478041 6.638983829808874
Ru 4.814912912250945 7.485549387180476 6.692635804823944
Ru 4.559449293263154 8.631416389409706 4.729851268993216
Ru 7.19263522976599 3.4127969444179564 6.0001411573652135
Ru 3.8739686647305853 5.428187557672325 6.616889613115757
Ru 5.551136835347797 4.809475121279775 5.195415762970043
Ru 6.171426746171702 7.001469991342609 4.7128477434953595
