9
Energy = -57.59699814 eV
Ru 8.367090314490673 4.858758551163384 8.83291933631543
Ru 6.8122183334346325 6.917877344174481 6.31266401301808
Ru 6.786675180540122 6.468568382824631 8.95135365057158
Ru 6.03975353541426 8.671272669542343 7.877030107595273
Ru 7.2719061986994955 8.419761672300448 10.0572729414828
Ru 8.378651357253839 9.10643709108421 8.079286227370345
Ru 9.151775848255435 7.966370327990797 5.580148139734757
Ru 8.814802593203952 6.790720918883776 7.588572694249826
Ru 7.216837913304392 9.280424385478334 5.871270356191134
