9
Energy = -55.49219305 eV
Ru 6.353360183363341 7.839440208539086 10.49678816202075
Ru 8.91572994762728 7.694323719227856 5.444763926967128
Ru 8.715784946820637 7.8143180828915995 10.177594888987539
Ru 5.207848847138755 7.696181265758602 8.415163520961313
Ru 6.836726753388752 7.609865792732056 6.47883439040301
Ru 9.872529964588148 7.884515612965253 3.6387684133383096
Ru 7.314443496608958 8.998118744624447 8.513073511687647
Ru 9.307855384183215 7.679160398818165 7.728613166775363
Ru 7.320103664928606 6.43771203444372 8.670406799935288
