9
Energy = -58.22643297 eV
Ru 8.352233924787802 5.944530535135345 7.376991341129505
Ru 5.982735415107103 5.366502057458286 6.7887387286840175
Ru 7.839927253124237 5.903254495952858 4.979195074601393
Ru 8.875029108572488 7.841395631031037 5.646606493256352
Ru 5.119158292918092 7.3643025871612 7.8890082277213756
Ru 4.155684675897955 6.504841667817556 5.698048511506857
Ru 6.210451682178909 7.580786338904214 5.657813510001618
Ru 6.733845013040371 6.181879783104823 9.138494299660115
Ru 7.512583689841138 8.126824229778432 7.64792543854122
