9
Energy = -56.2886837 eV
Ru 7.974314559256168 7.259016676286534 5.894723181204451
Ru 6.543200799137782 6.685804812419278 4.022740988379423
Ru 6.907755046908488 3.3182851868487497 6.88925083751554
Ru 7.9678518049934075 8.368590354097952 7.879219794956197
Ru 7.4976890470707485 4.977431149347976 5.452335764169307
Ru 5.927437409403421 7.5164238432165495 7.241980366770127
Ru 5.408785197974219 5.059105737213066 6.756783743376717
Ru 4.665255491504437 6.855798536633799 5.192139636222737
Ru 3.7166553811140592 6.628134034338704 7.3750419166834185
