9
Energy = -54.75001164 eV
Ru 4.952634864753155 5.7946410139203355 7.087573410117062
Ru 4.4343571837072355 7.934602053689088 7.081894119630685
Ru 5.796871835221812 9.801881155108177 7.071703653085006
Ru 6.970698840773744 7.29915737040094 7.079674585728484
Ru 7.958076771112275 5.214125968529895 7.0751354380504825
Ru 10.09017189507695 5.92257142409281 7.072544428999946
Ru 9.306874441340346 7.991977888480678 7.087491652800611
Ru 8.095264680124853 9.816615649523962 7.082620280514184
Ru 6.10903743093883 3.938415699029551 7.075350467364301
