9
Energy = -59.28797264 eV
Ru 7.615820903876886 8.093197473327388 6.564166367604455
Ru 8.173614659965459 5.701760376421294 6.821068832574504
Ru 4.835511309211964 6.220351351540764 7.033658689512812
Ru 5.835122190149471 7.53099394200806 5.195385721096921
Ru 6.393202693646268 5.1395505860746935 5.451946665570402
Ru 6.314972275900551 4.375143605016192 7.824197594520491
Ru 5.319182749072446 8.644272090809647 7.366433558084807
Ru 6.615040362775829 6.78269577670677 8.403057023651353
Ru 8.10039463805519 6.714896627662263 4.542947361313952
