10
Energy = -40.17159081 eV
S 5.19323750316905 7.642073294476286 8.454563751980888
S 3.9446501955897575 6.23502573480192 7.496128810865987
S 8.157186709057545 6.216371960487531 7.639049076938508
S 6.860097235626375 7.954011123302415 7.39415214048523
S 4.394004287209786 5.574564416112621 4.223951464473696
S 6.376112575923842 3.849998697936212 6.072754215531929
S 3.5248681362046397 6.918158523076065 5.620984740407889
S 9.010669089503436 6.040439998370394 5.891085105876517
S 6.156215136733986 6.142512991018756 3.551378132092429
S 7.538885449647951 4.556730606418433 4.749574408560108
