10
Energy = -39.62733133 eV
S 8.25523368017165 6.054582326938455 5.251069524762819
S 7.506366256383195 6.0658239059175 3.4911923956395783
S 5.684960107514203 8.197123779498636 5.3143219779393025
S 6.802876273333195 4.067870130752205 6.060575465230242
S 5.979184569065402 7.775100645979685 3.405493524546305
S 4.493162674593876 3.3021133517584946 8.55177705278971
S 5.88817955736392 3.8426085385996873 4.413329436688939
S 5.026174504686079 4.975097858995338 7.7642195607062225
S 3.7934733662565647 7.498774882656609 6.030575795040353
S 3.6885742416882725 5.485308495273574 6.141948451731483
