10
Energy = -38.66392063 eV
S 5.712336291505037 6.3871801984926515 3.322936064831801
S 2.594789978943273 4.963609347542536 3.918649483678939
S 4.442602247457076 4.4738999812364515 3.840301337668241
S 4.4614477476176475 7.811222485590044 4.044049161202547
S 8.0961542357765 5.259172715004214 6.004696639928034
S 6.884869203896173 3.667432768753903 6.151734773436599
S 4.922835563269168 4.25827878226459 5.980342962241717
S 4.613221540272301 8.025685669913369 5.985058849903475
S 7.931200994733705 6.245700523538076 8.01325324026176
S 6.692209466842568 5.259484797977618 9.090644757160485
