10
Energy = -39.20527072 eV
S 5.239887967326109 4.772355342936888 6.673799097433933
S 5.388976169437068 5.355486586489617 8.74424944844776
S 2.8259725433782013 5.880318570140329 3.1332598441677764
S 6.149465849601203 5.3215537335589085 3.096455748821935
S 2.999091228077057 6.719668566827378 4.999541147697223
S 6.825907611837438 2.5414731315462333 1.2199941120510018
S 5.527392768779431 3.7642098722141935 9.8432655260978
S 6.121113796169551 3.165121711484382 2.909584701168804
S 4.609465225028839 6.162017676877497 2.073699770055711
S 3.2578192114738633 5.0789611951268085 6.252901154255657
