10
Energy = -38.90886283 eV
S 6.731513683807836 4.430116567023155 2.4983817650058624
S 6.29789097297357 6.6715078719338345 2.531024079367748
S 5.033969736303677 3.5436161241667863 2.729559598356601
S 7.9033986555256694 7.551236694802019 3.131759291044662
S 5.667947020430852 4.963625415138544 6.047799387576359
S 4.3351561808030565 7.181072457854049 6.800454584824068
S 6.830785455158683 5.12033597605765 7.532651162303546
S 4.6962329951147845 4.927501135468956 9.205830062696428
S 3.53935936763896 4.737049457946624 7.7240361258723595
S 5.470319025776375 7.380511393141718 8.305077036485821
