10
Energy = -39.43134762 eV
S 5.69197477406153 5.730512224607284 3.6540881711535036
S 2.730939302847313 7.165277920444499 2.9006508399425024
S 4.54076208541606 7.237491728535408 2.286697440532777
S 8.215245988002284 3.5684918653235362 6.815197301126395
S 4.276081269228746 5.0276927490276195 4.785727539649682
S 3.9912370446120082 6.455863944714016 6.485464392548378
S 5.7839740337614485 7.109570785588632 6.97375403648674
S 6.371863106906595 3.9834682683973632 8.131224105969954
S 6.587757735407077 5.86685654839626 8.612609610644448
S 9.176243226095725 5.2208525313041445 6.720665128284002
