10
Energy = -38.98691891 eV
S 7.362821170126237 5.836778724510214 4.359778044877277
S 3.9701267990776485 6.925738797882959 7.35542612527577
S 6.214672857072648 2.039902398442221 3.783419003407516
S 6.782989018529582 8.3305916320331 6.584324586909958
S 4.538938284129845 2.9845913173825593 4.058295321309346
S 3.867838739197777 6.072772967346582 5.1938683579375695
S 7.333542859988434 6.766516437660101 7.5612174535204915
S 6.626773378637598 7.610041100205493 4.34677646985199
S 5.242651768242528 5.819208770078263 8.283911387243077
S 5.161483313830625 4.581761378795579 5.372220742800967
