11
Energy = -43.05435547 eV
S 5.5326899700266905 5.158582343570609 6.922108195702029
S 7.41266291104138 4.9516655835156795 8.495137046872316
S 3.3946341272155105 2.941503225740699 3.824410195956855
S 3.3069667762943986 5.024810315319514 3.975459582446949
S 7.394591738434961 5.695056481446616 4.88788587725879
S 5.212913969461353 7.0191231674466374 7.074636133226614
S 6.8823752893500245 7.515346283892319 5.009864556880308
S 5.175942527487602 7.621775705877965 3.2544930493776225
S 7.6119306730231555 6.780430523057147 8.97295313860316
S 3.534340518916199 2.1079652440182604 5.576310194066963
S 5.026556613168416 5.734880435970283 2.829184831748735
