11
Energy = -42.87131243 eV
S 6.5285130360172525 7.286801991229458 8.17508419592802
S 3.276310172000406 6.107280689539316 3.812017225416791
S 5.069652261782448 6.057342357358547 8.31045481012254
S 3.8814104166201746 2.8418499226033966 3.9821511833760574
S 4.686870196312223 4.531135785648306 3.4850359784610334
S 9.23973055014037 5.889485733192959 3.6721480423641717
S 6.119719967007957 4.198029907734898 6.896498452248314
S 7.6677333446606015 6.2959498277020325 4.709556646953263
S 3.9710565288284343 7.3612129735070555 5.296072537338714
S 3.3206847866256535 6.7145461520528045 7.100281259635437
S 7.782355080205196 5.1450483572292205 6.642538301129417
