11
Energy = -41.99153353 eV
S 6.510832091831007 1.785325141492136 5.927059998598968
S 4.709787284734046 5.420790668986367 7.1653385336331565
S 7.610555857618713 3.412180953816994 5.989435688659619
S 3.6061263685311107 3.8056431116376737 6.092729258894297
S 6.8349124790120825 4.614316583520292 7.482380968255309
S 5.797663004936918 4.180688807999944 3.5781383828346502
S 4.768070414577057 2.8818809131244842 4.5440200943655356
S 4.5455317563502105 7.0800953166648055 6.232239867908225
S 2.281266668561953 6.890777597655246 3.425443127384059
S 5.168004243314379 8.316075198829882 2.7269100298988667
S 3.9130169597787234 6.888547228844914 2.40230491581806
