11
Energy = -42.84484907 eV
S 4.60041200772154 2.9267666463716195 2.5408705289517517
S 3.2357110298590754 1.7629101858490321 1.8333029867141524
S 5.469660991932801 2.0049458112377856 4.300690474423305
S 2.9941481548000684 5.524734830214753 4.288989692107188
S 4.5106277494907365 3.8805966808604797 6.907470868265752
S 3.214744896347833 5.545924475964827 6.191018837030138
S 6.1345113349412514 8.080476647996413 4.092397657891239
S 5.961000244709645 3.5801066356954454 5.5061047846181115
S 7.5344595921377255 7.325028233507688 5.136601541845577
S 4.707269041766038 7.408524941867984 6.888057215679545
S 6.520199748417813 6.800390447834504 7.167478345851235
