11
Energy = -42.32139126 eV
S 5.439729825696653 3.6134501842849795 4.455440495947328
S 6.704494479371728 6.949937908966103 1.8503525606325488
S 3.925135895330436 5.727517127287137 8.772600946463003
S 4.882902997778799 5.844397245833309 7.094928900883414
S 8.887388811873977 4.823178781175692 4.584930367795443
S 2.0319820247768794 4.514964670881193 8.035597141221155
S 4.752661215880912 3.6000104237005632 6.2400108510799415
S 6.074873179937398 7.39481926852287 3.6319350911389607
S 8.360513189145289 6.192416342764682 5.843492881547829
S 7.653752744876443 7.9845644587523115 4.901201310692745
S 2.5027126187971795 4.333619688004275 6.16488894065625
