11
Energy = -44.26557231 eV
S 8.76023344170543 6.241612146148173 5.641326974224828
S 7.444054616680528 7.717817966223615 6.919818481377629
S 6.947492412736095 4.551574417536306 3.3156472641851162
S 7.910388826974188 6.355775795735902 3.8601415804808963
S 5.963492961487864 8.210920793292082 5.831583429184632
S 4.921768970136151 4.813473333722013 3.0990076497251073
S 6.589774477295196 6.388243791436979 8.664179470238917
S 3.8615557271593315 4.604785374880846 7.74724079821732
S 4.642438017804535 6.475848134097184 8.381540422818443
S 2.936917672506513 4.789037326764267 5.925986730487228
S 3.898103189294317 3.6673385447594073 4.480202743346688
