11
Energy = -44.13106338 eV
S 4.707284228481107 8.179822970928177 7.095205980069748
S 3.5528224675987743 6.957441714062643 4.05410586927651
S 7.235421475534405 4.596657897536293 7.342337850169926
S 3.696657193062024 4.313823174835143 6.185107097351673
S 3.8961496574826926 4.225239096589157 4.276716535063817
S 7.356734557425574 4.937494895925729 4.051064027418605
S 8.380139445718736 4.150277871447197 5.689674648533059
S 7.570857254962916 6.555662273476564 7.867258624429297
S 5.891089702072408 3.6581793809099024 3.512539442524737
S 6.592521213499148 7.813289769233495 6.504672706343791
S 3.2238481300360022 6.991142384845681 5.947168008291842
