11
Energy = -42.42606427 eV
S 4.441217571580726 4.42317777293407 9.416447051762399
S 5.6033323261278225 7.545297364899652 3.3435528448511675
S 3.929513283454983 3.8049104671242384 4.475073365314279
S 8.148638837784908 5.6982380163050115 4.521054453347263
S 5.205964991894262 2.697731875621688 5.421359301045054
S 6.312812928000688 4.7315697808114106 9.287592483500118
S 4.45695335593848 6.533084864610323 6.350162988059117
S 7.586316013917209 7.659356165208112 3.7554456111423047
S 2.9839306215894332 5.238398393838833 5.785562157062082
S 4.521662304355882 8.121354645719638 5.0246155055262625
S 7.5781805928512105 4.287436711412656 3.3368459137710413
