11
Energy = -44.11666522 eV
S 7.245504628387858 7.681857027046299 4.263034202901389
S 6.458173923815514 5.973257240062598 3.96598519508878
S 3.967291496571487 7.071998333447251 4.479968966971589
S 8.152051832322755 7.576251157666455 6.425719819208226
S 4.781305472135298 8.805659625280116 4.668670477544247
S 3.7938683138626343 6.264952217420435 6.522756792555132
S 8.003163103608504 4.183270378076268 6.83152204498724
S 7.144448204518664 6.145431627347781 7.291408067490427
S 5.030644369919329 3.1554061655823573 5.745617473013223
S 3.3794863056486433 4.304218006224449 6.350416656703889
S 6.405465274103157 3.053193632236518 7.319260359316315
