12
Energy = -46.49925415 eV
S 2.861772260606208 7.024002843103218 3.048840704516665
S 8.908139507357467 5.825911037869327 8.96440782822786
S 8.056316548033404 8.570113639820947 6.069374001865126
S 6.81897788309514 7.10477409767603 5.861368716354233
S 7.080298780992474 3.756294275870607 5.575851405871042
S 2.9120397977961168 5.015563399606187 5.756016460725351
S 1.7401883011531962 5.549726650191432 4.194144840323735
S 8.118629614895013 4.1230297424708215 9.28869080615082
S 7.911328844618629 5.464930072892644 4.910441224269002
S 5.5012778065614265 3.2774784338800056 4.258107877409543
S 3.7025505952485958 8.30842341917357 4.214451383913382
S 3.7915317096869527 3.1533462289521186 5.366544542797663
