12
Energy = -47.35827359 eV
S 6.92438507363863 4.149542606808892 4.348251491131154
S 7.4048590410690425 8.27957366197172 6.167973019890669
S 4.525581786767379 2.0133518405067323 4.0329968942198855
S 7.026414218041084 6.254691389332307 6.925877300913227
S 5.815813629277565 2.5139986566590347 5.354918059600401
S 7.1904756995344385 9.454499022978283 7.680231986766657
S 5.395405543044392 8.596244698401865 4.846102349428338
S 4.646081645863705 3.627886733072475 7.068656083563934
S 4.541796481083492 6.916870260793268 4.277128331597277
S 3.0867290233947555 4.3549356443136045 6.047704961811511
S 8.121109837635862 4.961493816251851 5.777969870080855
S 3.1723135125785737 6.4085820190509795 5.852246282375739
