12
Energy = -46.9369169 eV
S 9.046450485701518 6.890450249774378 4.8442492887010165
S 7.099690177625384 3.6730576965676005 5.668449720853636
S 6.037943599207499 6.530827565652289 8.526231519523572
S 5.266342298546495 4.718087290811064 8.556147674793493
S 3.97738332253841 4.801222646603991 4.9179519405753105
S 6.058192585292959 7.088367606279584 3.427046647606345
S 7.0084884904403 7.631772366063125 5.096005305342007
S 4.320894583419133 7.883700591125209 8.234420442019632
S 4.963877272176648 9.681029493588872 8.5069197689333
S 9.701207043699902 6.257887423486195 6.545959332541433
S 5.405593815455473 3.5707991506610597 6.540757156125162
S 5.3520719818009495 5.020700014798117 3.556913802370867
