12
Energy = -47.2402632 eV
S 4.82909820661822 2.5637902030242867 6.526441467211353
S 4.394567544560041 8.398900687583929 5.673833760547717
S 4.97390303398178 1.8074834376569793 4.742786959908569
S 5.196013717972612 6.2958150182755865 9.117050706892616
S 4.999735956107417 9.177879527287462 7.7050032325360185
S 6.068209066986267 8.290072427795439 4.580041230017001
S 6.874212822097299 2.2795035113722157 3.9360247748401145
S 5.4884360269310575 5.2796819458823645 3.639740684040343
S 6.907538247848173 8.939209816860489 7.911752656431764
S 6.885766460610963 6.40802782661912 4.801844461573047
S 7.021262531905046 6.81034922029198 8.934401253902779
S 6.454274756654124 3.8547497150469088 2.606218543815155
