12
Energy = -45.99180195 eV
S 3.539130988866688 7.2442716478840685 4.771500868114404
S 4.790326128833727 6.730603458672673 7.553738374873343
S 4.744454955920381 5.907033833025583 4.174252977812732
S 6.689184708041079 7.395348977891252 8.058458587031314
S 6.341036293911581 3.1989677448591896 4.617224069190274
S 3.8925963750311485 3.745063202277046 6.9322352316378035
S 7.947905435592933 7.073463738194144 6.511892380017586
S 5.1964640638967285 1.589778375879433 5.111298774079826
S 7.777270650580697 8.806431765927066 5.1637014136977175
S 8.069991692044443 8.157175035442307 3.3686598657403524
S 5.552920594828003 4.856568305062621 6.292226405033489
S 3.391185176141045 2.5782175150426725 5.322132800198138
