12
Energy = -47.55752224 eV
S 7.7317193730899545 3.841503786136701 5.275865557830622
S 4.54134106902711 5.085240026062538 7.8513298290805205
S 8.304406138156244 7.144298590914638 5.926595916829907
S 5.137070221923278 5.111355691142576 3.2611367133512266
S 3.127251931749852 6.598234203067354 6.914093503166637
S 6.887187478190248 5.850696132573334 2.6330642433814746
S 7.925678651533449 6.072444494329787 7.560415829653115
S 3.8408579058903705 6.704479415549409 3.6421526980013184
S 4.194203425721627 7.549362103374114 5.501503680959045
S 8.36425511212693 5.360573169758652 4.311625661428494
S 6.1350586094637904 6.570217114621432 8.420203964735267
S 3.58782018291451 4.560217874156302 9.436682048865004
