12
Energy = -48.15511547 eV
S 8.662616023649518 4.223651492643492 7.228112750887234
S 8.62611397178052 6.636205830345978 5.893452912852148
S 7.087184124826502 2.985787210905568 6.183244603155796
S 4.980099643229888 4.708624622788018 4.264915651333579
S 7.929686444511562 5.06114967217857 8.792746380381338
S 7.984789412306785 7.43767057705966 7.511545723932492
S 5.306487448049567 3.834420915227024 6.2552259631700196
S 5.445726576455798 8.013338389135209 4.425379441620147
S 3.944306323485926 6.39169964436869 4.385424364766021
S 5.738726586139222 7.42723574988931 7.656568919948487
S 5.074781259946315 9.270286920397572 7.530656564852585
S 4.640048153562929 9.558100992960723 5.305455230388397
