12
Energy = -47.79884653 eV
S 3.2979138749033665 7.708257916325189 4.715201479235333
S 8.434168549823122 4.705683551557847 7.430472018474268
S 5.8107081104930485 6.904741983928666 7.255588519131058
S 4.5080371931053085 6.413352431185754 2.013473344704655
S 8.290755199636527 4.156537984703332 5.416250021608039
S 7.913058752966717 6.660354966660017 7.5884897652549705
S 5.87307848146058 7.3185131573648405 2.9898534774741035
S 4.9307971937704655 4.188104854337408 5.352112424445898
S 2.71354118519997 6.672043875516669 3.2216365916709027
S 6.650105688029218 2.944013734823125 5.342184805938916
S 4.7627103218603155 5.717388542275823 8.44568550008196
S 4.046079355957985 4.0330689826691195 7.119400914962972
