12
Energy = -45.9953511 eV
S 4.832403317280311 8.18960236242035 3.5873985980038947
S 3.3181770045818566 7.271060569104594 4.701370552658146
S 7.575538706174293 3.8986818998493935 5.167280085680165
S 4.846144974824533 4.354561644815916 7.07366617772347
S 4.071513663837752 5.1612522271393395 2.034724578569361
S 4.717097029131403 6.008532975063253 3.6110647875917223
S 6.211912047613898 2.9853525321919223 6.516608116937125
S 7.98945115395457 8.391820264107759 7.148434835634969
S 4.763053498852594 6.572855189636449 9.606566700322846
S 8.68876380433095 5.221927635492839 6.200113044529084
S 7.553562478102048 7.075562338786754 5.815545000814918
S 5.795497927132472 5.106509230552038 8.912236497730596
