12
Energy = -46.14330521 eV
S 5.2195413328534705 5.257513855298776 6.1645433086979935
S 3.567461471568347 4.999197597861401 7.38888265732192
S 2.332159378588851 9.33929241324858 5.92670592672022
S 5.674651190112353 3.0407829767593415 3.969276303262214
S 6.951558964139293 5.034964643748787 7.33382003983948
S 7.99478290978595 6.761749139355018 7.158596368231192
S 2.887851921155508 6.806688271429679 8.050502348056975
S 6.7514874580617485 1.9920347843599695 2.4926167927109746
S 1.7822736892146154 7.536092106495537 6.339820442521906
S 7.988606974154688 6.2343596091365 3.8477293314656604
S 9.18436993474961 6.4646288335126805 5.389144654098789
S 7.625646313357213 3.60982805837064 3.5801487541133916
