13
Energy = -50.58642764 eV
S 6.99694129172773 8.66843989757397 7.172300914007397
S 6.8657102273036 3.3917757681443046 7.297310646370298
S 5.4444901729595925 6.110004194573795 8.682896607871994
S 5.671043641833724 7.97451024608505 4.057173056674185
S 8.889862229141128 6.859176536009908 4.694292807719963
S 7.575666306925346 8.254561779797205 4.868736647932669
S 7.331956847294895 5.927391051348675 8.767864366465128
S 7.373962171655113 3.7959356996191445 5.066829386359451
S 5.636946309165436 4.004332391854379 4.271610039567343
S 5.16187691447992 8.129100838900143 7.400691510115496
S 4.3403674018932445 6.163143010136064 4.123131836152685
S 5.006506663298659 3.8166401802360426 7.39979754204994
S 2.9845265579500175 6.1847168205599665 5.477093053551666
