13
Energy = -51.12722441 eV
S 5.299576112152498 6.957980006002112 9.04920220530345
S 3.6080719515355058 3.6213495393374786 5.385496173089852
S 3.6080719515355058 6.977802684967522 5.385496173089852
S 2.935131699591406 5.299576112152498 4.39106446327542
S 5.299576112152498 7.696468872638993 4.444751859248467
S 6.991080272769488 6.977802684967522 5.385496173089852
S 6.991080272769488 3.6213495393374786 5.385496173089852
S 7.664020524713584 5.299576112152498 4.39106446327542
S 5.299576112152498 5.299576112152498 10.02864851907736
S 5.299576112152498 3.6411722183028794 9.04920220530345
S 5.299576112152498 4.349684435526077 0.7769097433823535
S 5.299576112152498 2.902683351665997 4.444751859248467
S 5.299576112152498 6.249467788778925 0.7769097433823535
