13
Energy = -52.91565416 eV
S 7.672782548859385 4.618683309857394 8.05405025099632
S 8.73034438616974 7.142397646808522 6.051008039259655
S 7.215699645666814 6.463464646025849 7.177970698559286
S 7.159230271116263 3.1374478083656077 6.706100890251948
S 8.511565571590525 6.259092477101157 4.070457034337553
S 5.211272253429714 2.5177520228568078 6.950929359914912
S 6.580360738277191 5.763214849249541 3.8371449242654143
S 4.0374333607862924 3.474609561942286 5.525722098806192
S 5.45275312212691 7.346320899883892 3.0580686409351556
S 4.753716965795977 8.46878275583243 4.6450949433553586
S 2.620801030899048 4.638541031096477 6.471599652068148
S 3.250866797771773 6.549998224014527 6.934817972558212
S 2.9237324123029156 7.791925481117096 5.301145573014254
