13
Energy = -52.93263781 eV
S 8.53166735364842 4.007435685274376 5.51980786960262
S 7.718157543304404 5.771782482614273 4.676841754109457
S 7.532068296987013 5.6038363932008055 2.686998643543846
S 7.286261358207395 4.171618085611012 8.585528133690293
S 7.029705478985995 3.3025891271233254 6.71487300237319
S 6.667095224461135 6.135741283840472 8.484870030521652
S 4.6819039240946605 6.307165706430157 9.044425772062928
S 5.688916366942189 4.60929121348182 2.160654122834992
S 4.316675190029233 8.014273450510306 4.839424960692851
S 3.4401769828216975 6.0277791379401835 7.417279185576253
S 3.060854158288082 7.828324935789088 6.475607000931859
S 4.293812398915465 4.990520677580478 3.5568822461736307
S 3.4844137071272514 6.917282276202589 3.3118899710444496
