13
Energy = -52.7806613 eV
S 6.723380430174314 2.823319983340301 4.74096115937551
S 4.854870834938835 3.698202256073771 4.53502820666832
S 7.886171840517832 3.5220091132624165 7.8114591938006175
S 7.981559555790689 4.062484255172924 5.82136216580492
S 4.6595636575793575 4.450912862810546 2.608736971053218
S 6.239045676602513 4.484742017478836 8.6905577998981
S 5.098944455643019 6.4578663864534 2.422770104560761
S 6.739364374020133 6.2879345700858815 9.401054698912684
S 5.717737445787506 6.658621105930583 6.2399751503553365
S 6.777005016100664 7.60378262323834 7.6292187909322156
S 3.3649695351538185 7.51323531541297 2.875145148772483
S 3.7060203403384557 7.335556236200405 6.19182820960242
S 3.7468314118271753 8.611233905975842 4.586642661355065
