13
Energy = -51.91747576 eV
S 3.4647828455603333 4.361506323953918 5.2028270197995985
S 4.3296758933594 3.019057496751083 6.569117331182041
S 4.618289338979914 4.109806985352096 3.488679516386876
S 4.739085530236558 4.08707602238098 8.211817082531605
S 5.497781986841541 7.397979387788588 7.914601229078833
S 4.274648161710129 7.722446096151529 6.4481352764373225
S 6.584894830702044 5.300455816408361 7.680435367548361
S 6.60065726883701 4.43476472023403 3.7641577380667712
S 5.625641291377928 8.856819999524255 4.8989719224969575
S 7.865561281637916 5.324341353019603 9.11118669472196
S 7.308137374286821 6.393443263630134 3.2122638330406916
S 7.383961645583815 8.765985743009802 5.681762989952976
S 8.483192128147861 7.019410776344078 4.6679613510348545
