13
Energy = -48.84054656 eV
S 6.192977229470451 9.570737475362673 8.58989090601691
S 7.840852546488706 6.414089636806722 4.885119410283244
S 6.4140040296146115 7.840852546488706 4.24758828892303
S 9.48872786350695 6.1109676176147305 8.58989090601691
S 7.840852546488706 9.267615456170704 4.885119410283244
S 9.267701063362795 7.840852546488706 4.24758828892303
S 7.840852546488706 7.840852546488706 10.858233195945616
S 9.48872786350695 9.570737475362673 8.58989090601691
S 7.840852546488706 9.947595587261548 9.919943937944282
S 7.840852546488706 5.734109505715869 9.919943937944282
S 6.192977229470451 6.1109676176147305 8.58989090601691
S 5.354421055240451 7.840852546488706 9.30399150501956
S 10.32728403773695 7.840852546488706 9.30399150501956
