13
Energy = -51.58916169 eV
S 6.447108875257244 8.918194701181793 7.527070106640565
S 7.07612136031187 1.8375908410401167 6.439905094413573
S 3.730541288695935 4.538583536988905 4.893596434840692
S 4.928882082416707 8.50143019093817 6.224816096481921
S 6.36605782493779 2.6099965871824593 8.06398100330904
S 5.4760837488068494 9.094048697577293 4.3121832938617235
S 7.599769460347983 7.0924517536161416 7.652823568107891
S 9.287315395607223 7.250783530699898 6.718762577071091
S 6.68598701298986 7.647446974412454 3.4792646746764793
S 4.213079203254864 4.941401970605974 6.864676004722536
S 4.296300903150274 3.1641792639391104 7.8818779682662425
S 5.514188048045853 6.195788140915359 2.5810484929955715
S 5.472361765487072 4.50306529865373 3.755701933526726
