13
Energy = -51.00391421 eV
S 7.972994603884804 8.111954389641555 3.89931641788308
S 7.1742710551043 9.138591234493642 5.340541932105707
S 6.763634577973155 6.214320359248671 3.7143215209657785
S 9.312098279129543 6.804644254860341 6.527664621360882
S 4.908626324437514 6.6784215619257745 4.15427929082633
S 4.673361862156144 6.57439161132946 6.411162807289202
S 8.181219335845022 8.168232551043221 7.2387381246781475
S 2.861664218681413 6.039207216636838 6.731972121927082
S 4.700388283265075 2.6633055975797957 3.3420683118237045
S 3.1990529920716035 2.9212079156325808 4.544942169403191
S 5.820302384714336 4.3891231916230975 7.211824671166969
S 4.131549950135991 3.572485250150665 7.718944605024351
S 3.565471193520016 1.9956369948717458 6.395062652849361
