13
Energy = -51.48338727 eV
S 4.828521072493203 4.8166453932348245 6.346572328699956
S 6.639253346233972 6.281675627368358 6.175763968797266
S 3.5099889989715862 7.602993306420161 4.598157316096366
S 3.2607998505052596 6.588403937295056 6.231666154729915
S 3.021810363955924 3.3619036984843307 6.157800530512406
S 2.395011179134928 3.4667823012466985 4.2760883747059095
S 1.2141395235616086 5.248008089385952 4.014052766341487
S 2.4026964907887844 6.4863999984830345 3.012955826074806
S 7.269104121364031 6.203328611030286 4.295441257166212
S 8.455597397803421 4.429402899273847 4.008805234160322
S 6.3958125083224795 3.0517442530069587 6.189418636228827
S 7.2712631133388035 3.2131308833326626 2.9766652911967046
S 6.153809915286675 2.067645524778713 4.534548517840838
