13
Energy = -50.51363652 eV
S 2.0545285048587307 3.807220336631138 0.08982687330128396
S 6.84974458461792 3.474794728404151 2.409433278949258
S 1.8407908739225916 5.515758849627 0.9691684126555907
S 3.7411334337240434 1.707442883956275 3.596831653046506
S 2.2977900709309846 5.252915850005198 3.0595645863364447
S 5.378337094212544 6.443133173913843 2.5547686237650353
S 3.594380843510673 6.776626275537944 3.501104626351912
S 4.731182350803336 1.010335422155877 5.228063354462563
S 1.8297263278478557 1.3514259445545376 4.3872390088858175
S 3.9664609381245852 2.2963757300979935 6.92628253038342
S 4.6818032545387345 4.0674996217393495 7.090813734098556
S 1.9307856856989674 2.708414180462551 5.8524396496048885
S 6.414260432171891 4.898981397877139 3.645388063121988
