13
Energy = -52.25499861 eV
S 8.372013119423325 4.154356251842625 8.661599662232256
S 8.609663417127969 6.512449050588185 8.167601358337626
S 6.423830009766137 4.105704601947674 8.82747302737097
S 9.421320702599076 6.432003211670252 5.814329358196001
S 6.804709186554189 7.052899681200264 7.925085354639172
S 5.373165507665954 3.1747920507372918 7.136947007576061
S 7.340831722697693 8.810506928008097 4.656725216922121
S 7.709156229775745 6.67010249626048 4.944638641509883
S 5.049487287876374 4.404857971622498 5.611202429141054
S 3.3668522520073965 5.630020852071282 6.23327186027467
S 3.9787888431277385 8.706075839074682 4.892289195605114
S 5.635196070251926 8.74362574086616 3.591567512197389
S 3.034395385988086 6.857659948109752 4.6717599306902065
