14
Energy = -54.94245109 eV
S 4.776207816414947 4.36307878686448 1.2591199543685843
S 1.4488219762743784 4.0041514078559075 1.379662372818023
S 6.26185585382333 2.0022264966230505 3.934182798553633
S 1.67243785964351 5.774344950930624 4.270679369140496
S 3.2791994835333496 3.042735707797832 1.513228710656766
S 5.278588368522634 5.126455548504386 3.353320898709913
S 7.053460400683724 3.852299675775273 3.8649529296408627
S 3.735034759964063 2.3264016194792405 6.167271338782617
S 5.636655800722388 1.5427896099283613 5.868910080067352
S 5.989764903880454 6.906075544497348 3.2011912082637153
S 0.7927903916061424 4.275010524587306 3.3935339287467463
S 5.66135821951479 6.546033924297004 6.809943721314117
S 3.8527167851027873 3.7821037475837453 7.579358837003089
S 3.888256365128586 5.783441440090356 6.731792836749012
