14
Energy = -50.33558107 eV
S 8.531186934101576 10.794429529357625 8.531186934101576
S 6.2679443388455285 8.531186934101576 8.531186934101576
S 6.959331171400081 10.103042696803076 10.112864911683792
S 6.959331171400081 6.959331171400081 10.112864911683792
S 6.959331171400081 10.103042696803076 6.9495089565193595
S 8.531186934101576 6.2679443388455285 8.531186934101576
S 10.794429529357625 8.531186934101576 8.531186934101576
S 10.103042696803076 6.959331171400081 10.112864911683792
S 10.103042696803076 6.959331171400081 6.9495089565193595
S 6.959331171400081 6.959331171400081 6.9495089565193595
S 10.103042696803076 10.103042696803076 6.9495089565193595
S 10.103042696803076 10.103042696803076 10.112864911683792
S 8.531186934101576 8.531186934101576 10.831734
S 8.531186934101576 8.531186934101576 6.230639868203151
