14
Energy = -54.72436521 eV
S 7.376169961115505 9.040348549273618 5.698257582694983
S 8.936552265489908 8.961293453237959 7.274257373281585
S 8.243861961793652 7.781718401789196 4.251464445918336
S 8.31707243117449 10.001164999999995 8.754628760410137
S 5.760561312849599 4.076468744024065 8.754628760410137
S 8.162699175352849 7.1694667055150125 10.013572619640584
S 5.91493456867123 6.908167038509062 10.013572619640584
S 9.482544262464327 6.511646991777011 5.047145927099751
S 6.701463782908556 5.037285194750458 5.698257582694983
S 5.833771782230428 6.295915342234873 4.251464445918336
S 8.733460389158466 6.67053353838733 8.232391690912362
S 5.141081478534166 5.116340290786122 7.274257373281585
S 5.344173354865618 7.407100205636755 8.232391690912362
S 4.595089481559748 7.565986752247052 5.047145927099751
