14
Energy = -56.31323742 eV
S 5.45122230254881 4.771723250824118 9.318556849450072
S 5.188502695588886 5.12963234322387 6.035463996432989
S 5.758217940374446 3.186243417243905 2.3787402624183946
S 3.968364378134133 2.832603708683747 8.087220144184833
S 5.382826590976964 2.521024699020031 6.870292010009949
S 5.5157686958191166 5.351568770519661 1.7277781057249508
S 6.82506822721534 4.502603194240333 8.042200264537652
S 3.454133730036119 4.816825278761245 9.31855684945007
S 4.231224653254884 6.191984046803945 2.862527507131985
S 3.7431911304303807 5.389960504698515 7.223927282199345
S 4.156883664858549 2.8183842140827244 3.4603670078160618
S 2.2412429177584556 5.633542459088571 1.1031443769053062
S 2.517220920975948 2.4571055818374448 2.046698101844122
S 1.2961719982778976 3.9648163661905724 2.3563313425958157
