14
Energy = -55.16184341 eV
S 6.299480669254883 1.880013393636038 5.928700557118312
S 9.101180908390287 3.6407719470405784 6.3351803616173505
S 5.605049558598086 3.130591700986017 7.469469714079858
S 6.549104382144707 2.903792250506069 4.2422459435050826
S 8.506535741271525 4.000899425417262 4.553114749288386
S 4.878083355889131 5.933414692711958 3.6652605622439607
S 3.576643109601662 3.435976393536724 7.2067037267276195
S 6.353834657580431 7.343158568688146 7.677586828879275
S 4.670925419532915 8.322778999046276 3.64483775449587
S 6.655191295190796 8.803887845890447 4.7057399703211455
S 3.159048269441775 5.453564848141752 4.491248923128032
S 3.3152271153905173 5.378612148202001 6.610754035767942
S 3.1611908815170318 8.663056316203862 4.754057084558353
S 6.084132778629351 8.985039595781114 6.658678272916876
