14
Energy = -56.48478994 eV
S 8.538492177773978 4.591562678267336 4.179272732997034
S 5.03753334980137 5.8265295499121015 8.763916173588262
S 4.702037291488572 8.030054469129178 8.635937046017274
S 4.163800898121512 4.745882565417164 5.763372959624941
S 4.723829957362235 8.320815439327138 6.184209709041761
S 6.37072847105865 9.377760601762656 6.0774499701921325
S 4.748320302082089 2.844166679464939 5.508799811993755
S 7.4694108034706765 6.095394745151675 3.299728820099091
S 8.115928680183197 8.174880097254993 5.816400350918945
S 7.71112527205171 4.405735829487037 6.118852941526699
S 6.353644137208489 8.855247049670663 9.130806789116997
S 3.5039311866262124 4.992357578489683 7.768706734924001
S 6.740390729847441 2.661327967251154 6.32574883725751
S 8.428038677520107 7.878693919750463 3.8210758276604153
