14
Energy = -55.56140992 eV
S 7.729133885391281 4.506672478518844 10.179485538621176
S 5.847933564211141 6.723151270769141 8.38574831920044
S 5.6496349602114675 4.376390871288901 8.920450421718003
S 8.943755331148138 4.389810496994431 8.628032546724285
S 7.159567723265223 6.511412730571467 6.919639561786077
S 6.151658154627603 3.5071813619430166 7.314076691710704
S 9.068603179801887 6.323113504993257 7.783229176727785
S 3.7428101847215056 7.51661580606645 4.899468145560765
S 5.857104209106944 7.398509490910996 3.619082510385941
S 5.711056200651943 4.934177648958226 3.852460683849116
S 2.593309304311154 7.184302127885075 3.3380083670890763
S 4.505875284778655 4.70554584640518 2.32035069533512
S 5.236186827287236 7.63149839702639 1.8430241415139121
S 2.5299389718589564 5.094959968164801 2.9841687294987667
