14
Energy = -55.18074035 eV
S 5.588072089210901 8.292805042014196 8.203643051555833
S 3.7936059299974776 7.985704509714455 8.832053466985629
S 3.5444048805397173 6.822448791560413 10.348972299107166
S 4.87292743351791 7.295445015169252 4.01754433845981
S 7.840485234900259 6.022044212933372 6.668095335623794
S 5.932969208675348 4.2988715915585765 8.389419738361369
S 8.015586304822657 4.27506770953554 5.922875349535926
S 6.490059029889002 6.942660081978778 2.5052943481241643
S 3.4397918274387123 5.982981313411532 3.667247264909563
S 5.937208129564221 5.421800122249343 1.3739864474825034
S 4.008269943765693 4.142574062982869 4.614519667471611
S 6.667022571165215 3.062233993505191 7.136439275430014
S 6.419327872846748 3.6142584409963168 2.41811064890723
S 4.575290766829077 2.9662428992557337 3.0361958368038535
