14
Energy = -52.2737291 eV
S 9.653420409337333 5.370051287204834 4.335278704550305
S 10.175512964977017 5.741661717432354 6.130702943514843
S 6.733714622145123 6.245272895194754 7.959522067262553
S 7.177516127803122 4.185229374488125 8.082154879812705
S 6.352585126100429 3.612332728991452 5.128660137306376
S 5.613564234486879 5.489570033767592 4.652093991327993
S 5.200733566997856 6.766256922738636 6.4668645190490395
S 3.2204467566395985 8.720213129244751 2.240392757524814
S 5.031274525718492 2.5402916479337727 6.1289406885386954
S 5.588088695071525 3.066228620506192 8.324883059234908
S 2.844376652628321 4.314844357223198 2.3037001452592842
S 2.8210960858173184 7.7536429191026 3.8320430319924768
S 3.442439326883985 6.40585187926649 7.151360366344573
S 1.0070298576358225 4.584561248517449 1.8883944980431837
