15
Energy = -59.1477162 eV
S 7.483566833604895 5.312785766275403 2.101069706461157
S 5.182965596415506 3.9116429828634303 5.231255934621856
S 3.7262392735478853 6.6218402668099285 3.8806415942930967
S 4.476064643410262 8.249825190819873 4.95916906800413
S 3.3570177847879306 5.043790640748045 5.0952490821173555
S 8.209282894808316 6.022479708765809 3.7405758921735486
S 9.684264673546915 4.622108661360961 4.485631093645748
S 2.0693564214741382 6.908821139107859 8.276707525876091
S 6.875203601784685 6.426107518941287 6.959464713844907
S 2.926708796255193 9.195393343190347 5.8840751516153516
S 9.844030396921434 5.0404347756254895 6.510780295556133
S 8.853338658216172 3.7168813966614684 7.608017899792527
S 5.367226627921291 3.3185739209988276 7.091607984090139
S 2.9766779279853854 8.587576571950116 7.957252516516791
S 6.836067591661653 4.889749838223228 8.086513263732808
