15
Energy = -58.46251231 eV
S 5.954157924724296 4.959907968843589 0.7328681160860218
S 4.101067463552709 5.689478542359106 1.6745727208134757
S 5.9724044877534705 3.1340486033548274 1.9861762358625745
S 4.109017050987465 3.8383409232337753 2.909049025300898
S 4.389182784835357 7.273316977637898 2.703311553571349
S 7.428683850420758 3.1070521780643308 3.229299695243487
S 4.084439462557756 4.7443335462402985 7.21532020592558
S 6.117256923845807 4.49943430635281 7.217995585950763
S 7.68339845075233 7.543605846825001 6.975516039316433
S 6.21252777933272 8.686689341395292 7.4263305415403185
S 7.050330159630616 5.7155887849721365 5.880974353710172
S 7.995505359240105 6.509945423123282 9.331084995602533
S 3.6625729012508774 6.441980863361335 8.415677285314148
S 4.6418084202616425 6.249691983475494 10.151013671606558
S 6.478209829770734 7.4871475596773385 10.031372823072124
