15
Energy = -60.7651225 eV
S 6.207629891407253 7.547526161958245 7.455751196601295
S 2.817794020179097 7.634290618681272 7.238163731168583
S 3.8242653114727636 3.1091979319168446 5.769716371978164
S 4.474047994414995 8.715401463552764 7.678485070937843
S 3.7363382362917146 4.456767906220233 4.2406487061070095
S 2.0895489031177483 5.694052448002722 4.643912257849614
S 8.047673413176094 6.564131310212106 3.275094494845877
S 8.098075764263157 2.128363255634024 5.499140375613947
S 5.434605670266103 3.6769433173691706 7.042312416653195
S 6.694972799872879 2.124855643306601 7.158688376729799
S 7.251259075644044 8.49374690473808 5.958572165608848
S 7.5999543984148445 4.619916424985595 3.5145584410175057
S 8.797258958326486 3.9712067852385067 5.222552370270958
S 2.594209535804879 7.603712698191108 5.127333379469294
S 6.6072070802320955 7.839206094514138 4.1065190560199785
