15
Energy = -59.13228544 eV
S 5.532619682922819 6.753662709835289 1.5036651365851506
S 5.9053978301291155 4.487622846793371 1.7389426515806508
S 4.545423438103184 3.784861851351307 2.894516316238207
S 5.042374738474064 7.6294336538463305 4.645742383915582
S 7.486493770823624 4.680722107723337 4.2977264920246565
S 4.074197103358837 7.177726991240341 2.7377730525951938
S 5.952945199024276 3.789631592054007 4.988746358441168
S 3.927153959619872 4.730917636729463 6.362549716073313
S 3.765877784761487 6.9925810188687105 6.021875345037731
S 9.06375740579687 6.712487964223113 8.056648594641517
S 7.662707336853486 8.43922514792798 8.379308682464941
S 7.957374766056361 5.231221420274099 8.820267151544458
S 4.235043761626469 4.392388291396244 8.225665309602046
S 6.134497461197222 7.472843065748252 9.23715542357972
S 7.151658650228392 6.162196590963739 10.52694027465188
