15
Energy = -57.79744845 eV
S 5.751706603346456 8.880775501969492 4.752879850861334
S 8.42615876996871 5.7834743544371845 4.995842119998531
S 8.831260376287936 7.648203517195792 5.302388492156557
S 10.266813205955682 8.45435143632995 4.294928749983988
S 5.083265681636295 7.1909115784441635 4.18119543443307
S 11.891549459304118 9.894264224244363 7.25094207776578
S 4.016984504720095 6.399806420710259 5.910915332508168
S 4.211584525446129 7.728043409110835 7.2616319163825525
S 13.26017656510322 8.751830373778496 7.924963742438394
S 5.5339414403076 7.472354503505309 10.887822388957135
S 12.964698539410021 8.754312614477447 10.077765400467673
S 5.001552116934523 7.927885752322635 12.661058677358936
S 11.471320674012466 9.909186285900951 10.35237742527513
S 6.8549456237852695 8.563365583181946 13.624039980069202
S 8.174297193486305 8.38148972409603 12.261503691048562
