15
Energy = -61.18906178 eV
S 5.753189267024956 4.87746475475247 1.4891671493424994
S 2.931543978329394 3.415010074499118 2.237150670656856
S 5.550478021790506 1.465514033949506 2.0041341784287487
S 7.264781608195069 4.349017384178234 2.654121918787266
S 4.022574599874209 5.077938070331408 2.7283421530117113
S 3.8062496143408615 1.8228846045690137 3.187610821502366
S 7.109381538680803 2.1407596262900555 3.013982521697867
S 5.15932156680079 7.5660607170916405 5.293399824892459
S 1.943664536148033 6.553329817980666 5.574643984390184
S 3.3178832779983782 8.000614795274364 6.115272238051934
S 6.153854731227618 4.5234043166883735 6.366812797471508
S 6.30940901190547 6.556996763423777 6.682972577015406
S 2.9516971174428437 3.538275915908718 6.683517137012446
S 1.768992269427507 5.175612740856157 7.102553343028467
S 4.757545432115242 3.737682955508165 7.666885256011943
