15
Energy = -61.18695993 eV
S 5.769197350242648 4.37465719868862 1.5583308545903751
S 2.4953752526642385 4.649085463911661 1.1999904560799657
S 4.010074198546416 3.3197080243173698 1.5734161137676594
S 5.729089511617152 5.407835571642871 3.429036784603165
S 5.292536188911768 7.3003088781563195 3.0638513024220155
S 3.0634946189047505 7.462204457150892 2.893644060883758
S 2.3022574648335703 5.646657584650602 3.077773751625671
S 5.287839633555008 2.470323867757942 5.560650935525817
S 3.3676959208175057 5.139651277417006 6.3881373048557775
S 3.5751048417233657 3.088941009695278 6.536014550945296
S 6.835785764650001 2.3165749065857297 6.917343070375782
S 7.964680135253147 4.045338774436048 6.8618601043412895
S 4.120799019184479 6.037294571753108 8.084861720488025
S 6.040116062141702 6.687178047699045 7.689674367194876
S 7.382210454642868 5.290496783825353 8.401671039988978
