15
Energy = -57.67071122 eV
S 10.448982753849478 6.302259798200215 5.407927148416856
S 8.728048737311696 7.276783017963913 5.047427878403163
S 7.304912484242287 6.845602079615707 6.655788868351186
S 11.864378396956779 7.629266725196274 6.230905630058618
S 5.601352238857454 7.437200809581135 5.971266625626339
S 12.545225793979412 6.779550595438443 7.991765261374052
S 4.485390577618659 9.056581198677737 9.834896213661144
S 5.523940418886612 10.62321011661561 9.472086926186721
S 11.634871830971582 7.56458011200748 9.631630187444928
S 7.689261713819995 10.24271073722503 9.599858503885692
S 12.947257275878156 9.270152742985447 9.98737061517473
S 5.7345644165147585 11.934715466456598 11.249403335803672
S 7.883529087427499 11.51142627945087 11.411238650291633
S 12.426199986800032 10.133106903031486 11.63067477132577
S 8.288011455482527 10.498780586150955 12.983686552591971
