15
Energy = -59.4094968 eV
S 3.020723550893962 6.724000570688404 2.2643447356465782
S 3.8548557372870893 4.137744696840132 1.5290763372908704
S 5.486854387482819 4.4619655945891 2.4607732480484357
S 4.677642780330973 6.969201204190259 3.173912385828589
S 1.508657520227511 5.968171900848595 3.8087352686438707
S 5.318032594657386 3.605190867658792 4.555489027448878
S 2.6624437291189 5.436647268383085 5.300601372309957
S 8.769523173112278 5.147866902689995 4.961391690092311
S 3.3779159244302286 3.407791142540168 4.808518792361796
S 8.66159161709954 6.903738697913436 5.714422469340295
S 6.384853341720394 4.121617401946638 7.966201406175687
S 4.608667967369423 6.874031606454943 8.3516128207977
S 5.245084211632028 5.30023955749841 9.29733690880535
S 8.523858314384734 6.683708219331331 7.986055145320845
S 8.375798791195548 4.734588009369946 8.298032032832054
