16
Energy = -61.13550808 eV
S 8.078473680920336 4.379046426880755 4.471548146459168
S 5.917097883936247 9.696441345556513 6.04877407094106
S 5.961864209567318 5.084764806851108 9.89480934151585
S 6.411364183946495 5.809892386326824 4.015316811415492
S 6.80939965586019 2.7787190800065322 5.659829951449285
S 7.395816884736424 6.329725492657338 8.950875830295274
S 5.8131967030609255 7.386528956696558 7.964190059287495
S 4.267627392904484 5.7614045497587245 9.155625491627887
S 7.370121893035311 8.567343871418181 7.104993725938763
S 9.240940628672746 5.097985011288304 5.8165685468164465
S 4.239000495560328 8.837420291948053 6.621496921429358
S 5.793261542581941 7.252983373309399 1.141644098578004
S 2.352422664785697 4.739083097940855 4.9089992507622044
S 4.999603553269238 2.7081408304734915 4.8988696072924816
S 5.804966493682815 5.53778686650255 2.0605366031362102
S 4.042577379079097 4.485561854677293 5.79066787730255
