16
Energy = -64.86023087 eV
S 9.253976688729374 5.52726459516859 2.830771606215725
S 8.342639802368824 3.8610404878502638 1.960948593279361
S 7.84480480661459 6.267127252629383 4.134714435617338
S 8.148179334904778 2.327669344507266 3.2867644101649165
S 5.255262899867405 6.05007566324617 1.9825692621693622
S 6.39895317624835 7.346461698709098 3.134568668335104
S 4.857091183908415 2.8798257634918754 3.154820594467979
S 6.428865412646191 2.661528797361153 4.459716889675698
S 5.009268269561025 6.079978293775811 7.269042766526603
S 3.2982425006083282 3.229633542793381 7.191911389907487
S 3.388615927611172 7.105495333853629 6.171561373261942
S 4.159922469690351 4.834262002482502 3.2431451881223192
S 1.7111045012334656 4.234814357785526 6.060938619573926
S 3.9856106488067127 4.732666602864717 8.382989469375106
S 1.8804613097414482 7.377335717148833 7.358553426732453
S 0.6798491950729832 5.372793790592058 7.256678316479549
