16
Energy = -62.64816827 eV
S 9.32392313639797 7.939928692465262 8.94038616976655
S 9.322313729189505 6.641874977495373 5.222641716966935
S 7.923622847465285 7.913143503710792 4.392931373876463
S 7.429128491686551 8.312112020725591 8.895291657983453
S 8.201999948028853 4.022812516522726 7.029212246158828
S 6.871270564733385 9.512152013992285 7.186053088050113
S 8.70020812136632 4.6781934211838685 5.108588038772844
S 6.3609911854378005 8.175259706553005 5.725207302324981
S 5.146082896976729 4.674962963638251 8.551175377310395
S 6.2530840885247665 3.4366051927344774 7.221091000191176
S 5.385359313666115 5.596396969539341 2.6167319031217797
S 4.859329700423714 3.9597223679348583 3.489935756124586
S 3.3568675003532893 5.153309976388926 7.737727155051065
S 3.363125757296308 7.229650578184636 7.088693477156911
S 3.0029559806125716 3.728041943357767 3.949427756588543
S 2.6802248966201443 7.349548773700926 5.285779060563108
