16
Energy = -62.77310107 eV
S 5.500840925966081 1.7440003246864162 7.212065819391346
S 6.624884656149956 1.7019109063333897 5.262223887432686
S 7.688713374380345 4.708021197657689 8.87399324255613
S 4.090922937509767 3.072030809386122 7.199264942777665
S 5.616170935172073 2.9119483125106562 4.031814485728351
S 6.4078179417940575 5.716463695607614 7.853162880950356
S 4.347378408857411 5.016173567822343 8.60975316416803
S 7.674506386684078 5.794527659670245 4.441433636627812
S 2.894875914707735 6.106770913462779 7.991584987379643
S 6.922069875536243 4.389742915766076 3.211357344800337
S 6.45211077679848 7.513871902699425 4.863358764001241
S 3.1827007786566344 7.179111777858945 4.234273026630381
S 3.047197007258571 5.168070927154768 2.9064711041547566
S 6.126692402778053 8.61181868984071 3.254032121349032
S 3.5917293897594744 5.793447163112105 1.190933455034654
S 3.851244307429889 8.396059306113996 2.9009910649853805
