16
Energy = -63.14079391 eV
S 6.337006076404104 4.8584460240257235 3.560126272320774
S 7.159389342381673 6.570364255813489 4.090351096160784
S 5.791440211541289 7.564991160024655 5.553778272814792
S 4.200940244725059 6.41392065305009 5.774402894626408
S 0.5993105502475532 3.1118954395667857 3.8795702081531314
S 2.6276682719945597 4.311344693045445 3.170144851204452
S 8.73143337517781 3.1778995926049225 2.1140817139981265
S 8.73143337517781 5.936151857280841 8.167502623971654
S 3.4826521678949645 2.159034129357986 2.3291247315195407
S 0.5392284716731033 1.60464929529378 0.9438494778475952
S 4.68454521448204 4.899624033398731 7.214779946363069
S 8.349225828742576 4.150479874120567 8.693984479632077
S 2.0444737684814656 5.1441973103109975 1.5702468233837106
S 2.5230087889437383 2.262041882898482 0.6131094833979216
S 4.970312180902021 3.232037489813169 6.056137474915355
S 6.774185073824539 3.433105221050022 5.104512574161973
