16
Energy = -63.14388658 eV
S 2.3796119999859227 4.2856267655155795 1.182528624439888
S 2.7778978972485304 6.122216816716908 0.6918732052956678
S 5.858353613019704 2.6112169876880738 1.4106502875926445
S 7.185724101004497 3.860480796368204 1.9870506630510305
S 2.2934732393467345 6.5246454841757275 4.744779084495234
S 5.647132663057061 1.0575233577695997 3.0670566650537547
S 4.203355315266964 6.966807648112881 2.0307677012958223
S 7.129021670638326 1.5564551486794092 4.292331405292895
S 3.0446732856691354 7.89674067896418 3.490153765523956
S 2.6614296188489908 3.081806762449135 6.219857673141306
S 6.471919160108856 3.21155675157375 5.429217225885754
S 2.3675001832477314 4.741133811969142 7.327663627518131
S 3.909651517084537 6.0932913120455865 6.332542433969919
S 5.8511978996127025 2.606550333634018 7.2778507795605965
S 3.9497836487833426 1.7648691946600183 7.181470708625984
S 4.302197748042701 7.652001710643356 7.367129710223286
