16
Energy = -63.20609604 eV
S 2.316671223153867 5.233258902861108 4.884801124545424
S 1.5498608416659805 5.095297727907227 6.711222683082684
S 2.7550719855518753 6.30188528223926 7.983269261336348
S 3.7124126170647402 3.4717199625569988 4.675594035189468
S 3.542240767367566 2.3762015570709885 6.238745871909519
S 6.350098464722534 6.726466905565214 5.69456742865519
S 3.61748916994372 5.081812785157915 9.393800550793758
S 5.260723341077826 4.190253691105322 8.56282538291037
S 9.102177111129262 7.568685337764347 4.072574812197575
S 6.9536103876686015 5.46648028493887 8.74213309434244
S 6.603980576993121 8.36344880817218 4.717539919361317
S 6.531525883632258 7.20669661025069 7.836716866221888
S 8.721563495453566 7.2074098276961305 1.9307281573994788
S 8.968567176130877 5.955707846307279 5.094443792631024
S 7.0143300563002455 6.0352543538365655 1.911600344618321
S 7.45530339086264 4.137932499111337 1.9852859560759577
