16
Energy = -63.12518857 eV
S 5.251719482083384 0.7330425444009616 2.7054783654988133
S 7.398681396701341 3.0225908180414174 4.48426165977985
S 5.73211550336574 2.3469385743388633 1.645158556764489
S 3.149867006335928 0.4848256296493635 2.98966487933823
S 2.713098583685705 0.6328168720344133 4.9447912592314225
S 6.529005517696878 3.9322494740814062 2.9851443434791713
S 5.93857888526809 3.3644612169129338 6.220827932551709
S 2.468780187779203 4.057910527419432 1.0258079525872765
S 7.441418293711407 1.792730777943727 3.7062504953223123
S 0.576376857606362 3.4306312600312006 0.8480560465418316
S 4.8831616447558375 4.889514197823692 5.753207193872967
S 1.9684647385756764 4.078758965153892 4.6282890497703635
S 2.306053318922391 6.224202200235343 1.0675908362200588
S 1.3955420485499048 2.401165561939598 5.3369148081538
S 3.8581594137700077 6.90386199288189 1.9966059847420456
S 7.398681396701341 3.5140611699892497 2.784539416532125
