17
Energy = -66.55749766 eV
S 4.3072927323018035 2.800169134890554 8.500033868788199
S 4.6406582050038425 1.434850115668047 6.719689965387194
S 7.8268043403116065 3.411766959243699 7.866210579428663
S 3.0261766835874337 4.214049430046597 8.036662564024612
S 3.2246299846377604 1.7687846301115893 5.3771007764827035
S 4.164595655477102 5.992990105244686 7.487700803972095
S 7.899447470016085 4.481534688098321 6.264356492884709
S 3.321527359303122 6.803267627599559 5.883827169901591
S 4.490094861356342 6.147509156205118 4.028185606308785
S 7.748019781027071 3.6008620506210716 4.558133070847624
S 4.1570301969499726 2.7391095890673625 3.6879574564447153
S 3.213246076194835 4.428553571572362 3.2253010565999576
S 6.882858720960724 9.126411086501431 5.638810596543158
S 8.10080217304665 7.802161501391822 4.360798676208168
S 4.243094403985058 7.592971776097081 2.788703056544588
S 6.312716636178784 10.483773517889679 4.432830564905545
S 8.001137270679425 8.643252096175033 2.6566881454935567
