17
Energy = -65.5534636 eV
S 9.952961450974183 4.188004223995574 4.200810866864789
S 8.850337553705463 3.2938516837439535 2.882164730610845
S 5.308155596632426 2.8450476898010573 5.461362226647379
S 9.382993423474819 5.916037843915756 4.852446872076168
S 5.6007452128304 5.251439754683047 3.161309906051128
S 4.87437314216783 3.330248976963418 3.5445933964920298
S 6.411720087467249 8.518854700502802 4.898404274766927
S 6.594701295448434 7.700411586970012 7.282574855397418
S 7.3490204425242664 5.884497454342585 7.256894312085559
S 4.014601487521782 6.51749147759159 2.7635521058819217
S 4.783539256500777 7.9027689576983375 7.982994697402793
S 3.319327382992475 7.33661994406472 4.493581657798734
S 4.547970116653988 9.065982801513663 4.879198072258855
S 3.479431142007511 5.288761436122664 7.4339325188424334
S 3.4789705282546852 2.92400518611288 6.70027460446912
S 3.910379511240263 1.8392484513960874 8.2286270578736
S 1.6196219130567036 5.7093132643356155 7.6101458673769695
