17
Energy = -67.05123798 eV
S 6.342970295270014 2.9939567119645 1.3096862668236533
S 7.569099770391988 4.953172211486391 1.9006759194165954
S 8.984734204304958 3.9531281104474782 3.5301016521994253
S 6.3239814275384685 6.004789803938149 2.880356642252705
S 4.003654931136317 2.5549579041556636 3.7281735120290613
S 4.530834381445098 3.486089124512997 1.926346295251334
S 8.803868153314967 5.986479405323938 6.226724125319239
S 3.0597645823090924 5.531793407770054 4.882890210133099
S 7.955135379602623 4.280789464426523 5.171285925960812
S 4.207804250080737 4.00171148021652 5.274431968615286
S 7.605037882820025 7.541081089267766 6.08294273483725
S 6.07193683657912 7.130360987044233 7.725106605419423
S 1.0316638345954317 4.753748320959695 6.043283185586065
S 6.417257646361972 5.36289076826676 8.370838493727712
S 0.6861209595333853 8.093280212738774 6.409644949017447
S 1.6266026269387461 3.145512914558598 6.87897684702072
S 1.120947730998008 6.566755344410211 7.49387977030633
