17
Energy = -66.73416393 eV
S 10.972392348242733 5.983616978731237 8.2364204659302
S 9.072926908502193 3.6719643690546566 6.501721679290726
S 10.34230229594042 6.774896634184944 6.612056513016518
S 6.6004874103077755 4.935746593175724 8.40894892436879
S 9.505360841136545 5.192719148792526 5.266677928152358
S 5.3053038360818725 6.326604118473403 7.688381237778564
S 1.9047829594284795 4.711114589237813 7.6935366197019865
S 7.020641657199568 3.5663630738988723 6.899548411313903
S 6.479578014652696 7.73737814051631 6.580286721221833
S 3.6130309049355147 2.5900608335349267 5.819124630770251
S 2.1612428840868483 3.84660239219228 5.992843930559663
S 6.1792218924122615 6.296727401349137 3.5524221751809324
S 5.592137119869884 7.97151025457196 4.809760265514841
S 1.7281552300271332 7.700476893499048 4.544440435067888
S 3.105159291250036 5.371138823031175 2.470021709582723
S 4.858889746938896 6.404236431460245 2.0315117695211815
S 1.595814381292445 6.850797826529121 2.811675701343585
