17
Energy = -68.03286558 eV
S 5.982832367626278 4.735663426230297 10.172228898249974
S 6.408282693521468 6.590579026622514 10.388596400684566
S 3.4127800078614796 6.3855977717040595 8.954212604456186
S 4.713205953577307 7.797011262572163 9.473746221281186
S 6.4469826678719855 3.5902557402801483 5.5977887454118935
S 8.048256413440683 4.644297172046447 6.371544544615359
S 7.133617437685304 2.2450549980205636 4.197408563679554
S 4.049644610003358 5.561010033889145 7.126478386012812
S 7.64011809368791 7.95007329421522 5.527636317201404
S 3.233539302907885 6.669074037335072 5.599566962770324
S 8.548514807313992 6.171413650015429 5.0583390792213425
S 5.305320512708623 3.122971780400318 1.5229860551053127
S 7.153335724571774 3.213616085631973 2.3438972872814774
S 4.316045987818515 8.435220396802285 5.430121530760826
S 2.735696780707125 5.22573437963908 1.298466847445363
S 5.9899412935870195 8.230263249732856 4.26627292187983
S 4.40336517809549 4.978838190172303 2.236503104193363
