17
Energy = -68.10697791 eV
S 2.471140308317969 7.510283946357337 1.9931673826209022
S 5.137518745871996 3.7738352919491613 2.215598550008199
S 1.7300401749266279 5.345469056992642 2.000790692174454
S 5.921326367390178 7.0476352820788986 2.6635288344282766
S 2.822799462331547 8.005756911378322 3.834837932346979
S 4.091700581406675 2.9393481562247823 3.8701323731642407
S 6.556484157721067 5.028377380391094 2.9347291052019773
S 5.0557773958900585 7.8037551504836955 4.2836603091018395
S 3.193353829599535 4.455138801123762 4.847421447066181
S 1.331806916856611 4.938423687465065 3.8881323900477147
S 6.477604798141001 5.391201196528444 6.495232021748847
S 5.420352580605167 3.560165332723824 7.7537437921438
S 6.077949604198387 4.164075171879247 9.508437983227935
S 6.8218587365384264 6.656461833817977 7.860279363967476
S 8.554113676973207 4.064090364982253 6.515549647483118
S 9.108575205323179 4.660913472435598 8.306140642176187
S 8.066801743108329 3.4821185907162304 9.725851945155105
