17
Energy = -66.00314757 eV
S 2.7340899839409603 1.9190673629822301 5.4031695065536285
S 4.251379451414984 0.839985019410592 6.260259387900225
S 6.081402535233589 1.7592176962050035 5.7596552427690115
S 2.6463739027695548 1.3516676118531574 3.4083302724460585
S 5.067776467669626 5.714894861922454 8.495174172041356
S 6.645401551891387 2.981813963930309 7.218726178377364
S 7.785441886388822 4.096736598044553 3.5539920937342413
S 4.502770298680053 4.839536847720001 5.2512436349323295
S 3.3100235751845855 2.85019076695645 2.1525441856378644
S 5.9595222105453525 5.217858496391168 6.875078076032772
S 5.306419504679815 2.584063346992109 1.7134261007062506
S 6.457997566356321 4.383233192215457 2.179637067080252
S 5.148934946568107 6.246274305029656 3.824293830252844
S 3.9277365214163464 9.582082902160614 5.715716039977419
S 5.780444548606122 9.543141669932005 6.255591534991708
S 3.6920088633942187 7.419643798317243 3.3558809298516725
S 3.1772916947340564 11.266640594695176 5.150904769305943
