17
Energy = -66.64199586 eV
S 6.113153533120445 5.664380962051618 8.170660632798565
S 2.4264103617422816 4.689015771831023 4.688634986517379
S 7.10554321447637 8.982955789093136 5.6477131942174745
S 6.612916546528781 2.540413424771312 6.936910365120752
S 6.5020523961222185 4.631323170971491 6.442592787173605
S 3.6952996032616907 1.5422088051534995 5.294501060007214
S 3.4886188988164646 6.178876218645277 6.0221243662173585
S 7.701336712029415 6.997879866958165 8.338527532470412
S 8.162391397413879 5.226041341218946 3.2433783148581647
S 2.561330941620496 3.11511120580175 5.97925219313824
S 6.5617473852685535 4.067519740149447 2.6106950817694066
S 5.784691062365847 1.8753838621631256 5.222475914060348
S 2.36756789497549 7.6210576737899745 6.583940639727045
S 4.805423419730398 6.944021979075734 4.248145825228744
S 7.285301608273796 5.597779551587765 1.3953395391866015
S 5.184505615319342 8.826709579102603 4.791397309649725
S 6.959188072072087 8.816799464131243 7.701189177637921
