17
Energy = -62.76320408 eV
S 5.757605414181417 3.2885633948105832 1.2225105531580858
S 3.8249029419129075 2.4951953975838568 0.7664322515417191
S 3.573770915693859 5.332544405126074 2.435437447487167
S 2.7859910766845832 5.373961168207838 4.186403148529439
S 4.141715638988858 2.315380268141474 3.9890428413535552
S 6.064502422744388 5.46106217181165 3.884297102577299
S 5.379250377595712 7.8969633498797664 4.33434093317165
S 3.907866925476114 3.859356470659079 7.757776475911879
S 2.7729242113738977 3.259788204845238 4.9791787131696505
S 4.031727452214466 6.179151680947171 7.118109901207799
S 7.3122142668721235 8.53020842589825 5.958308903885862
S 7.672040141250628 4.734856150610187 4.887123131960352
S 4.002123073286573 8.301608509661094 5.92200419766707
S 7.481893584242792 7.112426219031871 7.16084938320507
S 5.32510586427961 2.7837453297194337 7.26506704426239
S 5.793698634249417 6.4450884010056475 8.255113933059942
S 7.121824768997153 3.5858164431979533 6.821041621624386
