18
Energy = -71.64420016 eV
S 4.987653219445221 5.404979418471162 1.733682912178051
S 7.389173836761723 5.612312937710419 2.0006012770232644
S 7.8567139475564725 3.9185410195982975 2.745554976987127
S 5.7894518228802125 8.417379961647454 3.9109184145803937
S 2.5489463904754097 6.864549958425801 3.83689997661272
S 4.880619391554672 3.5563209178557558 2.38451277910323
S 7.45871618822562 7.281204194910178 3.5956951260588728
S 2.9573935397095976 7.283988352839018 5.647325120598465
S 5.0957392646171575 8.209017311675114 5.7748840918551725
S 8.531729956494424 6.992138671580142 8.366566560084872
S 5.9426731827215855 6.426057583339092 8.970876814879631
S 8.876766156606493 7.38979554767375 10.184371069310156
S 4.98767266795491 3.4995576673105115 4.465800877556101
S 6.29359415082788 6.778858031057098 10.79962382015148
S 2.995518171422341 3.9261055555172963 5.116709305671172
S 7.844891923471802 4.4621444166866135 9.00729772610385
S 8.158806093405872 4.815921950146224 10.839662335168896
S 3.1879830609851116 5.082322404514711 6.6783210511349305
