18
Energy = -70.3147229 eV
S 7.721955897089407 4.3572960058505625 7.521089247978313
S 8.37120356174943 3.610505642780801 5.406316116976288
S 6.145050599015774 2.992491264938949 4.233748203794679
S 5.279825755482629 6.555582064553173 7.771413704828904
S 8.941012802733251 4.911518885035639 4.122156927156803
S 5.815491695804377 4.327454937451416 7.930667331350446
S 6.7735740923343855 7.366332051536989 6.901511048953084
S 4.561714600657454 6.010554470737757 4.109553025628776
S 2.204429976528474 5.901222307670944 8.060506551600838
S 1.1007198958348041 4.382289866772475 7.587945633092744
S 8.941012802733251 4.635875585425861 6.197121864800304
S 6.6490768660368635 3.8273773668586237 2.5877582820449803
S 2.4502725980730413 5.214501268012149 3.9734822534865244
S 5.447805029538774 5.821891438753786 2.4024784227449993
S 3.9324223299370646 2.195844763276542 0.788299614026732
S 2.1310051351472152 2.6822182723547834 1.8295739738159085
S 2.051829502439139 4.749347779069253 2.0751819108841003
S 4.172632328330414 3.293633521085317 8.367656500517443
