18
Energy = -71.39544932 eV
S 7.378370394109543 4.009511439970032 1.7038721459566275
S 7.637047534245257 6.440064295981391 1.759986150120404
S 9.39945684638233 3.37309579787399 2.8270636089829044
S 6.036223497082702 3.715012968298985 3.017378625223506
S 4.5235301625838025 7.357052679360454 2.5347511198679
S 6.512962793355551 6.869254071476201 3.287681762668386
S 8.70036977658478 2.922704599518493 4.612579385400266
S 9.051212103911633 4.499666020949055 5.951332276233552
S 3.2381144685152643 6.915417616650885 4.043614332690007
S 2.5400858310179024 4.991403236910269 3.819825201973058
S 7.102962061797554 5.21810736534552 6.478183521292871
S 0.893778344909056 6.797213671895002 7.088681727244328
S 3.646669774507769 3.8104734505964917 5.23535562186543
S 9.39945684638233 5.452217840145909 7.043568617463352
S 2.7692384086809048 5.620211352872612 7.992793216294966
S 6.9897061641838425 5.349030947840045 8.405252015692588
S 2.36551775096089 2.7319395030411937 6.263506200374053
S 1.9832053735335446 3.8763884338508077 8.224115794643176
