18
Energy = -71.28617046 eV
S 4.2448918645411045 5.027531863980874 9.017310623611488
S 2.5328206539407 4.978204131999742 7.998899610382606
S 3.9200788377178637 1.8811032449517229 8.007508186127737
S 5.782763547805976 5.894637153521926 7.867536237826969
S 5.9345450480396496 9.85434366368067 5.4665001533542
S 2.377235843284527 2.8078403354416293 7.361350698608695
S 4.063568646911886 8.98266235490851 5.0036737319858435
S 6.403205186770969 11.093716061080823 4.01344317921083
S 6.959192109437047 4.466811405232232 6.97705575167278
S 4.96427898011207 8.892819629670148 1.8260239800462261
S 7.603628415773359 7.927625560909463 3.7432396680443376
S 7.29078852457662 9.34603907219728 2.5220871396984728
S 4.559928860316086 7.735056558757682 3.3653992151729737
S 7.381202874168751 0.5237848867464644 6.821328867454057
S 6.580495288303328 4.515860054539835 4.941696909865383
S 6.2601215372599555 11.093716061080823 5.344321390471482
S 5.2152168347606365 3.0504809175147103 4.3990969363986405
S 6.230374686632758 1.4066825203714894 3.7415155071032777
