18
Energy = -71.28765447 eV
S 2.0790454822723667 6.915801671517751 2.7453119781588495
S 2.850514251651139 6.142970549034358 4.2908700464166
S 4.51042597564998 6.845996267329474 1.5065411641784199
S 3.789634487269302 9.034875915094267 2.9610555937299043
S 3.8042828437616802 7.871868255706706 8.06939862187128
S 4.63937967413757 3.0230705592791964 5.377499001962838
S 5.269366542192369 6.070942352376057 3.0553193309658306
S 4.5387896387876605 6.34244703960189 8.97555838135283
S 4.555278548878438 8.25196262126129 4.506005704910408
S 5.6696872187456675 2.1002070225211216 1.2447808043251423
S 6.852579072539759 6.422060265043406 9.016072359150419
S 7.149253190296689 5.840321591279872 6.613532236925688
S 4.856017666138369 1.1689483643656633 4.359179667982398
S 7.5061856038347265 3.9508482616369376 6.917081036854286
S 5.614792365907913 2.933911030173618 7.150183831081613
S 3.866117752846226 2.6597325838316364 1.5456425790916462
S 7.34805419471502 4.780976480899105 9.856224496253127
S 6.456178226844096 1.189096526959723 3.1754563762176913
