18
Energy = -71.33370385 eV
S 4.899516676246489 8.450345423760917 3.5920681346192
S 6.242398499300816 2.742798761190494 5.182135562246872
S 6.277370908218339 5.756488183698507 9.3108847756795
S 3.304022055003486 5.611226465014865 7.6640778998554255
S 8.084012689172589 5.83254407254591 8.586380282082066
S 8.330222998234145 3.6432457095898183 7.651511501750428
S 5.069456269245727 6.543881800399357 7.669216811355771
S 3.5061891584590814 3.626946645359242 6.9509227384820385
S 9.329983819819017 7.53792300769094 5.001176590315381
S 6.851768996817914 2.656470833533638 8.325307721637541
S 6.1973032405385355 6.932837439427257 3.9216526551794133
S 7.760629598874975 3.9896615748278226 5.319860357247799
S 8.12839801340772 7.551578615256827 3.358386096233924
S 4.571279350172172 9.455861941862343 5.50191592077
S 4.3267686202402045 3.6794071964805273 5.087451158808746
S 9.296868139267652 9.521609558772967 5.838764014105688
S 8.018373282760324 9.638815132205009 7.292150884017128
S 2.6711398587176403 9.547766967132073 5.822414408470928
