18
Energy = -70.80930303 eV
S 3.124216433015637 3.4708432304901735 5.869213585368465
S 3.6513090389558513 5.284120635378402 5.72008927736596
S 5.702325190449024 2.7492515254137926 6.315218557641588
S 4.74143951200191 2.834974376792455 3.7634206899770484
S 5.275396655146978 4.647553496713198 3.6336282437110654
S 5.779505096603056 8.096642262826467 8.066541016580242
S 6.242618665902041 4.558179450984039 6.164317436805399
S 5.126457609763103 8.418822409516599 3.595136652910641
S 8.340748274663682 6.799203974625592 3.971072822197579
S 7.466546372936996 4.489311362423174 10.325064830556874
S 6.674230371584394 9.376275543219299 2.8598129143901896
S 9.16276806170059 8.313651319827825 4.803635890374275
S 5.802031380324281 7.4417009256165025 10.106268142194603
S 9.038185023767696 8.284425100129155 7.085460638326105
S 7.426174060411402 9.28819140634103 7.7684084562296265
S 5.474850524591048 5.485356450744189 10.105229354032303
S 7.837848125771171 10.206629000161053 4.276826540108061
S 8.707464329762448 5.750739350244027 11.063160878717152
