18
Energy = -70.27289273 eV
S 7.802821898274368 5.327195893955381 5.437902591949889
S 6.676275976555399 6.463234609777651 7.005140051852876
S 6.293470891948108 8.19363857391985 6.007974205651206
S 7.881925062705818 6.702416188147581 3.953415339450351
S 7.66911882895112 2.526883182720532 2.6677474967067707
S 2.24244817989864 7.2938118330801 7.146045364359432
S 4.131675075242166 1.5705453916835972 5.528648093119748
S 6.7499699573320795 3.6714371155437413 1.4148352191212474
S 6.048482485013777 6.743829869814355 3.064560444564378
S 3.153771355760123 6.527683238771872 8.635940557998564
S 4.856817880130487 7.806374698261213 4.627722219550553
S 5.237464624045328 2.958793837257128 0.4649308406732947
S 3.7362541431580683 1.5046764320868418 3.517795729347996
S 4.217430804842576 3.501981486085968 6.207565490726992
S 1.6000767689533988 5.53168147078909 5.795959719842625
S 2.2354921592878347 3.990878138975629 6.848381998152067
S 0.7018256232086661 2.344831347149452 2.274464060891405
S 1.6044120015717513 1.1251348009287967 3.4701721669575134
