18
Energy = -71.71216833 eV
S 2.0713610438994032 7.809395191936239 6.485195792336188
S 2.2670046076940222 8.335287868523498 4.437151082171593
S 1.187615843209335 7.035641834961549 3.363566415978958
S 4.189899284298927 5.442868915362659 3.3584876570260316
S 3.4316144696812034 6.482998897296341 7.142048361125589
S 2.6307885424036344 5.779314520386954 2.2514945643280186
S 5.566091977037091 7.249529505861688 2.666462771586948
S 4.502996256292493 8.169026209512614 1.3786659738717262
S 5.070774611777032 7.682338046629781 7.8522846172572365
S 7.889265414609667 5.240168532655459 4.853774273138082
S 7.801809185687117 6.9324058553002 5.973758315607423
S 6.745033665768044 6.569576894349893 7.777051152847723
S 5.143783519005088 2.6177894729997075 6.683356370681154
S 9.622217240373962 4.251737412874359 5.572040470161868
S 6.529049813214099 1.371295587841375 7.8068489445672515
S 8.193974540579044 2.4907147073006235 8.05463431469424
S 4.566031505449672 1.6197548678526617 5.128679060865432
S 9.159778671043144 2.3741638942761996 6.157646830512996
