18
Energy = -71.64960236 eV
S 6.430297417551354 3.258615969486091 3.6179804809835217
S 3.2716237713043403 1.179830981525607 4.158894789748285
S 2.3727335234725526 5.1186441521963175 6.970970847425394
S 6.7336953887623245 2.460778912851483 1.6909465381590254
S 3.7766393484035703 4.741180692887419 8.543484667539778
S 1.6973318384538396 1.2450176953007963 2.390513755861714
S 5.6031663081477525 4.640913347155576 7.784032409727699
S 7.154132350506404 5.14594369610047 3.647507029929238
S 1.7305326063726831 3.3464954141966046 6.275264224129148
S 3.2939349546042327 3.0310461187081694 4.758616617320631
S 1.2374054693364274 3.1170687444932903 2.303856282669597
S 6.303543175179323 6.811591383233585 7.8332096330176
S 5.351337209984187 6.295286317505395 3.176691253148722
S 5.29454129234063 7.876033196368865 4.278545569993188
S 5.683653014663098 3.575449726481109 0.35577011701692457
S 3.7297721324911635 2.8390700333176273 8.543484667539776
S 4.833627134084146 7.872697760130668 8.43901787576633
S 2.3595011853228502 4.107928333845017 0.6012441194840116
