18
Energy = -69.1198649 eV
S 4.992067592758481 3.142627384846173 3.4551765074762635
S 5.309019398763165 7.959903873781181 4.381409527995527
S 2.946212670379507 4.0115902519402304 6.731220504334409
S 10.17945048602737 4.136303647756766 4.149365694075555
S 6.872373885919999 3.6037394395506386 3.331135727745823
S 9.930130374414277 5.715353742375308 5.492482491902228
S 4.222199004119505 6.971360949918781 2.7591409138059406
S 4.493530101891465 1.3043677478383944 3.8071748272089203
S 4.875685335164758 4.580862089837835 6.562865074298374
S 7.202385717567859 7.809383561207882 4.054855675019094
S 1.6472606295976173 5.554073244698057 6.200241159890451
S 7.486934291652744 4.8589350718749 8.586665228003987
S 8.753412388212347 4.025879055093234 5.665585811823275
S 2.2991561270504017 7.257614827449547 3.3347050573410595
S 5.496914349587803 7.59050738728672 8.29787026533593
S 5.59046001012613 5.231166742776606 8.563555401805754
S 3.7104862189402383 8.193972993713926 7.953801287601763
S 1.465729644060832 5.52576647093018 4.146156942249211
