18
Energy = -70.80775497 eV
S 0.13044031215448368 3.0674941918295233 2.1667983465427776
S 4.355439355783442 2.4480674415426598 7.969773960239685
S 1.8675177712387738 5.8295709596805345 4.930580819697781
S 1.353895964268433 2.6055105130092815 3.748844801177008
S 1.5969251656185732 5.356595863409774 0.12825251341862415
S 3.44387711471033 1.45749356348763 6.612878297112802
S 2.694826035026961 4.106746006345817 3.8896377041097625
S 1.3928368318842177 3.4673257911105386 0.35140788328190464
S 3.365518447252887 6.346084100164989 6.099636390608711
S 4.7258277622806055 7.517506696448031 4.69118750350153
S 6.308209300365563 3.174510841527057 6.94740563067045
S 4.161207857293028 7.103694574414669 2.8634061661999293
S 5.398148682553301 5.406199393289509 2.2303142129116202
S 4.58047564366917 4.457741725993511 0.571024755946968
S 5.995478636972108 2.6128592211644883 5.0958384655041336
S 3.665717871188594 2.754102229781324 0.9857122565984592
S 5.975889275044228 7.637492403165616 3.3187732537935393
S 6.545646270121478 0.46659534334533975 5.032357442663994
