19
Energy = -73.02398914 eV
S 9.45733611033392 8.069015323209433 3.323183283552519
S 6.379803966415859 10.427994565239464 5.453224525903043
S 8.874105210956627 8.083494143339708 5.348707515288264
S 7.97799763105153 8.374454592464632 2.1185609606339777
S 4.379465744888238 6.970595715690042 1.8991508175666254
S 5.351935105520389 8.925230908437436 4.840215564190501
S 7.2618714078383135 6.678070969176663 5.527487196820824
S 7.438146854613612 5.163757736262186 4.338418547427874
S 5.331391600690908 3.1027976153726917 7.459090656407976
S 5.350222973096435 5.330812089436262 2.137597495314481
S 4.06239875132325 8.202643817341173 6.446826675202673
S 3.379662460671526 6.459869732867888 5.96744764567122
S 5.283015823676685 0.8988291452816233 7.480245579059725
S 4.094228121289449 3.9118089584431206 3.1379214799953057
S 4.111654670585247 3.6592452567415013 8.915203864271465
S 2.334413878927109 1.9187319018050997 6.7887118607632955
S 5.0894050777442255 2.29500448992764 3.4862521528113035
S 3.3408355031739063 0.5690597026106811 8.041287155108682
S 2.0905237513173094 3.5118823679984774 8.050240090922928
