19
Energy = -76.58903072 eV
S 4.671988974799206 5.494910979283028 1.2142695720986663
S 5.144213157232265 7.227590290118769 2.5439941573169285
S 4.588397265256552 3.2859703901542705 5.045242908855582
S 4.530539456584635 2.6956836031876343 3.151790952036903
S 9.027957015651008 4.972640099986685 3.1833163084185503
S 5.7387758970470015 3.973360546270087 1.9021205767656433
S 6.08645209429459 6.476561976595816 4.1130014684963125
S 8.242791178326883 6.625026457691442 3.8952561973325093
S 1.352332975026101 7.247349231186685 5.573697610081222
S 6.328239289514743 2.2462671637936364 6.002936605934917
S 9.261988588410999 3.6953828744226453 5.162942400473506
S 7.661622770850914 1.8205033123541334 4.6765529227760965
S 4.496434751776571 6.185163546453764 7.355869304027744
S 1.5616566382645214 5.014041465680584 6.059668374801557
S 8.307060060592518 4.642252464096588 6.507198505036382
S 1.4979898664697173 4.828295760889017 7.982150412482062
S 1.8489333939544899 8.118938649378157 7.27490178283666
S 3.9449903552296592 8.207639652057981 7.466684420017447
S 3.617470643829195 5.152255909510651 8.79823989332332
