19
Energy = -75.94714587 eV
S 9.972932369331778 7.549621643850389 8.096983541849921
S 9.59559519477965 4.890281903580504 8.593416850774675
S 8.174709400791329 6.751340600969633 9.976228243597475
S 8.61983729286184 7.487332273901243 6.776578407260425
S 8.246562227304361 4.848588243925575 7.269495717824053
S 6.81788350427944 6.695689526514863 8.658343273642886
S 4.377947670775052 8.115256900922764 5.948174802018189
S 4.770233121852359 3.602981279444487 6.768080765074386
S 5.369047175270951 6.161807026600692 2.1060845931428727
S 6.284488742815462 4.944282867246488 3.844477340579102
S 6.410443295966807 8.003797394837445 3.3398209486182537
S 4.660005669625358 1.9648248656104157 4.943694467755926
S 2.4872088212870755 7.343973989180377 5.963303744186962
S 2.8652303053238697 4.048320995685595 6.752624254968072
S 6.1629493938402735 2.9931256922480656 3.539113411887481
S 2.4842011604115237 5.4342764498069815 5.190627044810337
S 2.820763570042677 2.104049436902689 4.4262570379564705
S 3.514410656878519 6.597947305896894 2.215175645514862
S 4.774751588093246 8.87031924433437 3.9684269584986818
