19
Energy = -74.45816553 eV
S 5.607650810704958 6.6399941154717 1.7274106893901846
S 3.634049289291266 4.188285769858737 2.7824966259798334
S 7.621836916109027 4.08300702729732 2.4401042283772854
S 4.025039417796337 2.3196707538378525 3.088926871276684
S 7.366609599221648 2.4902772743400914 4.068538363429211
S 6.765077937105069 7.234017448706661 3.126273983894041
S 8.41610867240629 5.640531884144969 3.3029265216722883
S 3.205970355699125 5.282034598516547 4.317859199086757
S 7.383930825260153 3.228846762309107 5.888557064520103
S 6.33776524404126 8.91108360314681 6.330215850450078
S 5.458108524074451 2.7447954596397057 6.873245986571433
S 4.36375355234028 9.470014151840216 6.774970442676599
S 8.571042964338018 5.90829747243688 8.285723776776706
S 3.1227920187547693 7.869562606281681 6.657627260599229
S 5.044849186963449 3.926825740351855 8.440493299987684
S 7.409501738380867 9.074476485979194 8.052826647576552
S 3.169996620530135 6.8921991124349935 8.54941399246554
S 3.149502538225847 4.903599122844057 8.206634791287827
S 7.330727751373442 7.176794573177579 9.070068366597932
