19
Energy = -74.31621737 eV
S 5.5682005926407605 9.355096217495369 5.663767648369869
S 6.597081489814516 0.924682292258058 6.943350929736373
S 2.209809844740757 1.966133388048527 7.303780759894601
S 2.5860418546894692 4.313255031952169 3.7322827321783425
S 5.521827154489914 2.058933705343686 8.458830692394692
S 7.066899154521631 2.0184860178181014 3.8370374878142495
S 3.5867951780452674 3.020784014168664 8.113260723604094
S 3.7014807638464386 2.704103654972194 3.771536221643011
S 7.772298489700882 2.5604667311190568 5.59904738626721
S 4.324216012569175 4.575134098377685 6.694764482377651
S 5.6590466623897235 3.3457946625292645 3.1071752108429385
S 2.373971292203384 5.169374633282878 6.049769000873352
S 4.966954400638884 6.385286500175849 1.094932165152944
S 5.300201243587718 7.037129976816566 3.692416258330938
S 2.1435020507882507 7.076124634501304 6.050772715106718
S 2.9966211386860895 7.696534362125459 2.447101827435273
S 5.713141344870935 8.044474913009898 0.5651470100930029
S 6.061456939922533 8.701977061534594 3.2090814460175086
S 3.740433113984899 9.355096217495369 1.917935766909449
