20
Energy = -78.62738779 eV
S 3.422767067897344 6.432125421134176 1.141021440030384
S 5.725041925381225 6.469849648690475 0.23574804052707374
S 3.2875116784333183 8.833788037196017 2.041509038793471
S 3.745585513334995 5.578719854099729 2.8025479702480918
S 6.637562343889313 5.809910263463336 1.8107202832428628
S 6.795269295990676 3.603019704036155 1.677244106811563
S 3.7703397643860717 8.326817426166432 3.8447964371837045
S 5.994503446976793 8.671724564415591 3.929157914855722
S 7.380982518799268 3.1284664875170716 3.515145229918557
S 6.812850347259886 7.563405794996537 5.271709934013663
S 5.528910039392831 2.7497708444135767 4.661627479507108
S 3.3806751595735505 6.146015265621259 7.083824917891863
S 7.569865767872976 4.460143043656761 8.487936164137196
S 6.030610588538556 1.6451320230438917 6.158536764036409
S 6.284932096066857 7.036431159122942 8.842918768867694
S 4.090874175410923 6.067039474101197 8.857919425934142
S 7.873910679764761 4.5672575076628394 10.353523857618788
S 4.870958639533846 3.830818176882184 9.214357919040099
S 6.924240466749566 6.9470022219335785 10.655122489427672
S 5.488089552538782 3.748044149637929 11.030112885705558
