20
Energy = -81.32066517 eV
S 3.5094630422071846 4.2325118639667885 1.2080723068733488
S 5.080180168631444 1.6648527011498666 2.7393934012818204
S 4.739885988234982 3.7015616847267054 2.7802597080700058
S 5.95142251513642 6.66312995445904 3.9399692648278157
S 1.52336563349714 4.18576593124094 1.769153077743348
S 7.6377971092262555 6.7920925280945905 2.9201324385417564
S 3.6540292399056726 0.7598733535358517 3.945759580525591
S 1.0781873338072923 5.977169931710937 2.714858696710684
S 9.110901225905485 5.537783931451891 3.940493663844573
S 3.9253615246854667 8.710209775499166 5.37852109900159
S 8.14542681291224 3.9137430887678355 4.63439048501429
S 5.873565842473983 8.179525465432134 5.504277567307345
S 0.7930905746068084 5.556003266237342 4.711811918934944
S 2.829733026415194 7.4612533185710825 6.648184157163004
S 2.5901872396020873 5.623947496375826 5.74545840257312
S 4.351168628880773 0.49388583433688416 5.852104743750849
S 7.888787589500952 4.238424840093145 6.70256433414863
S 5.943435373602695 4.67499062538284 7.17956098448112
S 3.6254438066271284 2.085082469605178 7.02266663873984
S 5.152477465533114 2.952102080754463 8.066277671858803
