20
Energy = -81.41792977 eV
S 5.511187807262506 5.635886317711455 0.6557103948017274
S 6.357036730564738 3.9275255504866142 1.5287808938597174
S 4.030032775144488 6.327985677337968 1.844891049174064
S 3.492464214737548 2.9623240463643397 3.3351743992713034
S 4.02655639419576 0.9848249909767837 3.036279793249824
S 1.4851045483536107 3.031387351011675 3.8241279728103406
S 7.934551851728416 4.560073224171305 2.696204836639721
S 5.093517381514562 7.6775548745157645 3.1611678709570334
S 3.8376049770347778 9.157216805757434 3.645278854883939
S 4.402453529358838 0.15811633580559145 4.90183874491246
S 3.8749663797111813 8.028304373583122 6.794181491029384
S 6.349515937486375 0.419776342331678 5.4706062373041195
S 7.280913285185573 4.93528312658564 4.626544835140092
S 1.2496001274371835 2.798130564411507 5.866565200943301
S 2.6187430171103214 8.492102872298586 5.251818807400549
S 7.929544121001135 3.38506408778419 5.859527644334046
S 6.4387651127830265 2.1951273833503597 6.5989140468621335
S 4.2886611400451455 5.995999449477987 6.630503833283791
S 1.183155359717727 4.655840618501718 6.7710783680013025
S 2.9349062768740573 4.990756974782013 7.820085692387742
