20
Energy = -79.05594793 eV
S 2.457120427712722 3.449628648313728 0.33619861405446105
S 4.097700022224933 2.590259996736366 0.9652379452417005
S 4.693244106967199 5.941873717730728 0.9932120775318988
S 2.8704370568224715 5.744987419605598 0.39563105362557976
S 10.391144303829897 4.988621294011608 3.8646041579646924
S 3.59016788123868 1.8188929064808843 2.9859846088158695
S 5.233353292397998 1.4131357434879435 4.009251387478373
S 4.564358465352787 6.462765390882489 3.256593666802096
S 1.7831077416148158 4.925021766295857 4.18076563440499
S 2.6636731904489586 6.852219657770143 3.5235724377541815
S 5.669066942341438 6.51383429398328 6.540330189680651
S 8.750683390429415 4.219195839769913 5.056798288781716
S 3.2129467397475633 6.3779777313072215 8.609657451210383
S 7.517855989964433 7.177490845723271 6.093797987276973
S 5.588393432680736 2.9879366044602556 5.486283735604455
S 8.93287997238355 5.6736526788053085 6.482670968204306
S 5.0525597771275335 6.938921551334155 8.656974676647684
S 7.5361775396213035 2.7545030602138945 5.961307169485406
S 6.252546687505214 5.189588273254043 9.718036011617135
S 7.609447191645202 5.93947799397946 10.843077351964453
