20
Energy = -78.88141352 eV
S 3.383541677784826 3.2411144444681566 9.522874893887428
S 3.5995375067583977 6.050001296091103 10.97414021272365
S 5.219446241168647 3.706573581938209 9.170695820512845
S 2.1850887168298647 4.002692118098779 7.681170707492313
S 5.351758502572653 5.823107150766543 10.251045095390737
S 5.546723169169671 1.6160881346191702 5.65627147151667
S 3.5197016104734375 4.570658464179407 6.382666719061946
S 3.8451001565307585 6.763213741572987 6.660027791047697
S 7.106615343962687 2.612026875092471 5.185940327555909
S 5.742174068140289 7.029039828550937 6.259985144225869
S 4.639808370072616 2.791078367930185 10.974140212723647
S 2.9418900135974195 5.069070490808293 12.36770875187203
S 5.994208652649977 3.921124397601409 11.703880656955585
S 2.3029455161120707 3.8238853781877973 1.433050611426161
S 4.7361235653253635 5.655619023464935 12.74883355366957
S 5.147384934453012 2.3525855064456014 2.486879190538694
S 3.7316162724823183 4.073309779350183 2.7269217105199566
S 3.8510867916002316 7.668099733246315 3.52774184018958
S 6.901067487620994 3.095051762476054 2.924435456880431
S 5.696473444865687 7.5779519672830356 4.004260158261092
