20
Energy = -81.39972024 eV
S 5.8421772388510185 3.236657294351029 8.503274274310616
S 4.22613660783338 2.2874116733851624 0.5286308814047777
S 7.073934940883186 3.965252442268157 1.16329116840846
S 2.5376081273660356 3.5014369162172136 0.4481145869872906
S 6.9416990807485615 6.019974773093773 1.2666479004514752
S 5.2239294049702 6.518148685412999 2.311848160302041
S 2.141382381090966 4.438684037830083 2.2362380632890217
S 0.8337841952857717 3.2130808493928704 3.3098455325907445
S 2.606399346611562 0.8579831094133673 5.008557319862824
S 4.624775164519772 1.1263009849857015 4.624259704912217
S 2.740945670512703 5.930612998936011 7.186917952521114
S 3.6869881084389924 7.728317860312977 7.785388789604849
S 5.430138396405901 5.914123681231736 4.268798103528035
S 1.6876027820661854 2.716192891266518 5.110246550749812
S 4.397603979041774 8.493919549162877 6.027569520760268
S 6.115710854530053 7.481286804282007 5.4452680892597405
S 5.678522819101103 1.2543350726485454 6.381514114659824
S 3.2680566273406946 4.473406658143138 8.503274274310616
S 6.050844387688483 3.2909569875908216 6.684346289471973
S 5.305932937140456 3.966089780502315 8.457281341319833
