20
Energy = -81.72043847 eV
S 5.952488049526658 3.239040465645992 0.01533863096766285
S 3.5377846164544713 5.494834467351748 9.016551749400062
S 3.912190227568638 3.56315698374231 9.63563325682609
S 6.65505641380754 3.5299127484861113 1.934466459515431
S 7.432314863761446 5.435267159709488 2.088058312712534
S 5.013004492106479 7.68423416165803 1.4382299919216
S 3.2509741863536945 6.704672035852828 0.9989291324008037
S 6.009360456481615 6.670937595644971 2.9348597717560714
S 2.440730345218831 3.817255606748526 3.4764377840182332
S 2.4850856854476344 1.8941738090832878 4.247490438425863
S 2.743302832794779 5.221452651867111 4.961463956078064
S 0.7000075083698919 4.169438802594902 7.377256857174105
S 5.249633028498395 0.9096006094171294 5.870516657373392
S 0.9704873719779289 5.623528068792724 5.922509577732957
S 6.674720494955499 2.4036001639793203 6.101852337680739
S 4.360431172951928 1.0390072312721017 4.017150326694416
S 5.694510803086764 4.165797518153224 6.508663460594062
S 1.8816450903836701 4.578623431102884 9.016551749400062
S 3.5078656220864644 3.293542631103824 8.979508943658335
S 5.264392014588399 4.297909134213703 8.527853112533244
