20
Energy = -77.70390797 eV
S 2.008138044428029 2.9046525949251447 1.663863953417676
S 7.899656517386029 6.05727710192648 1.8974015714879033
S 2.0070628259347454 5.998887975134888 2.819605910360484
S 1.0277378745771535 4.513890301872628 2.0715227607255664
S 6.2962412171774425 6.1133456430004065 2.9296787663215875
S 8.572114594121205 3.6186700003059684 3.0000872634469555
S 9.515329078332915 7.2141312481400925 3.016007478207961
S 2.9218450628930066 3.796720045509824 5.229715175076344
S 8.7951036277694 7.335556437255333 4.840237847385966
S 6.988736946092426 3.664885432567204 4.063362700476076
S 7.537241350847578 4.539526330422804 6.0997149339935115
S 9.274608904336846 5.402189358079327 5.772855787973109
S 4.6746867224024085 7.150814131312738 6.782116750405453
S 4.219760907830626 3.612792859385916 6.606511621941816
S 5.9289436185378435 8.56928073926854 7.242251713666056
S 5.478367593550572 5.002151762804111 9.515324728272322
S 3.0883623484651883 7.016505921196478 8.087439542143374
S 7.05374524641531 6.611950756813084 10.393547945489576
S 3.8280599104294204 5.940095458863428 9.890312049658453
S 5.9016383157888885 7.954056608533105 11.095822206867192
