20
Energy = -81.60151347 eV
S 5.850200234072531 0.06809582399262779 1.3995813875279612
S 3.867618952949386 0.31661498060278687 1.9032054874872482
S 0.9068383675834902 6.861345596612554 3.656853347510318
S 0.4163094716305866 5.111282500903743 2.665290384724672
S 3.304788586824195 2.21274774146792 1.2756683628589598
S 6.78631546280023 3.7810917570285194 3.8314655882847166
S 2.3144448923076175 7.890507772409832 2.5377271403998907
S 7.0937622865571655 0.5133166978669937 2.99224005417423
S 7.8675542330345705 2.4134008824730837 2.7245193425749687
S 7.626343588165027 3.793473928664383 5.7231820330282455
S 4.249770670871579 7.452673313570944 3.081066738052419
S 1.3374735920863592 3.53883956443676 3.6354566476975205
S 3.284491846684616 3.428898593042301 2.9486405332148995
S 4.731964984685433 8.733192413081063 4.656647007342019
S 6.517731595870129 2.5907567433968066 6.989575160387787
S 2.880641879036158 5.228573744243098 6.535145755232779
S 5.496884484281698 3.8565013673304454 8.280471808281971
S 5.098596140168018 7.595659789429147 6.322291776265112
S 3.4587902822956003 3.869270540091218 7.993510214738366
S 3.2921772356416783 7.126455036902184 7.2301600177636445
