21
Energy = -60.48443809 eV
S 6.910779869016804 6.625699970481929 2.681380892057387
S 5.229166817121774 7.018868509143088 1.3326392800053084
S 6.111635742499709 10.328053075530413 5.4401632756750455
S 6.759716494996385 5.532179507844263 0.8036544169066938
S 5.5411692405259965 9.04233055650527 6.855912120095701
S 5.371952087795102 5.1162202155286485 2.4340484899894395
S 7.257613888569578 11.52724137078737 6.549237465792368
S 6.220823805660956 9.253360781079703 8.751323863326853
S 4.508175070210481 7.497716016713498 6.073951733579382
S 7.293727495336929 10.906839797531985 8.470099258351077
S 8.057643019923736 3.019352948592534 5.265583016473076
S 6.878899790398197 5.5030429148483835 6.495665900788347
S 8.72676160902712 4.523672993221545 6.623069794874575
S 5.769334446030213 3.798649974058243 5.91840958268769
S 4.218029884155468 6.309214212229396 7.708125094284148
S 3.7848007436577373 4.540900235208229 6.585602357658347
S 6.168664558573206 5.819193918051477 8.4355492853607
S 8.244720190594116 2.4886525840973825 7.206344649067002
S 5.997732673606394 2.562616358902693 7.6260419577648495
S 3.8846255276917394 3.3087665135364572 8.211080919334991
S 5.687569390616435 3.91796093110294 9.213792737787328
