21
Energy = -82.13736584 eV
S 10.255439461860833 2.232531893481786 2.5135994341449095
S 7.334458525968981 3.835268875627216 2.272074772440659
S 8.490423561008912 2.258158022157825 3.280992182786748
S 8.011912023824946 6.709580010399001 0.7638278663577963
S 5.921030980281036 4.205267809905471 3.647805505758021
S 4.187060059900371 3.103355495736951 3.053342115912827
S 7.5316661063510075 8.717441758630622 3.3630720689423237
S 5.130858286399247 2.125800371503609 8.465657527552185
S 3.7232493442121024 5.392588894837723 7.358232949722414
S 5.396708247169138 6.424235325528316 6.802796768579599
S 6.69612164497272 7.802173162240468 1.6499079134184287
S 2.682899622435021 4.4658739157646865 3.0129451864220576
S 4.775601756719959 1.1957400872412514 6.81529677216075
S 6.22346379989978 9.8249839473553 4.243090428344245
S 1.7009126420670129 4.352209252911366 4.862390833849317
S 2.9440861432371896 1.045786980540362 6.234675345008872
S 2.162256342652106 5.9373255843167545 6.07000861597971
S 6.374626640567073 8.314965781022602 9.39550573084409
S 3.064771258749057 8.203014148776436 10.151166611437906
S 5.356874049830399 8.351240789192067 7.685669637318654
S 4.780786161505692 8.14153391336576 10.99439463957138
