21
Energy = -82.47132486 eV
S 7.5720149395215035 6.11459786477589 9.552489941556882
S 8.968339980018307 6.942039853731245 8.000290109105265
S 7.590939316659818 4.144786243107989 9.393393938355445
S 9.792705042664641 5.410910795572726 7.067018229985689
S 5.305984456517556 8.505729220015507 8.707776062212595
S 6.305299164855111 3.592511905203255 7.770277421530287
S 8.427966167480617 4.780916714522111 5.541047166999107
S 4.366026543466601 7.861365582205004 7.153435037649687
S 5.272055307639969 7.891794409931169 5.452440210140155
S 7.653986539828035 3.0540678653804787 6.322529395702406
S 5.62906393380298 4.663676243351938 3.5237492074781325
S 2.490366456811088 4.130487637603958 6.008427047853821
S 4.820300359217452 2.7274249718388233 2.9025830687742866
S 2.479849920347379 2.3263333077185155 5.319736531629699
S 4.470019133754176 1.7494983529016284 4.60838136191232
S 5.8567754667611105 5.707296498933079 1.9185764369672902
S 2.353196487231706 4.204317822244082 0.07641196727668634
S 0.41637852472613085 5.182401755802056 2.492157783517819
S 1.2015402828197503 3.454887922910394 1.8465827619566546
S 2.0179011095340975 6.51282379535353 2.207276764693322
S 1.8623525175249416 6.14057546525645 0.13952835094075108
