21
Energy = -82.8127818 eV
S 5.577731530938371 1.4726728909139113 1.3236168821259562
S 7.90384788372463 5.709988080391766 2.671467380269459
S 4.707648033003124 5.596343578200259 3.2197586465801367
S 5.985521803402962 8.422690573429172 1.63709467834976
S 7.478362247264632 0.7012095618496843 1.799443722122454
S 6.326679628607515 6.025259834367253 1.6316029902782914
S 4.4254235032064715 0.5109954519381961 2.650154470504441
S 7.2989349905184815 1.6302994805247715 3.679214458321528
S 3.005138113171087 6.419831525492976 2.7804523980271973
S 3.2557987239770205 8.619606408727922 3.4430108385637896
S 1.0699240564671495 2.553713890978016 5.119838177137142
S 5.092604201065753 5.428340291135512 7.00751498946377
S 5.755801523213275 0.6285072713399991 4.458144310927266
S 0.17668165359950913 4.260837992705042 5.948247248968077
S 6.62569651084592 8.87725279769412 3.3992991353277726
S 4.710312805925908 8.657152574189405 4.709467778454251
S 2.616098934491844 2.26136953573925 6.3627874665719375
S 5.492915720807973 3.646504139002782 7.643609180138316
S 8.137401441125002 3.12171130218275 7.68367249112034
S 3.4166769292628474 6.216437361368886 7.550809430098226
S 1.6266461418525124 2.7409339649178754 8.319729013964986
