21
Energy = -64.38176032 eV
S 6.49972567254684 2.66140827548274 4.673171345451879
S 5.837552423539074 2.1700125371320476 2.4253293110024408
S 9.114001450376316 5.957534247313052 3.5645111395762514
S 4.462396778228484 1.378631729863293 4.2616301364625695
S 7.965093102563077 7.244245700048879 4.671254478789727
S 4.595194874676055 3.7443714216335873 3.7256323035630836
S 10.950922333415942 6.882964588591927 3.952192207265982
S 8.778984412869509 8.820109452756112 5.764001024987497
S 5.903255814938322 6.64778426696044 4.7834087182706595
S 10.737453118286783 8.514261995613456 5.159964709238174
S 5.125383253318996 4.219086767323993 8.93550749438286
S 6.315605860264127 5.543182175348985 6.566804057628431
S 6.063257645756944 6.0548269818345455 9.690199844467957
S 4.339526215894095 4.750450112192458 6.966753979303996
S 5.194063597899598 8.579661085226611 5.400063478367052
S 3.240122991996241 7.679657263827919 5.522555331661754
S 6.639822336207247 7.176630280294602 7.969261426320183
S 3.845134545931021 5.893844407448474 9.908871161617638
S 2.9451089661878522 6.138694030495071 7.969100261718282
S 3.215906092365599 8.206474763139735 7.602830131854577
S 5.312936065597709 8.83093407325813 7.572133491460419
