21
Energy = -83.71984959 eV
S 7.761992628498184 6.07414328688421 7.25832467843329
S 8.595426343983199 4.169805720157009 6.229676654471985
S 10.129560452281208 3.341658375681859 8.875345146192803
S 5.175842884807687 4.916204573753341 3.9930223570840346
S 6.529257841501256 5.374244328146232 8.610181386162587
S 2.7930300468044154 4.674403888373454 10.631464156657813
S 3.1498010202859645 5.402056286636314 3.493317986245857
S 5.497291084675444 3.230640699262443 2.872441855559705
S 7.490168974069514 2.730476834505342 6.884162070609254
S 8.647583593748823 2.145570106211505 8.872336376206285
S 3.6620710519278 3.657163175220123 8.32035647068889
S 4.505655747674501 5.270603349139019 7.695015533817612
S 1.0259664576747394 6.4568568869784935 0.939716263042251
S 0.3687889825173869 6.81053515293864 9.90715381210668
S 4.559367686831971 1.6804074366292716 3.826517657191562
S 2.49509965563972 2.0016402201473675 3.3593495041496233
S 0.33551894914754904 3.8170591591277923 0.6241306147710941
S 1.9842529824253072 4.939549548896191 5.022678366791051
S 1.6282502037337734 2.7319985187174147 4.979948233700514
S 2.1988018491964256 5.0522083130502144 8.875345146192805
S 10.387966210312515 4.22175299443845 9.601075896180507
