21
Energy = -82.06576922 eV
S 4.108473305465222 4.3572638431513955 8.94304535789311
S 6.274514604303286 4.797701432448486 8.95390052604853
S 3.1895389730139665 5.8583378503806856 9.724113084736704
S 7.031949398800751 3.1835914751584578 8.072983198378862
S 2.9202771434796495 1.7964577327796973 3.588452791713298
S 1.1319461418699417 1.9301958648703816 4.805502289394244
S 0.9304572284106881 5.709206614389688 2.4826786126579163
S 2.674676260648175 0.43265840077099416 2.2488125708928957
S 11.122106379623768 5.026899202438502 4.240141618670038
S 1.1394856247559046 3.8984431664126715 5.379649388636474
S 2.871756548370218 5.963821860428711 2.889075285693493
S 3.4986599028829826 7.2023034685792835 5.873838419418006
S 11.12210637962377 5.293379980480893 2.9570242837631286
S 5.525384946282651 4.512651968608786 5.391974550390394
S 7.227980738032 3.6629371460063527 5.942234964214432
S 3.162574825517976 7.7838304204761135 4.048620355460177
S 5.948375019787222 6.7307599139233005 5.464301704036888
S 8.123946539791266 4.161118085661688 1.5861544866165467
S 9.555587264715534 6.388453535232281 3.826931398743493
S 6.0614521164799475 7.379835828745463 3.663306676997117
S 9.301441877896345 5.639777971636163 1.807498667712953
