21
Energy = -82.97900058 eV
S 9.396461635742098 5.187592956698167 7.014798614916754
S 3.867101008738176 2.901436215479976 8.844182463772738
S 7.976602440081946 5.125363591699023 5.68210727868734
S 4.423133053531151 4.0145488318688365 4.88573420299385
S 2.5731172688107464 3.462033945667489 5.441768826635536
S 0.6232424348643891 3.1237541572902465 8.069378884072071
S 5.64245192471846 3.6950357898142734 8.482031563221701
S 7.034845402156785 4.927105851450461 2.0970550669407304
S 7.705486904816384 5.570511875502677 10.274862347503303
S 2.2609068866074375 4.018033559570681 7.612306213194365
S 1.8050013131596647 4.364276986740451 1.1653982821655868
S 8.496859666866296 6.990512485033989 8.402607313152862
S 5.833819028807568 5.48430274419315 9.765810593656306
S 4.191717506171568 6.702218513460925 2.812777726907911
S 8.708088362417582 6.377348119387843 3.967166383017958
S 4.513831057295575 6.123939043327165 4.706694082765897
S 6.195967905377599 6.625674313311305 1.8203077210460938
S 6.866936598422486 7.380782016674736 7.51536337961709
S 3.3323685618190333 6.712224527983747 10.274862347503303
S 2.856703374942489 4.853822049653457 10.488750375066656
S 7.579171694499251 7.892905080543598 3.5975068372335706
