21
Energy = -83.17088919 eV
S 10.950257758292947 6.784184200650135 5.841449274106616
S 10.267137179162964 6.488063246955789 7.694785693117002
S 8.272945275443114 2.951250090489422 5.661541485541176
S 8.763181539825508 3.5799226108276825 7.420568301223722
S 8.356554157028354 5.683212457850061 7.644914716819195
S 6.295663350379291 2.8269108808481764 8.422927097936475
S 5.932694944727958 2.077240478546652 6.68717960111288
S 6.237091498499497 6.772818928027974 3.269027324077784
S 4.415989473475899 5.993742989227732 2.5180984107233177
S 2.90049884464795 2.594037236918324 5.594569265719888
S 4.76891328773602 3.4276181360864397 5.44941116778682
S 5.1269038102352456 7.248084534915975 6.411805716646525
S 9.0846762975398 9.460846621093687 6.784850003569229
S 2.0001697708550226 3.3663084891254225 7.25195450404936
S 10.144641677430034 8.837558622671434 5.317428511983249
S 5.800102218108025 8.150161779319054 4.805091586944352
S 0.753005345359844 4.980898240157447 6.550255153333845
S 1.7211840829853309 6.046421510618876 5.199196538215617
S 2.7577047821669223 7.862105829443774 6.151423056460417
S 3.2418049903105217 7.361891938876361 1.8011085916723422
S 2.8319765973130866 9.106163770773978 4.704012752329279
