21
Energy = -82.95035625 eV
S 7.357043674532424 7.077007597750099 2.864903120380517
S 7.467015323363392 2.767827755029516 3.297227666042531
S 7.322175473388974 5.967552185574095 4.6458564426028115
S 8.47210452788592 4.317727573282813 4.327054450439446
S 6.570533526277346 1.5406831197611581 4.588623234192981
S 8.752241667473731 1.7857775010139783 8.16609414718076
S 5.440433840428116 7.187102629142537 2.146857518548782
S 4.557442032028984 8.759630574828812 6.030267110425715
S 8.576874925885344 3.649206084536243 8.524048647528188
S 4.213840873058044 3.5352274822685783 3.1838822793149992
S 4.788170287385198 9.095405112685292 2.729722043596095
S 5.818866254049835 2.094148625166632 9.149700816233352
S 3.4208112377445947 9.019601970802047 4.224494022758242
S 1.2847269741542828 5.317753933506702 3.9586502146874603
S 4.025300395593999 5.42148744212505 6.4421259224482
S 6.5190050085945535 3.867630144899232 9.214129078182705
S 4.393761283502071 2.0959361867636397 4.429314380179089
S 0.45597294866327936 7.0766284934296815 4.130881969231898
S 3.5336434600356954 7.4599215717799785 7.144639642742293
S 0.8991500093569598 4.094318242559601 5.566172563867099
S 2.5339414295171876 4.31679395732029 7.075761426183758
