21
Energy = -83.186866 eV
S 9.240278963442478 5.008978850288165 5.072983389537872
S 5.602655415150345 7.856400214875403 4.749569112649879
S 5.230789324527562 7.461571571146105 2.754111777807813
S 8.027022387105283 3.5978165866576397 5.997890526306448
S 4.1995888771329195 9.157559167126898 5.489851424081603
S 9.01661695686372 4.910867530370379 3.050176586758973
S 3.3924683183404127 8.458383002058097 9.412243191186793
S 6.09419267761799 4.331461466535928 6.058937319075605
S 10.166502171868379 3.1908505004743146 2.444255302331932
S 2.2427553553447312 10.069728092368539 9.161262908591343
S 8.99697754575968 1.9025109615358065 1.590534181415998
S 3.999769752360195 5.806409294195253 2.6084858388444747
S 5.1914865950913285 4.126199538000177 2.7710141628429334
S 0.35108203587564213 9.66517163249651 10.17745635742315
S 2.522110560252376 8.109290188253643 6.18126445056074
S 4.948596329326464 3.3309396724173674 4.660958247568684
S 2.9643313725603893 7.044431815658693 7.83316506970917
S 6.246364290888091 10.667596394974135 3.4447052232497897
S 8.317656001372685 11.217457677677869 5.964770321384575
S 10.166502171868379 9.546748879072767 8.889813181199946
S 6.591370975032862 10.63984373861053 5.337350271157399
