21
Energy = -82.8094476 eV
S 3.9934388214207073 6.210440681120443 10.386909932702157
S 2.512654579764228 5.137748733007946 9.628909686762702
S 3.1998028048498104 9.485072130015736 1.3640254810413501
S 4.21562237603243 8.656108682126277 3.975149579038272
S 4.927611505784733 2.7493969147234756 10.898885714789042
S 3.160085085415837 4.529720672368616 7.697909568538144
S 5.09850547054959 10.092396752693265 1.1978790863244257
S 5.707654986382847 4.843138387715304 11.280173715320911
S 3.5804615074616484 2.5567896289550145 7.940922514251325
S 3.4499474385427953 7.6230703870324685 2.310344830260911
S 7.200124539656653 5.192535637907435 10.131967341026888
S 5.87954591556003 9.456166028960782 3.206612492548982
S 5.27609677473704 4.3423133005730135 4.346363136339851
S 7.839992097032623 6.741701904361138 0.6503304289108457
S 5.413516760435648 2.4040272635499877 8.98903584672895
S 6.8625776004375965 5.4521706804012595 4.992248989767885
S 5.935907248218142 3.018980739514824 2.864636364665569
S 7.945958090629852 4.838695455311342 0.9673432631334554
S 7.835419190473173 4.226724380995101 6.471504409169444
S 5.947156861690093 3.9984143283447833 1.0839971642817712
S 9.421378986473885 3.3919360446204747 5.729387283938628
