21
Energy = -83.06796808 eV
S 3.972370441854046 9.186677215173427 3.1035865094163935
S 5.511270575587363 0.9068101582638156 4.6766745749469925
S 8.309830279501307 0.8844460192069027 2.546085679663639
S 2.600025698205741 0.38448254032192297 3.208829170159008
S 3.913398559991611 1.9525609925304153 4.861582792669825
S 3.486787805511357 1.8969353555233894 1.3367832452798005
S 5.13978576166975 0.9267655376802443 1.173988277603165
S 1.5429478543753339 5.974300278769208 5.2601771510350535
S 1.5366584876443392 4.390501496043744 3.563712535089733
S 6.658235085482818 1.8269926960942704 2.773285712528146
S 1.4848744951844366 7.664713237384295 4.337157534835021
S 1.6775270826335686 5.493793101918945 1.966201083851243
S 3.8352959749799758 5.958342674221225 1.646504942864253
S 4.702208691759994 5.086839515098269 8.163650286280875
S 4.550804685625207 6.364949822055801 3.4449687847498476
S 3.7976238865471217 8.43990721254273 3.8182569857837225
S 6.602385539740225 4.757734407146917 7.631419693492488
S 4.833645618166217 7.238360986386104 8.76379436822986
S 4.6384791019376035 9.186677215173429 5.36854184542371
S 7.042419480070264 6.5378942525757715 6.593367414300266
S 6.771835378510674 7.577475275632331 8.399350715098592
