22
Energy = -87.03167749 eV
S 6.022813024412543 6.629622006979144 0.8904706784848876
S 4.0629065874079595 6.359155932171121 1.4867362097705248
S 7.752527572201495 4.079007848982911 1.9356929357476866
S 7.180860163448221 6.115781921077538 2.771063749391767
S 7.726682780799314 2.8980119258639343 3.5586304997377978
S 8.680592364506785 7.2971087085427655 2.9338612707556715
S 9.654919779064079 2.633823240009118 4.346940265282561
S 3.327835633911241 8.380281903931042 4.794287207103997
S 5.184546360197964 11.067498527445064 5.1468659829791985
S 3.618708030353105 4.526621185654527 1.9572786507595816
S 4.655239198788197 9.48681228609543 6.121735367818283
S 10.051016702814971 4.0098702881570505 5.803107278999023
S 5.977959619348186 4.498255081863488 7.211912447535068
S 3.2093624573208914 6.496844812674994 5.543091682168239
S 7.857039982615017 4.6930187745009615 8.227941165364314
S 9.173101319926161 3.2942840198860095 7.572867076196136
S 4.921835361434899 3.0319962310410262 7.965095059229483
S 1.4415143545127107 6.287370702870314 6.593815202640478
S 4.02847876278253 4.234281009578859 9.91480795398628
S 4.882021849289997 5.927132291449198 9.750197171687827
S 1.7512206910123018 6.418085062545611 8.679933686256058
S 1.777667646547994 4.576525786277648 9.410487142753057
