22
Energy = -87.88826028 eV
S 3.6832559015259023 8.006218328883147 8.38530916361065
S 4.175524927963645 11.269078491544942 7.5533091543242605
S 4.2538670893978425 10.822436263291033 3.943842876433784
S 4.849267088617479 9.768377148720395 8.635548065071134
S 4.4235545368921985 8.884528463237386 3.692686490559898
S 5.752974437716243 11.251716975031073 5.7456880628081235
S 5.120732589980663 4.540319520650271 3.0078511880472996
S 4.8096748130181775 6.673916307083258 7.266965107608668
S 6.721667573513372 9.635262688542834 6.01222057771025
S 5.958537559685236 8.575200236648882 2.20298389192717
S 5.545618431940811 4.148620435099162 9.41147480218052
S 6.330231221996632 6.017770694827836 8.412400281790266
S 9.3035671321204 4.164188833147487 8.605818410469414
S 7.212083879384116 7.233774569153239 3.040885733397762
S 5.595497831948197 3.849533913353997 5.088717983533711
S 7.953646524313047 3.0990666209272777 9.425163386143678
S 4.302436004201197 3.238671146095464 8.276684171906453
S 6.7835623876613145 5.298407305101473 2.246248521909492
S 9.180094788704697 1.6715094915970397 6.730577207470908
S 7.5414971614816455 4.21184432665216 5.325884391765682
S 8.610977032666701 2.5053816937667306 4.850099430658848
S 7.63211337866413 1.2844417623776956 7.874224932911621
