22
Energy = -87.30955107 eV
S 8.450473845117193 3.882523358731421 3.0540521288258646
S 8.550937202113184 1.861233319201594 6.754641901244727
S 9.276974256804946 2.9973535364687764 8.13446740725471
S 7.247394984231423 2.4009871573389296 2.561185649246656
S 7.0048753560154555 7.295759851840729 8.739965962162605
S 7.420959638707765 5.736247514159619 3.190682037953086
S 6.631485497873912 6.143828585864688 1.311224951283784
S 6.123719385808305 1.8301616479976632 4.438975883654563
S 5.529187372126976 5.959875956781302 9.710924501059031
S 6.849573388296914 2.9658992024889375 5.863808168352079
S 7.190612459038976 6.732843960097965 6.883659924814175
S 5.4094055771723495 7.809215377501918 5.876067506625269
S 4.055858302842358 4.045931044357751 1.0991854355657458
S 2.2433660354092853 3.3549026502366126 3.862882107451865
S 4.006086706845823 5.855931632258221 8.441755027151745
S 4.612400602277805 6.091261685993351 1.406888905866516
S 2.179285607774608 3.846285848811437 1.915009588058058
S 1.779962065956701 5.31154196955749 4.902292047661457
S 3.0075012862906623 7.825562362376697 8.621473128004624
S 4.711891564887131 9.003215824586526 7.21721615868992
S 1.551913565258053 6.677793213750504 3.5858624108608175
S 1.3079339952423057 7.741229225219374 7.731599906414163
