22
Energy = -88.51223657 eV
S 8.751356045387439 2.711361981164475 4.784671936948939
S 9.916689498459423 1.2589780209018784 5.24151038456972
S 7.654321498028546 1.9486607371165237 2.874802294770282
S 6.755556310412808 3.4227431232310015 1.9339674411361953
S 5.3697888285431405 7.863288224840785 2.016051401476806
S 6.871359061935229 2.694209949931207 6.040098872043095
S 4.676181439528776 3.401055798652178 2.588876305515549
S 6.366110300841079 8.524517616890098 3.638559230466504
S 7.872637005474621 7.118034488467784 4.191163246618469
S 2.8561542060493883 4.420779592591317 5.524941180295734
S 3.8773168307117833 4.91487990238771 1.5058332879086556
S 7.264001189626766 4.04541459700846 7.488224664662738
S 3.7195720786785196 6.675643434451523 2.582909579909091
S 7.835909591987565 7.142149316417423 6.231401613143354
S 10.889161199356973 3.1423528908780503 3.371396562892185
S 0.5698703744739188 5.379018671196705 3.4556313391423967
S 6.38884382300768 5.872349421512183 7.003063268676664
S 1.9973269234487683 2.188550596077163 5.455368400649575
S 1.59054619680388 5.3127665670008115 6.669543138376531
S 9.916689498459423 3.014368547250792 5.024708517173737
S 11.064774856390951 6.012734672905457 5.143441021348174
S 0.43752751820773206 2.3140641015865615 6.570766632171676
