22
Energy = -86.0351884 eV
S 8.034296878428036 5.889753585154328 9.64258071228407
S 10.520916899182822 3.8360077437097995 8.170414881766089
S 10.70112596090704 5.581780277089765 7.08337434100863
S 8.33815033985329 3.8060320274290897 8.566824827019817
S 7.886424248798438 7.9306652304857765 7.042597888728363
S 6.860627187971566 6.831353278996292 8.296469206135404
S 6.3965087999238515 8.650240564045154 2.2701534175178497
S 10.10547605063643 5.334100161435374 5.24029557416564
S 7.342183027081138 3.8786704587259733 6.933219535575387
S 6.603612944783676 7.185915710075079 3.730817911835204
S 3.826430153462617 5.083802138625343 5.839265270100227
S 4.279116697007297 3.7015326575547682 4.3778612078451795
S 3.421344827742114 2.6746829401430765 8.885680351052288
S 4.599424347330888 8.416445981244829 1.306445075611348
S 1.8644554193060379 5.731689545869818 5.550526431202793
S 4.773227784112065 4.700467368864338 2.6357692194431266
S 1.8253739580174673 7.7179336936653335 5.062326215122398
S 1.5729363038422197 2.6655695841460814 7.93896113659931
S 6.727828179756989 5.3618855642992775 2.792039608132316
S 3.131834051084353 1.5206841138155553 7.184617769748572
S 3.045310105736868 9.352190220568177 2.3467364282405074
S 1.649086992448785 7.996329598019424 2.9792474810014236
