22
Energy = -86.06671615 eV
S 5.266363503956764 9.291112344264882 0.9499515514159399
S 6.92968144701432 8.790260406441368 2.044240413906262
S 7.476463362951805 6.9401320487576825 1.7301478641626813
S 9.091979087641128 7.4371312110864976 5.844611396019677
S 3.5645049296748867 10.00318774613273 4.0194628647549
S 7.252086486895799 6.73386701711037 6.185700871375577
S 3.591432225661443 8.477095386083748 2.2237986638290894
S 4.061074297911825 6.771360421948811 2.9446374694533506
S 4.473864584291888 8.930918048958747 5.473759288615514
S 8.97152365391393 9.153217983668014 7.074098541700608
S 8.908311442631472 8.111412970898442 8.795141949053136
S 4.11117424551942 4.058596168111799 7.354441622631717
S 3.232023488353092 7.765522805250129 6.446055058126213
S 7.104667690683775 6.791734041054326 8.626077480876758
S 4.016809958655862 3.719263741323033 5.427282419010567
S 6.200168334534403 3.2332399122590245 4.807544555906574
S 7.615902097468209 5.240427922547964 9.628247077494219
S 7.211096118824895 3.379400255184685 6.478131473096352
S 3.9159374978568913 2.049441027566271 8.268404886770687
S 4.931471053772454 2.1082461969078037 9.93707517851524
S 7.014697004773338 1.3545608088002394 7.3763076506175915
S 7.114890135819732 1.6079074151555743 9.31257557817716
