22
Energy = -87.78407547 eV
S 5.462922707110017 7.788435828462269 7.079766972152515
S 7.339528050200216 7.725192430792587 7.545409267596634
S 7.445597370801078 6.252740258255121 3.2472198181676353
S 4.3359671015405725 6.588719670043072 8.730194521607416
S 0.9304089344266878 8.19800174530918 3.981331053299818
S 2.626970518961935 7.958331151819953 4.788534078837297
S 8.164454255132714 5.8307769185781275 6.509023770104072
S 8.875977647488824 6.416487430595938 5.671746634605333
S 5.665441837106947 5.495981119077924 9.607013425816724
S 6.817694690822166 5.3955486199460525 5.159716916976642
S 1.4878982635671534 6.154021787050918 6.538318351974379
S 5.4700884947837505 3.446733863666174 8.464157463496672
S 6.858704048394631 4.810053967096074 1.9708502288591219
S 0.8986178317010215 5.530375028751883 3.3322383177993937
S 4.0285295789130275 3.722045976341566 7.240501074589769
S 8.361755556178242 3.299392081972753 1.9440579472996793
S 2.5770215084605916 5.329655523579926 4.184557218802058
S 3.737315327157948 2.1121936758734896 1.577305892929156
S 5.749213262035203 1.4409156673213153 0.5559348246896464
S 7.782925087926023 1.8759396184615773 3.2142307666120886
S 3.8071114486984707 1.3106605358006556 3.307332882476867
S 6.606827638969032 0.4295348287173914 1.9722524103809624
