22
Energy = -87.80686829 eV
S 7.05545480123533 7.9538134376187415 5.070877571725888
S 4.921262259068991 9.776699501318245 6.863376155797932
S 3.5010400904851084 4.560679028985502 3.942865424384351
S 8.295029939520182 5.179267976255118 6.662277281894622
S 4.6604511734599186 0.6704801917769104 4.055974382560761
S 6.171619029645169 3.6269271414213655 8.81378338907724
S 5.228937702628714 5.818397945814104 1.4734896497920913
S 1.1629974619222776 6.3840549326625595 2.3106622088274404
S 7.0542285099901125 9.776699501318246 6.337646812342354
S 4.077160089659833 7.355829808780778 0.6434784653206498
S 6.302489201364954 1.3221467760063583 4.85837580813247
S 6.065579345393547 0.40024494963701035 8.122042331488382
S 8.773748051982539 5.822299518375762 8.49013058830182
S 3.903639690332712 8.517990734373983 5.845679891739324
S 7.161389064112446 4.981191045574161 9.818984584349643
S 4.098915990593574 4.17724892914497 2.0186392648980696
S 7.120759028974363 9.383101223320024 6.457021325596128
S 3.673044809785218 8.640550305829594 2.144373823071162
S 1.5905912116954612 8.311117407749114 2.7230522330725178
S 1.458739411025366 5.048684544171721 3.8593127622244956
S 6.563349461951236 6.144896766961265 5.999435434296746
S 7.131022042788046 1.6975220086268268 9.235717380677762
