22
Energy = -87.55152502 eV
S 9.6350995990378 3.706457118755874 4.237482571771765
S 8.484116234839236 3.6106410764808934 2.152985484294156
S 9.131452015619232 2.2756685528414837 5.409156246189233
S 5.8927916893139 2.9185173743558126 7.044523907717423
S 9.336816058078556 4.988003026874384 1.119085769094497
S 4.268104186829292 2.126547081495315 5.81959476234381
S 6.103681595725914 6.660282602954303 8.324151901627573
S 6.50861944870434 4.349664840697291 2.936910697255583
S 5.049575554509684 3.540641695168007 8.743777955569673
S 5.267396526025082 1.4448709562620665 4.219564645487433
S 6.3567580943942295 6.929681472642422 6.279187500204586
S 2.325967008715976 5.560892406407989 4.941644684626526
S 4.398000548801986 5.550544509061969 8.549132467815442
S 5.771483419018552 8.854857783014063 5.821656853026697
S 5.2050869003989 2.854303724474586 2.6259102818300906
S 3.1415833167060585 8.548453661999122 3.6851450423586884
S 0.020145946965531743 3.2433168286531187 4.703514503974803
S 3.7014783796853012 8.891395758651212 5.614002934482272
S 3.230197310678234 6.442797409216643 3.3828782633275436
S 0.4677698341027461 4.004787510321752 1.4466795875382108
S 0.23625518455207625 5.197390689182718 4.5256581405204
S 0.25423324871508757 2.4699121999288196 2.570866968982478
