23
Energy = -91.88000472 eV
S 8.25464318309767 6.984515995063106 4.7979202371457665
S 9.060438776632223 5.690919655497773 6.226453760512176
S 7.931246756813053 4.573468509758057 2.5186699408571323
S 6.866847992347227 6.043846951845014 3.642753693602573
S 6.885616861196421 2.8739494424688314 2.6703692058780435
S 7.738564962033784 4.9862558534250025 7.613769997854481
S 4.4434754405480605 4.979290690667143 9.68160187710062
S 7.317076264166427 2.010916278823973 4.625116426299184
S 3.390434382196155 3.636008740536696 0.08962156875348665
S 3.2739630839440514 6.11260799946179 6.4059673709003135
S 3.1638126992426128 6.291247377634416 4.335776332390039
S 7.678281141525127 6.213246579940575 9.313221332304918
S 3.1123021858634528 5.680962876898446 0.3394120585716097
S 5.6030437540961655 1.1949037135277858 5.210161498433857
S 4.450416489971006 2.8673055168160717 6.097196884388936
S 5.179607000592502 8.6228341843848 9.373993450833797
S 4.507064064063612 8.94230983988206 7.439119113030287
S 2.149709379352411 3.271080861071924 3.494254229591488
S 2.7235438551359192 7.922796228808637 7.2327949767382
S 5.697461478579942 6.6467443962785975 9.681601877100622
S 1.4944715794471197 5.285048947265625 3.720216663649747
S 2.727801025701779 2.1179340169562564 6.658207718939958
S 1.3427186995030946 2.11069969992449 4.88774893684672
