23
Energy = -90.66868077 eV
S 7.527490971655194 2.3699841956785037 2.42641004751992
S 5.729178843198495 7.59625085904309 3.2525248754212277
S 9.466497596952733 1.8219090659752983 5.199369860592429
S 7.913537369350809 2.805854040372391 4.650017335344351
S 5.102089794942334 5.748888481170573 2.51771722373506
S 6.831604396538598 7.261031541119558 4.944274422517084
S 8.001262187808909 4.141363143937424 1.6179227644498064
S 6.187120402986352 1.7058350225497239 5.608164571962388
S 4.902811838971986 8.337123200766294 7.524862090505797
S 2.9130015855015636 8.916939986657383 6.577424871186263
S 6.26587302266834 5.129575506578015 0.9561431371556263
S 1.2167810484031814 6.849726372585191 8.363185936991238
S 5.509962892946406 6.740028491813233 6.519158792456653
S 0.5266777141517973 6.567103991582671 2.1860695109940687
S 3.4236764202390044 3.19832241912622 4.46056812392528
S 2.466646361718946 7.530272490007848 5.308444276266743
S 1.034549820525321 4.7606970616215225 1.8763080130678795
S 2.3143972000003816 9.714312092063563 2.6946081264143595
S 1.285400158358382 5.9944220416496865 6.659782324818828
S 4.817101515658098 3.125489579258264 6.014510075162511
S 1.820049435417951 2.0163147288480805 5.036055380381179
S 3.989832688322877 8.916939986657383 2.1594298188025536
S 2.3409047122313322 0.05967397243245434 4.829668695415169
