23
Energy = -89.95040664 eV
S 1.246223058573251 5.47190436606389 6.761332522566483
S 1.4068662965582908 3.297331446770071 6.223346766441848
S 3.102380296917719 6.356253185413543 2.2882693760667556
S 2.3670752271920206 5.646697101998372 8.422258260528833
S 2.621434102143383 2.4470286327254263 7.4372634358409355
S 4.247143539224589 6.682325585102933 4.004590058167172
S 6.392662564369037 3.104120711635751 4.137073127549242
S 5.322358798737323 4.448635194681455 7.787829835211362
S 6.388275927689853 1.3989917523540236 5.069977847332785
S 9.36771477654226 1.5297084008148196 3.8117676659244184
S 6.954896607059793 1.8334106773523475 7.204754757411282
S 3.004251611699999 2.1962163394753214 0.11619437894507839
S 8.542436295261245 3.1521612632906693 3.23746012582812
S 7.243844079588568 5.442773531510944 7.484498149063269
S 5.330748571392863 4.634330243907191 0.4573315269578227
S 8.274654054622914 3.274991243123945 7.19054593332589
S 4.386163371427707 6.439481416296605 0.6693407221327725
S 7.333130046845642 6.509657423761604 5.890333307480748
S 4.067230899705513 3.4919057186537357 8.471948789422152
S 4.259517530876252 6.2868302085568555 7.959416474234402
S 4.403678705546256 8.675907220353453 4.334235839464369
S 3.0299992788833325 10.724627531231933 6.563124817729605
S 2.6957818610570916 9.0737864220386 5.626928753673146
