23
Energy = -90.83838236 eV
S 11.050832901081428 5.583362161863172 8.943086413881833
S 10.080979171417157 6.815209234451841 7.685215887210387
S 9.606482921690208 4.420950053317035 10.1543030837076
S 9.763434738255759 5.94652792576298 5.8544844043032835
S 6.625498873200273 8.54638233932831 8.23709832189334
S 7.805639098423146 4.683981768134555 9.335851400889528
S 7.135694440710006 7.977585902476935 10.125714514153199
S 4.49918520334665 8.880623811783824 8.292077591395893
S 7.603913237123745 5.566534959586701 5.805381786475229
S 7.286455353956227 2.5551819958427755 4.370534289394674
S 7.375997363374386 2.359459779898458 6.269830341414259
S 7.275250297131852 4.8719496893282255 4.0131859358170034
S 6.620572914769612 6.00746362454099 10.461234734046126
S 3.645036957340939 7.8127203072765 6.92032233222458
S 3.073298108120628 4.952535308211524 4.394635962101687
S 3.1882986923415997 3.303928732972449 3.384731073633715
S 3.568146877541804 6.765477391398711 3.2241997046405384
S 0.046088345572151634 4.495215333384765 3.262691949423847
S 3.8829706766845615 6.393375634862496 1.1866781028073594
S 1.0447402010771716 3.0441105086391596 2.4804402855871226
S 5.222107412891467 5.094236888901221 0.6987998162440708
S 0.34047404769607426 6.211431463980326 1.6783729278239
S 1.6926949688061312 5.486451794232541 0.5099246453148789
