23
Energy = -89.31602188 eV
S 9.122682642892332 6.498824103003141 4.446691776563977
S 9.51547418862524 2.3200504460016007 8.69620947243513
S 8.620497721618172 3.9292705097427323 8.136098886394022
S 8.959181759481764 7.1419673481826935 2.6403418336568047
S 8.158080553973866 2.601707681768176 4.842556021987316
S 7.296143838944328 6.7577215831013495 5.593287889071431
S 7.135968221056178 4.574976582893927 9.192407643977669
S 5.626849406990978 8.514955592263261 3.313403988216175
S 6.605871649518462 8.628021939713241 4.993591685871455
S 6.360766032926962 3.4224322305298647 2.115984977480199
S 6.542740726760822 2.1360419413415057 3.899153519601203
S 3.9331726920723233 4.684597372669342 7.645882819583619
S 5.098932610160714 2.4505016847487355 0.9621554567737527
S 3.3334194145256846 5.568442775373269 3.637108759954444
S 2.8460088211103955 6.195282951086721 8.780365373884317
S 1.7922636196459136 1.651235217270484 0.9913499703636984
S 3.019403999219702 3.573076276124849 3.5356351847990957
S 2.9096213551395946 3.0621811263261964 7.438447895288263
S 2.8676599276279107 3.1967156081516928 1.345927509226015
S 1.472877194450971 6.524921349415026 3.5346899454340104
S 2.722839514720613 7.7441225660214155 7.468528616371843
S 0.5408898972777781 6.219906740998811 5.34396777994191
S 0.8254664956269085 7.819141716114656 6.605700950916516
