23
Energy = -88.98606285 eV
S 9.15622057453054 5.199812783629148 3.7898700187596397
S 7.277903624739572 5.342145190393259 9.53396790453937
S 8.215166510724769 3.709926614032085 8.449256667708049
S 8.322404980439222 4.321500357067295 2.2099369276920795
S 6.568343929243958 2.8088143564888863 7.5422521789853105
S 7.47100361442002 6.082152629787817 4.701921669995719
S 5.717350166331417 6.033017934822454 8.645749411642049
S 6.902204005844656 5.95190417517492 1.5729349790166711
S 7.293871028496942 7.305896619068757 2.99504632004863
S 5.22336970928867 1.8429330894226827 1.8495264301253844
S 6.757565175436998 2.818976117777526 5.600615655310002
S 3.5585050350709024 7.612770784922919 6.116307690264387
S 4.884898919340229 0.7961771624110463 3.412683786366428
S 3.768972319125154 4.188017204098212 3.6977013332688364
S 2.5577616870893882 9.056455508288519 4.872374884690584
S 1.5824836810336944 9.05645550828852 4.9586309787261404
S 3.470664930729299 2.4906444341562044 4.87184002032055
S 2.2918814270304053 6.587091723428514 7.17826247540922
S 1.4834478544547243 1.8093097626101724 4.512253302520449
S 2.176450371084676 4.2854422058310675 2.3960733696502965
S 2.5729981456451765 8.241474210565746 2.996703246239023
S 0.7417904728172232 5.40815324748201 3.3797008866115097
S 0.7881676566359858 7.308058726808021 2.5503728943042447
