23
Energy = -89.88971732 eV
S 7.661962040354838 0.7222228297146808 2.897932805377135
S 8.966459000029099 3.6086705350281343 5.972394275122352
S 7.922652459112382 2.717239779413973 1.7839132604279677
S 6.120468305405541 0.9149258666687474 4.0095058766830585
S 7.339867379133908 4.602416498800038 5.64739710620661
S 6.345383253800237 3.7463044347798387 2.3397042497466063
S 7.23821610115771 7.669858808524592 4.2882317334918305
S 3.5512009628871084 3.0729793347513974 6.292579396673001
S 7.713772703992265 6.686439960959858 6.045786224160339
S 3.8784093522568983 5.073585735418675 0.5022363055777741
S 5.610720314840593 8.867805075460252 4.4826278703402
S 2.2909697850166797 0.7193868453750446 4.1708708076005205
S 4.865126083480334 3.43257513010459 0.7128303282211765
S 4.450197161807148 7.371702712264833 8.363863949060999
S 1.4163910636980013 2.8988321922531535 3.7979725353833858
S 3.9137778424519785 7.822622718410131 3.6997011373332698
S 2.236715424042272 1.6505883007871507 6.366502067085827
S 2.8913156984234907 4.075268207016988 4.242999134825162
S 0.8318380847083436 8.887687671860526 4.036293889076852
S 2.3033453920608395 8.456572064747546 4.749732359734662
S 5.580187232848888 8.887687671860526 8.754231983677938
S 1.847377262677215 7.147751712262518 6.339974993035461
S 2.414371090270451 8.044183651502498 8.067753562572127
