23
Energy = -89.53732107 eV
S 4.875493064066595 8.294557507356739 8.491763108833707
S 6.570171653109642 7.634398412038734 7.85138527168134
S 6.8656072910831885 8.466861252492308 5.756812280699744
S 3.6215202723578948 8.386424149796248 4.970889440602773
S 8.880714265033808 5.768113211286491 3.312181368872034
S 8.709235924922819 3.973660676799133 3.9977386221085225
S 7.816564297964069 4.167420038617647 5.9702232596290745
S 4.408282595858059 4.896604906168719 7.099801492359734
S 3.1905413936331906 6.000923145567435 8.340349529186074
S 5.26573833391839 9.607189690134039 5.50589181331619
S 7.672962916218266 2.238600550745716 6.716159514482842
S 3.3994923188502257 5.215745418179865 2.431229299419511
S 4.356270905968567 6.989569740888198 1.943042617680841
S 7.8793054780071765 0.55466946107927 3.97118612360966
S 4.673645826230572 4.227414861996214 3.7027962348196537
S 5.830655975108901 1.5294593203273774 6.517660353926148
S 5.4447230169787195 2.653494054379237 2.4971962972576516
S 6.134570541935614 0.10264221558065077 4.595416346305323
S 2.349243253967134 4.488208360823324 7.120584470395568
S 3.3081267120281423 8.4738040285467 2.954582065466951
S 4.573349382911103 0.9902578442280652 3.1515664662404506
S 9.144627098919294 4.68091818150792 3.2674451066194754
S 8.998646122072122 5.790687498938396 4.806409943362931
