23
Energy = -92.32824098 eV
S 9.135370189213445 10.18362048569275 6.076913295984226
S 9.603539488689053 3.3837914201772117 4.455107232469241
S 6.450824676984358 8.78683284743614 6.927119182073409
S 7.924240620947757 2.4018241738527677 4.633896520369438
S 8.929136132071312 5.174200902912764 3.0959623900711364
S 9.400732599194814 8.396830473784636 5.4621722046754355
S 5.356827952181347 9.797761470117758 5.082109719269605
S 7.00359470008841 3.118084470292346 6.485561055532109
S 7.378709963047859 7.314793775084186 6.110507203443233
S 5.630079529387864 8.539644453983042 3.647597063789555
S 7.098193554893701 4.8019697977568185 2.689823991043041
S 6.251431306753246 1.4353520122039696 7.293430307390442
S 3.8965594776908494 7.0739444660760675 3.713200198701151
S 2.7194891401149572 7.846945591359128 6.728181241328153
S 4.180974222560868 1.3298454526457297 6.80709223455049
S 2.4803955620781295 8.11107016907614 4.64476727137683
S 3.85588272005371 3.2488342898576117 3.9936503360793547
S 1.888164181069177 3.9527162365486284 4.061541362534857
S 1.0752196343413776 3.560671909778663 5.921598806056977
S 3.974371491144582 1.329280836103021 3.4301442966831086
S 1.2673622454863829 6.581683317077161 7.414659252554383
S 2.0266827018948335 4.640799869616449 7.386411403240867
S 3.835665318293329 0.12149584807382308 5.258599757692856
