23
Energy = -91.04076553 eV
S 8.257051665596327 4.398881733166263 6.646801955378223
S 9.497039218412898 5.471292000908485 3.660466676240827
S 7.928393373061682 5.672676934165055 5.093431615647238
S 9.186757557597446 3.8805537359733786 2.553529181538272
S 6.657193041782084 4.457775269941774 10.301341413856099
S 7.445568204379994 2.5074863885173193 6.0815309785266605
S 5.414204338889426 5.859201240373059 9.856026544584044
S 5.627948427774965 3.7833310113981757 1.9626575773645047
S 7.498752420682238 6.607563136399386 1.4342763738048168
S 7.63770239359019 4.77042726716591 0.9676675919130752
S 5.233184735592771 6.014368221988322 7.646539276218262
S 5.478154795448494 2.5974856370286012 5.695751203946538
S 4.978362187486939 5.415317618407845 2.8566658370546634
S 3.7346175871246245 7.290350100862322 7.443390845107845
S 1.893118526862061 6.091887100942695 7.28374485265098
S 4.421122407534815 2.0780139580566646 7.517246134374619
S 1.8168782207146148 4.482529513853841 3.608014380386212
S 3.3942591579850916 8.929032323996969 3.7483216792312017
S 3.740728017030941 6.437798584408542 1.571780718011863
S 2.542516643796641 2.7557482323992666 7.30061839803504
S 1.7566118109592888 5.979536734336602 2.4107846090695326
S 2.126769909725613 4.502377857201719 8.471400383875507
S 1.72326763188687 8.020876011860942 3.9209975005115614
