23
Energy = -90.57644389 eV
S 4.126148446764292 9.873745538761774 4.848777015705468
S 4.099364536380535 8.49852515686276 6.189863335522223
S 5.891403241745932 8.503804463500176 7.315911805900385
S 5.745906661993615 6.835092380472197 0.9569167315316583
S 4.161731095773791 6.806924597097683 2.126462842897253
S 5.856076631912519 7.1211431665770615 8.657917605079147
S 0.7634697304721153 4.261865199258218 5.724418211674347
S 1.4587411917390267 5.8754763908607135 4.725405112521977
S 8.98867620299304 5.6881783909693615 4.971660460793848
S 7.844978548176285 4.785414311846145 6.846181214337191
S 7.845224084867532 7.492212114290293 3.636246167978008
S 7.7429667884146145 6.5761755756327105 1.9249029294500837
S 3.1442113882008735 4.799457674584772 1.7182015474840566
S 4.049805165697412 3.338706797728311 2.552586342061507
S 1.1998854831731094 5.6348666890357615 2.735340869375645
S 4.16916668018028 3.559887719052312 7.450637800996614
S 2.2642638459415276 1.1431976386722134 6.048709466218422
S 2.519301126177127 2.900119459475247 5.341435185937975
S 8.131475640455825 2.8574508019303337 6.595237468280071
S 4.013397678173439 1.7713965415994954 8.086264314693032
S 9.181681201913445 4.266858735250687 3.724077098145702
S 6.391236396978387 1.900865206433776 5.703161030642499
S 5.744825499021154 0.6012277906256974 7.028552373028502
