23
Energy = -91.09885801 eV
S 8.208928319570296 3.796210798649792 8.905126016816373
S 6.679109068095324 6.265713627653966 10.356656069789217
S 6.444981248579614 2.718655827946643 8.868419874246051
S 7.576395174164316 5.73983244184569 8.558391914133372
S 5.541943915087053 3.2326934455474867 10.662508845697522
S 4.908794922996828 5.181509871440837 10.330394787091794
S 7.643553473319854 5.676320972237379 3.674343184845247
S 2.170985884244219 6.081953213902874 8.118673420668225
S 7.265121003647979 4.236455377990407 4.882473429693455
S 7.407143410257253 2.652958718276218 2.366683237483344
S 2.657727324424507 6.41125937469686 6.289367218343719
S 5.428288977655471 1.8974277957067682 1.9630621151722192
S 5.8518168287571815 6.809812347944053 3.185897819320151
S 4.124249284915371 2.2728986337888566 3.465085705263285
S 3.302616349666197 8.629654972081596 6.082002760871411
S 6.132783410818896 8.527867401909365 4.329919931242037
S 5.70207645542233 8.205648840735364 6.218694719426107
S 7.679541185697918 4.380709072133263 1.499639462606143
S 3.1821513169757547 4.117526309288482 3.1816222700654864
S 3.06901966259151 9.109158701193975 4.246251668736748
S 2.2207271315068464 4.762559622568488 0.018983371287296238
S 1.6016750671559663 3.8980290315860606 1.9171532657382695
S 3.8251306724294807 3.9608834465512825 10.66250884569752
