23
Energy = -91.99821139 eV
S 10.199078587799884 6.347258613320483 7.629182151714991
S 11.150044997195465 4.800769118899695 6.938143880113436
S 9.52401457954448 3.079808128937997 7.6975521915529725
S 9.292505615296779 7.494487476098076 5.915244006099662
S 8.216085137926648 4.203834242222851 8.493133064798673
S 7.005851664242907 9.17955287297505 7.057763080967256
S 5.358454719969073 6.715979470048549 8.204304419946439
S 8.516814313027837 2.24948987582049 5.727025105701499
S 7.819736312960446 6.526169082041009 5.124725058155255
S 6.909219498062856 3.3844212607023536 5.57926298295546
S 5.96263815429145 7.760325770408299 6.305295498809841
S 5.173991879036506 2.4949773031654074 6.4518558957832255
S 3.946433050251281 5.29847378911734 7.934117018889123
S 3.7480722623001608 6.674213562391263 2.742758909446298
S 4.82166271790708 3.4159672616614767 8.236717722205666
S 1.9999928228510064 7.50115178773044 2.859982348622202
S 2.8843203022062074 5.467272570132247 0.2724068636208172
S 2.719948648880599 3.4787102055078085 3.1780940614489124
S 3.8904222981384247 4.925588060856155 4.021557733940297
S 0.9150645363558223 3.3481546668929676 4.143710147669893
S 11.246377438195756 4.977938685479094 3.4938043197050006
S 1.240124997602304 6.364192960681024 0.6754234805827755
S 11.150044997195465 4.958558394314807 1.5031469832059896
