24
Energy = -95.18521887 eV
S 9.592978171427296 3.48682949493639 9.780798674926528
S 10.065161084398122 1.2553563007198971 2.019670190956314
S 7.985660976448723 3.483526594638404 1.0160244858887653
S 8.322890711131908 1.877848929803395 2.471463173220313
S 4.398318484243398 7.598703453817142 2.252998011490779
S 2.3495326272315764 7.454502383426459 2.2074779370157986
S 4.948008962190901 9.683881642689961 4.954914533165819
S 5.376781860268405 5.803980665816283 1.9933210432740562
S 6.611295106005188 8.652339179473318 5.643418252445188
S 5.661229126721721 10.021674641935533 6.883828181580312
S 5.736868695080153 4.975307494436139 3.8844009725609103
S 1.8101344191568458 6.963274542734328 4.17517776712
S 1.6410986476782623 3.6760180732447623 3.3106443275114086
S 4.850510655292499 3.1172455118227966 3.859816712950898
S 6.647964259214248 5.801467758398247 7.826954969744727
S 7.389127871733128 3.8849581827682447 8.566646908754
S 3.2226984555791565 5.092053329691121 7.7028497156734055
S 0.6205799667208928 5.295066042703585 4.040181127715869
S 5.766437281695275 6.737901350993926 9.334595890895718
S 4.54530046813717 2.154782489671052 8.582798445993767
S 3.008244328562014 3.0664138009559156 4.774744109311461
S 3.5776637058737664 6.6000934241404305 8.949455363830381
S 6.032319245078021 3.0402841885988896 9.78079867492653
S 2.8985997659104363 3.337096569630726 8.844395535449532
