24
Energy = -96.43280005 eV
S 3.8544785497271623 5.152568827541146 10.154120667639761
S 5.465100315326323 6.8653701032707986 1.6001511138833873
S 8.436347519301243 8.249578065609002 4.132956222085685
S 7.030920596231687 4.342869666366632 9.456532046842263
S 4.052170723263043 3.9063498681046567 0.9718083671247876
S 5.882419936916316 4.859347347890332 1.2458473138337522
S 5.488954895038034 9.06336532744627 5.592275415842147
S 4.230610284073197 0.8686315547006693 5.4932653762027766
S 3.093314159807443 4.616518477974319 12.782952677668035
S 6.928594641350747 2.904607823521665 5.053566446545765
S 4.276003415002642 7.054537674770671 3.241640154911695
S 5.403174574721715 7.154718625034248 5.041550152529584
S 3.627916793662303 3.3002906847987816 11.128292420231261
S 6.1928596465813275 1.0879321370893624 5.907354892366071
S 3.021927716812294 1.643493716463879 7.050904442476773
S 2.3198103635307334 4.812284732435421 5.896118612800616
S 5.081995428659031 3.6463896968927467 9.467009042884628
S 7.412748695415882 5.1449322036475005 7.596917193634871
S 2.006209496221593 2.90896184529284 10.154120667639761
S 3.4825048408190393 6.463241287521632 8.5871498986647
S 7.513728746316481 9.754654218228747 4.870012842575913
S 1.7836254250657675 5.933778824510479 7.557361773703588
S 8.256211816885912 3.6597000259417394 6.402100618437056
S 1.6511255459414496 2.87015094204129 6.154086795970091
