24
Energy = -94.15948246 eV
S 4.467648752262551 9.228526917300274 5.828201744809027
S 8.121701060913022 5.275291251225407 2.730928333180193
S 2.7397314572851803 9.123766505417656 2.915677058778369
S 8.990878802286543 4.760115689412005 4.879411753937826
S 2.4995305862992447 9.298326226668243 6.183581133751785
S 7.8297123151537615 3.2202712220266863 1.8065786201484775
S 1.7006008395878065 7.417672345187874 5.945611919279503
S 9.797046627546745 2.9754564695082086 5.079287524155531
S 4.537146267199721 9.272205714797062 3.55661950050113
S 3.3149188216919834 4.719408412231941 3.869683567214758
S 6.525294399911983 6.2682080902775335 3.101145223213717
S 3.0506750407260013 3.003805678792994 3.086561388595959
S 6.240304952245374 7.53408346510915 8.421972045304877
S 3.7128448953486743 1.4906743668106566 4.860154793234074
S 0.8463879041801734 4.895498836511301 7.859598684032002
S 4.6418468398857495 2.2091747685839165 1.650753281082023
S 7.80688467812461 6.620866891312218 7.765169847079742
S 6.409852194856013 2.046486219763993 2.6350539441349423
S 1.7563696457479394 6.59148032245222 7.953258147151803
S 4.867701979709147 6.4868409335195 9.295852809522156
S 3.939772972934366 2.8075137063474753 6.299427317312293
S 5.830871984327341 3.753905669497226 6.181956227023784
S 8.241001618681395 1.5930487775800544 5.644777121270828
S 7.228741060971458 2.5588021158726404 7.125475378441231
