24
Energy = -95.69282691 eV
S 10.852113016031398 6.020601471591735 4.127670766211829
S 2.0603781274613326 6.57938794016504 6.514410916030116
S 3.4286643113527377 6.356648614433536 4.887551353553186
S 10.05501707282619 4.402735875842272 3.454305802676176
S 3.0228649104291416 6.185328252997175 8.183327258525914
S 0.8962346382619331 3.7288622406434504 7.160680629651576
S 2.283143246425832 3.8922287455965026 8.471796426094134
S 1.9225550075098214 4.473419432239334 2.6226225439158934
S 10.867008210565887 2.7203646095064116 3.9176252353756715
S 3.965172083192437 2.739962418497168 7.568313721419915
S 5.48026398888668 2.7359123381544164 8.895352417428251
S 7.296032308760337 2.4183636833989404 4.2551574791111175
S 7.380224843657362 4.085903232679284 5.238487920872798
S 2.949110125857723 4.3097538890062825 0.8736756244106251
S 5.678642612904926 6.074828181195136 0.06198690809163689
S 3.305120642250104 4.444162794227192 4.195099616076016
S 9.521632670428211 2.777145257278733 3.0799130184537513
S 8.223935780043043 3.716872794691463 7.204862887286882
S 6.7760108867557545 4.34946426827926 8.467970352452124
S 3.732740024145521 6.256677242506331 0.4569702726638172
S 6.765141800909184 6.079726464592125 1.9289071581998645
S 10.05501707282619 4.3616531287216675 3.9833713839363267
S 8.59340342164747 5.421309448024899 1.2254954086949241
S 8.66081933167498 3.4362546803732723 1.0291830694616793
