24
Energy = -95.46101421 eV
S 9.818813333302222 5.972897763623694 4.489879686220907
S 9.243699422450153 4.545893922552716 2.236415019298667
S 9.71083694699619 3.256784828707272 4.573365897836889
S 4.293961264393045 7.094184839763836 9.190174254887653
S 5.330626241034447 8.291285593088123 7.842999416632127
S 7.970775168136536 6.061568279033594 4.89231499672491
S 6.072447418328118 6.420092642769481 8.353819479603889
S 7.869514118496716 3.3392906136860074 5.000535530969158
S 7.400331007288761 4.650295733395638 2.6477798109602415
S 3.449550880028646 6.91605373680818 2.9460399498564485
S 2.8804546231582537 4.770819245176636 5.951610465164931
S 2.7220937462652897 2.6488644541858295 8.607453561556508
S 4.34002482233313 3.6383929479163957 5.017139122977836
S 0.9769721850653655 7.822879010868601 2.1746460622331307
S 4.191095214282652 7.650242498897044 1.3673438894597447
S 1.7601256075105476 8.577963140072363 0.6257395517280431
S 4.1270000378505065 1.2239182944632714 7.976291330132236
S 1.730088815647071 3.3770277945701412 6.97546507920638
S 3.669958614327582 9.081063887267884 4.972665172892984
S 2.5802840740656245 6.0582561044849195 9.190174254887653
S 3.6423776393548923 2.6895379430926276 3.3363020717975687
S 1.8066202494350339 5.3608234670238915 1.4423258287000151
S 2.4764099598841183 1.0613566797973475 3.919219581154181
S 3.1067929581474716 9.074515063145025 6.969851923800873
