24
Energy = -94.41668332 eV
S 9.044611151369349 2.8954801689127905 2.494095528498127
S 8.671823126271988 3.769590032157824 7.0771041510859805
S 7.896777779869881 1.5192976903653572 3.3512461984181656
S 7.378373110888839 2.279546965299538 6.5869522007372865
S 6.5753966048802726 2.469026550864527 4.685154285339661
S 7.702171491141655 3.6500006299174848 0.8123745907726648
S 7.549217295217015 5.339725838705475 7.983011687743587
S 6.010588260240097 2.773750284631387 0.9974955643623971
S 8.535878800490632 7.041917683906115 7.440121438686747
S 3.9535916834748424 3.5994509791319906 8.570228015051015
S 3.2291696337103044 2.723164156790161 7.038974271625458
S 6.8294254174450995 11.111117076140163 5.784138418408899
S 3.209951916581309 5.77691431377224 8.455541516725695
S 7.792166491008827 7.907627722723757 5.729407230793505
S 6.4076742977332755 9.37255817743258 6.509445307966197
S 2.1893406754350435 5.806630345812077 6.794829297243387
S 2.334628512746377 2.825199945896351 3.109191994539675
S 0.6095511707942741 2.6120424960334687 3.898863405405465
S 4.7877920112225265 5.413753080152067 4.308196038980467
S 3.735037579078325 6.709641416464828 5.240663204818605
S 0.3599642310803758 6.614462435216521 4.029327498440732
S 0.32476451321872635 5.322288692497671 2.199006372360927
S 2.0274595554115673 7.654619532149886 3.9457807799536555
S 2.158690610839336 4.795238806104352 1.8436047481686026
