24
Energy = -95.07005296 eV
S 10.605446443253783 1.399482994055572 5.270511697586607
S 10.650093003629864 3.2403910733217085 4.707608530676242
S 3.9803685967654707 2.6531661704198957 1.3373825185152337
S 9.07825945110503 5.474282275738178 2.86651325620701
S 7.6211339513527205 6.254500092389684 4.655850747058621
S 9.016103524219725 3.5633315151754625 3.234399419597957
S 5.0575312829349395 1.4375815311477078 4.332286653644281
S 3.4359423326927603 0.5694153615814483 3.627137226087876
S 5.503924954674046 6.428450910261973 3.277581864226184
S 7.199715052262757 4.653879268175293 5.583935850618246
S 5.367186084434432 3.063498746146492 2.5808862562587196
S 2.3503153984567366 4.523309642693108 7.260164141834875
S 1.7513299402952416 1.3020941490702456 4.709174330647179
S 4.7163442235522135 4.8225253160116655 3.984903039547982
S 0.9022891711848748 2.8664114240745424 3.6913947156972373
S 1.5518310964159863 6.346282972827195 6.212857493341849
S 3.761919540478324 7.152640596579551 8.342144559401758
S 10.792623904156283 2.228670926271437 2.6397919269433077
S 11.391069060035598 1.4866594567336715 0.77042674429243
S 11.26697766161132 6.042186285730579 10.518284867757629
S 0.7318371035839938 2.9719142158503478 11.252291271900981
S 10.650093003629866 4.211622877404406 10.501958809782689
S 1.8607716431935688 7.7153530041031235 7.635276412847909
S 2.900241197158433 5.346216441762051 8.996380791245112
