24
Energy = -94.96640107 eV
S 8.373018418653803 6.873818676019346 5.6433413266451
S 8.549371189469998 4.98122103187956 4.823335770069602
S 6.60500263270297 6.915262187310935 6.764326467740302
S 8.532984738368619 5.050210207045236 2.7704784894566217
S 6.590805633021842 8.79972194058334 2.316865600789243
S 5.171248331062594 8.032325616868734 5.893097592104814
S 6.522286963779477 2.6680636488702416 6.9431311312158455
S 4.079186124381177 4.225736418875514 9.000942596070843
S 7.721644906645121 1.2451621903532504 6.492427221635885
S 2.8034307865532297 6.907831984841742 10.697491224443898
S 3.9482921130316946 6.620073505482562 4.800942091306867
S 6.6180337233876765 4.992404128788694 1.9214652613341894
S 5.900029002377749 3.108605515449354 1.7113910013649272
S 2.522658912726935 5.0846404891818064 10.169643452467593
S 6.517119303601164 10.561735744456424 5.500271000889437
S 2.447115997449901 4.297797234777458 7.636320004600845
S 2.58311979414932 7.787221156916544 3.930256748819157
S 5.844708774408506 10.561735744456426 2.3704323528339275
S 4.31389785972179 2.950768404114368 3.153630235096408
S 4.684738003016147 0.36925007908835106 5.494492472825584
S 3.607007508066985 10.392968459372211 2.071345510974408
S 3.2600794410081217 8.447111975620262 1.9768095254677078
S 1.7841999941061595 2.5941189437545176 7.063868953610204
S 4.091327090265059 0.9871476609704939 3.53014420155891
