24
Energy = -94.64162053 eV
S 9.051434404894167 2.9697991946394353 1.6173831950400022
S 8.556205899306454 1.3740825525963474 3.3418532701284183
S 7.2858015292991904 3.280170554405691 0.9147092338249962
S 7.229897251141165 4.510230765477569 5.185989522618455
S 6.679238821349874 1.1159079163086538 3.1343265805662925
S 6.402826529026415 5.996223076002257 6.3748361901663735
S 5.912345705463058 3.0006652159111793 9.428520376297985
S 5.824046727463361 5.490613263759348 10.447842917415707
S 6.471255248376714 5.1368007147978245 2.0030942597499144
S 7.820148224615515 5.496405032455206 3.409727896703932
S 3.2896837556104277 3.1645213712435023 6.062504022960316
S 4.521056398322827 6.432637859366328 5.790142402512547
S 3.4478198983568342 3.898541073687292 0.40276747557556025
S 3.0222454871334175 5.259047207942808 6.960370283099545
S 11.751888692499273 5.039570849023652 1.5560120200993817
S 1.4990693529934171 6.338950943727176 1.3856548712179857
S 4.058113684600472 2.721379124541607 9.733740496931555
S 3.0684871204789266 4.880892851607094 10.823719457625563
S 1.7177936869506616 6.648684387771178 11.489015046378979
S 2.917370021374752 3.3485041546167698 4.10092356452993
S 3.967558550355702 5.361023529496131 10.823719457625563
S 0.9506466644450142 2.7665421947948126 3.6857504356022757
S 11.81079280633914 4.484114598947263 3.4894027451046803
S 1.401520295210073 6.079477551769106 6.3345420726363395
