24
Energy = -96.20041599 eV
S 8.654891950191843 3.07522261059335 3.857184892480311
S 8.506518050802105 9.339793734862278 2.8000521291754827
S 7.205401109786621 1.6322959226269635 3.8629446130877048
S 5.826939028682181 10.781041518252694 1.3361143081843472
S 8.287820253305895 4.485335348762516 5.331076331052526
S 7.897387726082898 6.303004197110634 4.323324396280269
S 7.956878766174944 10.929101616880493 3.833423343302205
S 5.572884724500609 2.3953202886218756 2.77001833212778
S 7.067514664663343 9.352713104544145 1.0347284414075573
S 5.995154770628651 5.89082675961524 10.729969817627808
S 5.341018099753931 2.095877495539055 7.861586200448243
S 3.9046091599925936 2.1989507439287617 3.9065682066089416
S 6.75391670947673 9.902077178373194 6.863666923649301
S 6.0019714497253736 6.513706345362629 3.78756329446003
S 4.943925584368238 7.282706570291231 5.649071960521391
S 6.217778583470185 10.551301916589 5.063151821422031
S 6.336591381529859 7.700189881879988 6.9418699839584495
S 6.57561045067033 3.9200912901375626 10.47988270066352
S 6.728077888053506 3.505545521459483 8.45077406699933
S 3.840491139225618 3.786779817169712 5.302409462171289
S 3.5804599838428106 2.9225326583331106 7.139725155761325
S 4.055724366633515 6.038780864538689 11.37063004141649
S 1.7406318883738843 4.819796403925282 9.269130063094362
S 2.847078439983697 6.372221260036624 9.628478764571325
