25
Energy = -101.52404016 eV
S 3.4026405356952005 4.425560629368757 1.127868908959711
S 1.5167307295764267 3.694761627141096 1.6261697065163871
S 8.163824154473087 4.959263994698244 0.9671276604889112
S 7.144604207057449 8.39522279703567 2.995220335064953
S 0.6037093931374008 5.301092698683003 2.518712625858953
S 6.004637521671896 2.495042695929351 1.6151148831070399
S 7.842656978846619 3.1401392747004504 2.0824182165179757
S 4.647440776067447 3.7770534660206185 2.6345840274504275
S 9.415889102184266 6.083278659202486 2.085932799036742
S 8.483312014183639 7.008338664060615 3.720639738541714
S 5.315040754510166 7.450145388409107 3.2207867385373756
S 1.3870183921969863 5.388851357363895 4.463848412620624
S 2.6971535066028283 1.3387225065182076 4.916660621971314
S 4.285642938051106 8.360537591487795 4.771653709518551
S 4.236184909379796 0.23308013744933145 5.721619835546486
S 10.202406382772233 5.3604517206130184 5.872243792102188
S 0.9882569959978015 0.8226702141354524 5.980375130680697
S 6.706567319285992 3.9755208243609084 5.799518010791073
S 6.912975337130337 2.092096638402841 6.60054465318791
S 5.175264118862709 8.091469796178409 6.603797243361557
S 4.806166473628737 6.215615028390294 7.4379693536654825
S 5.129194991699208 1.2909586551523593 7.265122719861308
S 9.415889102184266 3.4867369936421557 6.251285211723519
S 6.632554638410957 5.28542789555335 7.42861718908481
S 0.48506615097305666 2.3285728465909803 7.292780576892638
