25
Energy = -101.376012 eV
S 3.4718272927946554 7.44330650383809 1.9221776745408892
S 1.785076550203037 2.767677376930847 2.234754581894688
S 6.1886020568129085 2.1105978818749183 3.0299243547977146
S 8.107135496902982 6.109437284493858 2.4039506760303104
S 1.2530264918290637 0.9674715552456915 3.137696238253566
S 4.7773416846851005 0.648187743061895 2.4052380213276967
S 4.662349683667384 6.130495171213467 2.943067899059832
S 0.3576124517707851 4.163836575423461 2.8158449103322893
S 8.65231578702752 4.374881776884111 3.344576734361415
S 3.1726013468346275 9.091099772964387 3.193914586274264
S 6.530887376115629 6.992366954436067 3.3784790605498074
S 4.13552643942463 9.091099772964387 3.9827458291640494
S 2.4272549628749833 0.6444778145083774 4.747029329500856
S 1.2057866328717632 5.535570418485245 4.079016648528114
S 5.170295226008261 3.148589000029826 4.464278157098326
S 2.6086815338134772 8.451906532997388 5.057876691803533
S 9.342349532258647 4.949250975391287 5.3009774433803045
S 0.8625540554356823 4.9959264856204975 6.041747830398801
S 8.933256150602034 3.364272767764291 6.459857378429218
S 4.307351276099655 8.425449150992883 6.266706808316233
S 5.7452426770513165 2.2195584016078342 6.243267974984816
S 4.986255780958487 6.507070320653431 6.55595865838113
S 2.599228263891925 4.159098879289291 6.7840058261010805
S 6.97761825438057 3.514907243908098 7.252682261769363
S 3.6296086018419644 5.589009777662511 7.844010030877704
