25
Energy = -97.82101236 eV
S 4.783039532826042 2.4018209616694044 1.3809539377346947
S 5.364756013233621 6.5790340599295405 0.7515456667384028
S 3.5176395261238844 6.14958790776663 1.024484807434184
S 6.546867115525685 2.2934665183958893 2.156950828136422
S 3.116813978512403 4.870713351510545 2.680295384366377
S 5.974806928483596 7.676059277125026 4.566825527725567
S 2.273749532008039 6.752821145882669 3.257797201518977
S 6.356288502690921 2.6431486324791997 4.327163990626227
S 8.750303386878894 4.864831552741935 4.55013903259589
S 8.22910219591989 2.73992095301313 4.974556374019824
S 7.633591008369523 8.35573699563527 3.8585172144266653
S 5.297732076249616 9.04286167216355 6.160363009029453
S 0.364264553325075 6.775372764421205 3.4247286104253423
S 10.596744092042258 5.1104896468094925 5.10107438666542
S 2.21275983030185 4.414282296931584 6.771870499194847
S 2.4180763464233914 7.713753009180202 7.0691996907921
S 4.575935151321809 7.839440831264737 7.567297970414911
S 8.601909710756743 6.363939592602425 7.5442497466074325
S 4.413462066874672 3.829710065933318 7.551909367484514
S 7.951383443467325 4.386533145514883 8.712642418518028
S 10.471450358471959 6.0102074333713205 7.264321663043362
S 9.586880558021946 3.417390563894677 8.839370393886439
S 1.350424777421576 4.79052003032162 8.446232123427514
S 1.5182263565551766 7.127920527465959 8.69173777876104
S 4.2115175223706105 3.9681616281534255 9.443496940603344
