25
Energy = -98.46459063 eV
S 7.514126492525744 3.8116252056618265 0.021269429230424446
S 5.428418765036769 1.4101653579839288 2.806420173565332
S 8.077457029533402 4.829277025408828 1.5340109049669708
S 4.0475523292322935 4.025492569466669 1.4022475476034744
S 7.678246199036295 1.6262233714572825 2.349555804256907
S 4.7831924492564735 3.1895097657651297 3.308017575275834
S 4.417965362045742 7.348732090810814 1.6140083847363937
S 3.0637328568528734 5.713480917312413 1.815984985085844
S 8.253807666670602 3.228948488808972 3.2599723854503804
S 4.122323631097883 8.566405330728443 3.264987371905127
S 7.276562346246563 9.090136090078218 4.1830723910107785
S 7.05431674721562 9.782882951937287 2.410034214603616
S 5.336247338076753 8.081723365619538 4.776872419614075
S 6.62254171287978 3.122536577776359 6.748188001914624
S 6.374389072191326 5.023324753575768 6.627637261288718
S 8.24773046021291 7.7660953965626245 7.502656576873089
S 1.2185807058357134 3.790899473513532 7.074947434590233
S 7.776423111333816 6.031866347139256 8.200115200886051
S 1.3014944460761304 5.892895314442097 6.58586515989166
S 6.358105239322509 6.638668609095516 9.841419882103734
S 3.114906792706808 3.231740837548786 7.588308999116695
S 1.6170205387946994 7.019598148330623 8.122690489923484
S 3.2356712296809036 3.040822152488824 9.658227033922392
S 5.66828604383309 5.1024712411197255 10.946730099252953
S 3.616089513688993 4.839666696751953 10.561948352315065
