25
Energy = -98.69432514 eV
S 2.9665679749833442 2.348876027938558 14.59629536026692
S 3.3492377707577887 4.338490944496202 14.371045461005703
S 6.309914985449211 4.647612332202007 11.866631638116878
S 3.932702639064669 1.5327353363660376 0.18316084146398126
S 3.9663540231189836 6.541535435843978 0.6500565401452947
S 2.436564859961822 5.400672635954792 15.944418789778794
S 5.995786973451078 1.743922090257107 15.959721302792808
S 7.148459357220196 5.143834794728471 13.499456203739662
S 6.633311420212387 2.7312788274658577 1.6013147915806603
S 0.4953410619640311 3.4656549270844734 2.988231166779558
S 6.725872892141917 4.784760606093991 1.3777181640745864
S 4.996470586966986 5.612649637294951 2.179742751130735
S 0.3454331407226014 5.390223467607507 3.1072563142223957
S 2.259520928380093 2.694489380157208 2.969358892495476
S 5.3009028215522465 2.1578840706219142 6.141445462633932
S 5.274115369491379 4.101778643310812 6.845387297674975
S 3.8063023579275117 5.151344941163915 5.805718809509999
S 0.6795111541822642 4.598165583485818 7.142491829225228
S 2.2787599232239364 0.9663812819011016 6.361878453882738
S 4.179454833613618 0.8728854260195384 7.277277203631492
S 2.380052859291138 5.76067779767026 7.165387490174351
S 4.425121519563345 3.485333247494339 10.736668239944477
S 0.9897602325995816 3.171710783550823 8.627854834391151
S 0.8579321770616859 1.2907431682540385 7.782019598199118
S 3.036373038904273 2.8361835148419607 11.866631638116878
