25
Energy = -101.79992032 eV
S 4.01454053003173 1.851586649428267 8.784482268203996
S 4.132683583075067 3.8819911890216448 8.767911975031025
S 5.947253576504342 4.3890230754898045 9.760760933543594
S 3.344306683599546 1.0332798526197697 0.4644341388822468
S 1.2782907381706528 0.9956557230103913 0.4968853971691696
S 5.537353599231879 6.097326230054225 0.6602506905162742
S 1.8748968089643032 7.505948747312945 2.5849949941695103
S 2.6918428288807497 5.631463714650035 2.34822192555479
S 0.6406268510226922 2.4328938244588403 1.8342981144884176
S 4.751646902966626 5.671614609455351 2.5442178740955708
S 5.050318313969171 0.7557151170798939 3.736261173897954
S 0.45635430867719695 1.5262828678435367 3.683222579777878
S 6.383677644933374 2.010305664473356 4.680007381888585
S 1.505923386665535 7.710502745214 4.619472890651267
S 5.4022946629420385 5.601208626227653 6.535005107335612
S 3.7019663322670855 4.482264132748952 6.926792982647531
S 4.68382396317087 8.653126912101335 5.468376086322368
S 2.069066542571727 2.002166501038592 4.877952673324151
S 3.407212584789293 0.40895173523552203 4.926065708379177
S 7.153817371982366 0.8857016042915363 6.275238622919876
S 5.103256894964966 7.545788424261688 7.167169251215293
S 2.7042078448714872 9.214676745300554 5.369928559750658
S 4.058151779850813 3.5844665444373027 8.767911975031026
S 6.792765341852939 1.8860923073132698 8.0110173019793
S 4.749016508897843 1.6772620417863178 8.484929167336851
