25
Energy = -99.86008443 eV
S 5.611990982802086 3.185758001343655 8.73766244313858
S 2.1277511493568824 5.5472992835588615 1.2817116863911389
S 6.432860464586101 4.940586638921707 0.598456337360781
S 0.6462267113896888 6.805397762159754 2.133412839080879
S 2.5499295659802206 0.18547516835541542 1.933269055695031
S 2.9901842937532237 2.1985715406015203 1.676120238707386
S 5.116264284803886 6.532780369150404 0.5440253796711154
S 5.0937297138132385 2.0979868021036663 1.4929241699769877
S 8.287600757118055 5.249977351160244 4.397004049565179
S 8.287600757118055 5.631328169044408 3.0623666894619075
S 3.870603244783963 6.2923120787498545 2.1682357736620466
S 2.085031074934044 8.796052090811873 3.8823457533291936
S 7.246614446770768 3.5405092462275096 4.210547414423139
S 6.943749501575864 6.54336416642774 5.846382575418648
S 0.6752869989597164 3.460286994779636 5.0260453904890126
S 0.4354369241731903 5.65723425998793 5.289259903657713
S 5.933093679708115 7.8442812422330075 4.873370043141348
S 3.9505769455958717 8.885133782872646 4.955428565271151
S 5.534189003542191 4.824528970774594 6.392153018511217
S 2.0079192445853096 6.703622198610474 4.97909543854195
S 7.675740479538765 2.3632381114889838 5.8276759892599586
S 1.0199013383935507 2.7836866079874367 6.9098931829908725
S 3.344855056611083 0.409129459575855 6.841770282187055
S 3.0613825721730112 2.4546833254379377 7.155288612223007
S 6.6860022683165115 3.581906635063119 7.4000766282284065
