25
Energy = -97.50941723 eV
S 2.9796692593114766 7.1099842337790315 0.5415910479411746
S 7.000282138315327 6.660260410204171 1.9454808169800792
S 2.3790036273189363 2.7217191804422782 3.085115312551568
S 7.740635855306936 4.566526094798584 2.8356034189730774
S 8.643260357009112 7.568824949203641 1.6087342475737247
S 9.6435722232978 4.818502582684771 2.7610385878455452
S 4.475498733936588 5.578548146094233 4.339022530492856
S 1.2641558706196354 6.641627378694443 1.2479243234952007
S 0.8954564154507276 3.9067085632858123 2.8411175712809054
S 0.69604125502519 4.575616819112068 0.7454659895770448
S 7.595258949966855 7.687628871354537 5.564735591471824
S 10.209512035887597 5.669602557847214 4.881097935078465
S 8.513105430118465 5.70309505449894 5.833265529378594
S 5.27351864520649 2.4413374258699556 5.0015782546714815
S 1.372248742448779 6.01344779716115 3.3716025024230447
S 4.786662268329107 4.191655367084209 5.65051185368348
S 6.3141872040460845 7.7049701068808645 7.119182453530812
S 4.820005484882256 3.253378966291295 9.6431431133956
S 7.114578147569308 8.766425180815862 8.746266985357344
S 6.635555980878662 3.89784037626582 8.957812966730506
S 8.478630042543303 7.6648878196361245 9.804436471271446
S 3.5201999078167545 4.96314086238487 9.426888276855257
S 7.834479835358254 4.470606557647815 10.544391146011256
S 7.45503648300396 6.41296249917872 11.115063881518559
S 3.112319353166 5.763576445597026 11.141803438724097
