25
Energy = -101.77622776 eV
S 1.850253621619755 5.165114091911091 8.812871999593096
S 3.280332968008333 6.753109880355815 8.850664322407383
S 5.654707902429867 1.0775440950182362 1.344563454215706
S 1.047832571464417 4.935703869412655 0.92834712391851
S 4.38488234106127 2.538544660965393 2.101491168669256
S 9.355196686276585 6.416856023533087 1.3429783326228495
S 5.8581688563738865 5.389998032567014 0.87802542161488
S 4.273343778912054 6.786874499520496 0.871710807996529
S 7.0075958641375795 0.5282322539348783 2.7885369961607225
S 5.518003900133615 4.211778165837844 2.52192975662959
S 0.5469794114736343 7.688935433755839 2.6847030561887886
S 1.8682026087685457 5.5422721093533545 4.885034761148766
S 0.2686659837996693 6.84550080610696 4.5397123790591705
S 6.277500788794104 8.658533188007894 3.9069416011013245
S 6.089623116529996 6.482901098636439 5.275742066206398
S 2.913599593864013 6.186034935502679 6.527397815780873
S 3.206410391365792 1.6605539113843475 6.304428031065978
S 7.4426435106541495 5.858009045787362 6.708204626263752
S 4.463860822567706 7.4901414419756875 6.0723567821241105
S 7.238135685708731 3.809461313530739 6.942976500943939
S 3.7758608366535453 9.442665595395939 6.055952180468076
S 5.848752050259307 9.246956244314172 5.826408432355246
S 3.35574111248546 1.9789230291232327 8.39001213085419
S 4.394671317004892 3.7035790171855565 8.71986502898431
S 6.4480296884186235 3.4202354000509994 8.812871999593096
