25
Energy = -101.51740247 eV
S 3.440012774907707 3.8171850011525326 9.086725906668102
S 4.423952993508921 5.458539172065424 8.268703917432367
S 1.6545181539688016 4.416802956923539 0.292004430515027
S 6.67605204706611 1.884895880809964 0.7516515805683026
S 7.575217942172991 4.791363297490156 8.915162862163491
S 5.373084293449964 2.2111929134952186 2.314638955543523
S 5.986388576949691 6.019680090428589 9.478399334257253
S 7.994270623756112 3.4989069174409035 0.8189985628432008
S 1.8386619113990728 4.699931009275012 2.3319891235614847
S 3.887451661612232 7.306841793875561 2.912255554377049
S 1.928924974460074 6.742138755039166 2.6709455403960733
S 6.187148547798789 1.1969489271899696 3.9357823215869625
S 6.958285669324887 5.388514560231843 5.470078099265707
S 4.247128312307769 7.227389041799918 4.983720722837885
S 7.840253343569938 2.2393586897264175 4.582105645173958
S 8.772842517096176 2.790031539283078 5.202433549164766
S 7.378726417871858 3.5415931051197727 6.15628582139619
S 4.788327692979085 5.3687790849651185 5.518252310075503
S 3.2105014839894586 2.3566507643171586 6.939516512223625
S 8.901113344581612 0.7084015323049356 5.758263618215875
S 2.3986355315431744 0.41561892515017534 7.217215551395197
S 0.9610616709160903 4.729108759790058 7.123626832944948
S 8.71146962586053 3.854642375710624 6.927056742362654
S 0.36954890839170784 0.6135442264767789 7.461920490859478
S 2.251427137660163 3.5826515987251586 8.268703917432367
