25
Energy = -97.9111041 eV
S 9.385734845448336 4.224128070228235 0.8171333549831363
S 5.104910728812126 6.428461620748649 0.5152007289486507
S 9.342126628168376 6.294431276954698 0.4137278727403151
S 8.345900837549673 3.7930485217314835 2.4718867069257215
S 5.304177333251814 5.6248295938170765 2.2433810597516652
S 10.261626614577985 7.277891497876012 1.966929955974093
S 6.155801623929172 3.405922098817495 2.099537821089998
S 8.764713166551218 8.13530821743963 3.0867687278814566
S 5.611327833042094 2.6150160338120294 3.7668551964055603
S 8.146661329206436 6.75195629458669 4.5692450106551945
S 4.459969027233387 8.05320822644218 6.365031723701593
S 6.4022342784763975 9.277549489536716 5.888185565738266
S 4.90552721861639 6.296653402236475 6.954347432146712
S 9.032355799457768 7.163621818236696 6.286019340881615
S 4.382949058743203 9.057507622653102 8.803494056874337
S 7.714384836165872 8.764780265491575 7.229108065589187
S 7.490079163418262 3.7890452068251834 8.33598815906855
S 0.21756658540752563 4.231145289626787 7.971636504995009
S 8.37004636553478 4.917667006614427 9.840105263313982
S 2.366735864534234 3.846214208313727 8.499121643615492
S 4.639801136563924 7.323553671585282 9.607594069961657
S 6.763265450359099 3.6751677580355406 10.282018817523861
S 10.261626614577985 5.329497859736051 9.335536896913519
S 2.5818251455078745 6.742710008637987 10.075740833496653
S 2.541835363678284 4.710887371142251 10.30560762194933
