26
Energy = -101.67066494 eV
S 2.88904379761064 2.9618802041059022 2.350636438778858
S 4.632193341595834 4.93880191535043 0.2320194191938618
S 5.968259509513394 6.967056918823218 3.6055827897399544
S 3.6152792910295797 1.953848693956419 6.850887167920355
S 2.305865692988499 5.021766540779097 6.504066579426552
S 6.834166217416132 9.279094603039015 6.062923467477364
S 5.363104276040037 4.002312484829531 10.561180466126478
S 8.95566502070057 6.126935793341698 2.5700150548802925
S 3.4364188438557948 3.313012029899846 0.09888641126518695
S 8.99924160739195 5.557554209090323 6.28140527591538
S 0.5133814054360208 5.579604187677007 5.274528931588904
S 0.7356833222116229 3.971094956521113 2.364730184303519
S 8.756135402502437 4.412371438187589 1.701939003589875
S 7.447840605487496 3.164830712234801 8.062402323657297
S 3.939415759433159 1.6757395903940338 8.763117406524263
S 9.254820121665325 3.8990718584652555 7.511075921450042
S 3.9851773795306658 4.090031812615954 3.418582828717798
S 2.0474189972023797 5.775259919914413 8.246091232744323
S 8.926708711086626 7.2365851616747126 7.490926689734433
S 1.7845849846972786 2.8082739168585147 6.461309337361869
S 7.295642854794736 7.380459730633623 2.069756667547676
S 1.1240345180257738 5.669427230069413 3.314783541497798
S 7.160164035294925 4.2783462702054464 9.918196911115164
S 3.6209519962140897 6.598182529754786 0.484557414708271
S 6.989298654824723 7.923628690199733 7.626711302507766
S 5.4422166954921405 8.63291656804072 4.676243843301923
