26
Energy = -102.60207867 eV
S 10.414614818171959 8.162683301936882 7.724437266439749
S 7.735921326401647 4.55135002655211 8.775937205299412
S 6.336898718672792 5.936454610787306 8.32425968664816
S 9.766696655356249 7.7210427947147435 5.960922499733953
S 7.684283174325485 10.026999814746837 3.080364576722016
S 7.137377905038062 2.6297277996127844 8.180284541143584
S 10.619486357790683 6.2685743692102776 5.014658889354205
S 8.066700627931494 3.3801428489777727 4.294638851775683
S 5.666302602879792 2.0445514479615006 9.469939427265267
S 6.676282151401935 6.461374614643558 6.250732488202072
S 7.382407908052324 1.6295856140054448 3.9455048433596116
S 3.888516730394077 1.878991556449374 8.30510630558808
S 6.463509832735374 8.932741787040207 2.062661680652328
S 2.270571766135009 4.757795147843763 8.969042086554833
S 5.295373366526281 7.711784003914123 5.761427892145307
S 3.365155661104768 3.6087292817962533 7.477196508533001
S 3.973242418572778 3.396545746728688 2.6452975594717527
S 2.6185391920365086 6.438456195384913 3.106942849814827
S 7.190117788289311 7.476452777034815 1.0252735754782076
S 7.01966019728639 4.832190873599979 2.8660649077007543
S 2.82523237169608 4.844393872181188 1.7662885060910285
S 1.9741106252068923 6.462413649804366 7.926164006792664
S 5.884976586598555 3.6169782906614785 1.776846671648033
S 0.11170601872448033 6.3549182378856415 6.968416144379499
S 0.24669087631285175 5.236172925208255 5.251531254965633
S 0.6287391414854541 6.46818059470907 3.62306367906852
