26
Energy = -102.97401961 eV
S 8.207502565205118 1.6711747231668375 5.254192814277168
S 6.611672976699496 7.316175234609489 6.953924781098602
S 7.099922501294305 3.2748734419919594 5.443579390544938
S 8.326796974403683 1.1509229513124333 3.0450724275460455
S 8.448784373340146 4.99758921424096 5.3935478034925985
S 7.179742859830325 6.56565808716029 5.1434421473106156
S 3.9685905497321188 7.968267069327597 8.728627699965582
S 4.864293701354025 4.636725589637035 8.309024708763188
S 6.3099099950185105 8.447833790392846 3.5970044231112084
S 6.640493394710329 7.682359359531896 1.4695795334065749
S 3.2777335605475058 3.510762661449058 7.939123976845056
S 4.482589924500964 6.736381263147257 7.347431387383174
S 6.661049848622866 1.771391755412657 2.265737221516333
S 6.887561649153337 6.144998416127475 0.36415071274195004
S 3.751902299112962 2.2742087836647045 6.227764431694117
S 4.277557643321052 4.2471265055585485 2.1508684690099864
S 5.214844037295755 9.741382728871674 2.7167176929187837
S 4.407698374394011 7.5866289222947865 2.1558653250120083
S 1.461654337096099 7.264069038491117 4.640706384652911
S 3.7834583936974515 6.057589782902479 1.0912441887298092
S 2.003455521277335 1.9296869516478368 5.263022900074552
S 2.5717198647870556 3.1407117271568916 2.1893034410422194
S 0.47537050426520183 6.4043286218859485 6.025593492282876
S 1.514069000335508 3.4659980339636824 3.9515457456761407
S 8.707955827193473 6.2296835163861335 3.192951014045877
S 8.448784373340146 5.668138842787059 4.993169434676478
