26
Energy = -101.79007225 eV
S 9.816157100391974 1.8373635937459947 6.743232231350924
S 8.20071459846293 1.496730020495458 5.5810166862816
S 7.30798909923433 3.9330057801263827 1.2524936788007768
S 6.916657248167733 0.10803872297110102 6.453039727607819
S 7.665796640286727 4.209546870927149 7.961388203936466
S 9.519888893783975 3.834366975466595 7.63124328621115
S 8.209239751893941 5.410500762137008 2.0721640651129216
S 3.3119826756750537 5.228130807706765 4.704119717728956
S 5.74783864510341 3.1874519400356154 2.7462257961407346
S 5.565510449940593 1.0614693318650228 7.67990524657301
S 4.368175632422502 2.2685836458065642 6.492282914318069
S 4.6836554244474105 1.8405178698601738 1.8792439382661175
S 5.073608224614908 7.701983210280599 2.1896807443323625
S 6.400687419917994 7.023351323303556 0.49892294937586507
S 5.657998439224413 5.374742256149541 10.379031568801338
S 2.284983021665466 6.35336685507748 6.167727330295095
S 2.834560036834008 1.2082296107000738 5.674146615785275
S 5.125253024341873 9.626202428409702 2.219143353668048
S 1.8476756256451727 4.5014254807394565 3.4843386784847765
S 10.545379334666118 5.353113303831534 1.0410244138020952
S 1.2954145646277775 6.150013426605638 2.2138183747530875
S 1.7949834882210856 8.03792922274361 5.2334678395209755
S 1.2171095644114949 1.5436385984721315 7.095334843859599
S 10.133970549120074 1.7952262114659763 6.098493230531262
S 9.816157100391974 5.7248158022276785 5.110059058804637
S 10.398854439161541 7.250519177322883 4.140624840461241
