26
Energy = -101.74111853 eV
S 5.087851669280677 11.265197812432646 2.4535617792329245
S 3.4019584465647257 9.880311511792284 2.319888415467966
S 3.194461143683897 8.842766275091885 3.9159900623333437
S 6.246438348969258 10.150836275196838 0.9082510756877553
S 7.7773471475246945 9.26458007494078 1.6383447737598
S 4.531111224582004 8.811448047470902 0.7014810989910532
S 9.276250958603148 4.107507667653064 4.459774064191585
S 6.028228782317051 7.759696238201754 9.311754167668097
S 7.438013858322024 7.234720859646321 7.761231755123139
S 5.2986310039508515 5.957186049599083 3.4460818718251
S 6.563024844762364 7.542990343756891 5.989814124430864
S 10.476401597520637 3.035166498239203 5.547915286585106
S 6.027235653748806 6.254786558778503 10.635195698151533
S 9.782600384813964 3.0334917366257454 7.633765354017876
S 2.031396072143913 6.073202316601039 6.647292930037671
S 0.5163205247065055 5.52929031804714 5.290369442103874
S 5.7038424064843145 5.647845806885058 5.304772283432681
S 7.773501010697737 2.8175141919370357 7.417150348022278
S 4.475988029263955 4.86200897732804 9.982263748065543
S 8.055382466607044 0.9503784257335004 4.7136361696937215
S 1.9851652744913557 4.085726142064164 7.357875418077395
S 1.468937289041171 4.189594119699133 4.153718559391953
S 7.550844584625248 2.6276503862320872 3.8766503992863504
S 4.989332747798537 3.085607494648688 10.5330898944323
S 7.349406332097613 0.9327748749936182 6.798226645488443
S 2.6014526736818184 3.0788353980811425 5.74684702761439
