26
Energy = -100.47923326 eV
S 4.931276776302214 9.72179829491401 10.223527675920417
S 8.578153136948764 7.336923923554366 2.811539760227239
S 6.921773055718704 8.224130782721423 3.357502750977122
S 4.355621300665395 9.156198264189658 1.5226425092374454
S 8.184371623650783 5.473744707719776 1.7763455489529352
S 3.0586575617521445 7.737039572182062 1.645083081809031
S 8.805829015382793 3.880491161285999 2.833406242580272
S 3.715137245195173 2.870814359931785 4.205580010904071
S 2.8563751386441525 4.641878602989925 4.686691372258839
S 4.543423806647466 7.160276250263297 6.161643149030065
S 6.568313856292299 7.017766027648695 5.9052932427630465
S 6.991965843149674 3.084386622658986 3.685756453041134
S 3.647349817727381 5.323786931120897 6.500654147323576
S 7.4423091762670515 1.881560178394432 5.2786317356660355
S 0.9894454927439 8.471340082877614 6.3272986483867015
S 2.335474960916436 1.5683549547094462 7.031729907191125
S 10.429369814620552 6.896549798650127 5.994106900394847
S 7.170624235980411 6.917934999460265 7.961327020172163
S 7.099963379426297 2.780818762522989 7.077588327506648
S 1.1733381939129488 5.95662790419999 10.223527675920415
S 2.8493202035237495 5.107042585101801 9.928440025560837
S 2.4531715574129582 1.347595598967376 5.117973471729497
S 9.575504234509125 5.1464718334293735 6.449186973920049
S 9.232725014707139 6.554760536227316 7.764130200630228
S 9.129720235971218 3.2026735134425266 7.862118018397823
S 8.91418221598774 3.9871389291016386 9.593387931380564
