26
Energy = -101.29450891 eV
S 6.367744473832866 2.0910229135418206 1.9803045624112223
S 7.038208423531806 0.7828466929439698 8.073551095759885
S 8.17154781086759 2.6551336998366133 2.3372139262863785
S 8.66306065462646 1.4060801029839227 9.46195845630977
S 5.455968427619779 1.7308990823210422 8.742954598901417
S 5.188086682082307 2.1810908045655486 3.737939786898217
S 7.14647883810253 3.8736700475490604 6.734266179451061
S 10.348068809202754 1.3365056260570893 8.533665025366853
S 8.613846542916185 4.733361629036367 8.008459524146053
S 6.249402043797717 7.189909747917656 3.0505500196885373
S 3.3833313981882753 1.6181539788769481 3.384561353531795
S 8.175745694715093 6.592874175699124 3.342231124185153
S 5.398981435417547 3.723414215437611 7.668032411867781
S 4.998590438859671 7.108430200134073 6.157500785923781
S 9.939815189929783 7.1447777223406055 6.189946542571261
S 4.920296787980153 6.205166273171263 4.336332494347319
S 9.000637441536401 8.051260936756705 4.64093230400783
S 8.615352610457457 6.75801799461731 7.781815646351817
S 3.843098978385701 8.918521461052167 5.93057568182645
S 0.5629542619781276 6.1872774668201105 2.2434658386020154
S 0.680961975199691 5.189107380099397 5.529209391963066
S 1.8294785281118826 9.352453717451532 2.6120380026983305
S 10.712689043587794 5.8126165605667826 4.149668253359553
S 0.2083391740877602 8.357729435853027 2.3714437008148637
S 4.9076507265310285 10.41617901102151 6.539359312912213
S 10.348068809202754 7.985425790802277 4.279936481281775
