26
Energy = -100.24747604 eV
S 8.403124600411163 6.567834473807808 4.1258595291738605
S 7.092073203390879 2.5627465291862377 7.577376069237765
S 5.171762865901675 5.766382880701049 5.573363417802045
S 5.256424292881733 2.1252942426690438 8.11187906325967
S 4.1913000389945925 7.118305348654132 9.712494027730285
S 8.199704560365042 2.5976961381683177 3.8448776054956664
S 7.7962874079870375 6.236948532739981 2.3178036062447585
S 6.316921269703012 8.13528268596005 2.91172921564809
S 7.087403682221899 1.2443335956162094 5.45915883588884
S 6.067062162545679 6.774741866569644 8.751449944192931
S 6.156902182773744 4.738735558370024 2.186600606046991
S 3.837906744698417 3.808111372312394 8.004416967453354
S 7.1561282972542175 2.9124956148819887 2.1421881699839753
S 3.337686959552334 6.439838765572383 3.107995377389988
S 2.358518992438447 7.551672968431566 8.82358814180326
S 3.8514789512352277 0.9366466361367551 1.9266155934163394
S 6.421277608963114 8.194725746741739 7.324163607180143
S 5.271775218157648 0.8118505790012126 5.188817436954733
S 1.3780385233625823 6.024474353964116 8.050387554331598
S 4.893497755224432 9.116767403432464 1.981843633932776
S 2.2423056737931937 1.785257882769721 2.5435904584605997
S 2.9239984556428604 8.460288528937195 2.5302483687236443
S 4.771993924597913 8.00089572822852 6.230522694819742
S 1.7786911912351768 5.44890359458524 3.6478011930634087
S 1.6573174593759572 1.324396167298103 4.34646557321831
S 3.843388537028402 4.3508909058881855 5.9766190434914455
