26
Energy = -102.54108281 eV
S 3.753087020382146 1.7368005759319882 0.6038779437046643
S 6.000107443008975 0.41061665896514477 2.8814027572300915
S 5.728466143112418 1.3364135262549155 1.057061940310172
S 2.949888393934682 1.8902819501892714 4.972750299434476
S 7.333218762503238 1.5175225485516348 4.120856368630589
S 1.5064538364518338 2.3216169772024484 6.647805793335658
S 6.597977343064506 1.842468993467297 5.947731223189312
S 3.365453138228575 3.7674126869334197 0.9140461991990724
S 3.329967721472884 3.6704725396539866 4.189587439692725
S 0.920232655230923 4.180169657797092 6.3533241595086265
S 7.804961828647482 6.170329464920963 3.3130918666997977
S 6.072800526882875 3.9583672754468093 6.229459458175088
S 7.715067373305797 4.976299531713843 1.8367701498864168
S 6.154934847275435 4.029213388310114 8.225806004868158
S 4.196544307720915 3.5323358644297276 9.051955237559268
S 2.4826828576448507 5.592937178216888 6.914181791064175
S 5.547051927158416 8.597877483868803 2.2071984845392874
S 2.0789261568950916 3.9216703032069726 2.4942796504276474
S 5.765081617316499 7.802898249586733 6.536166370409284
S 6.109350752570556 8.228589904456841 0.10652518965129507
S 3.8658719965506183 7.710949107772405 2.375936417395156
S 4.66016720505871 7.189945928574286 10.07825997645031
S 2.200294381689992 6.288027490728778 8.742607250904545
S 3.527991822846137 5.0788162255902 10.078259976450312
S 6.71199231325612 8.12889687124659 8.184740309362018
S 5.693069269302099 8.402509511838996 9.794414293470918
