26
Energy = -104.36650274 eV
S 5.016300968483703 1.6261105375620855 0.9435245660850309
S 3.99271555902809 2.1539479269058233 9.149878474574418
S 6.401230211364016 3.171492974563107 1.1662002836659637
S 2.830389361920527 3.7655693767096303 9.513619923161158
S 5.572093239691651 4.575198876842238 2.2939414282195796
S 1.8883719018350444 2.0558525788225896 3.055804474810171
S 0.9638456670316676 2.9274190098698396 0.33921754172468055
S 7.966982929905591 7.038448348068583 3.2772377343927257
S 0.04787289319806614 4.318839960324782 1.3255218759984542
S 8.449799288129492 5.333277621257957 4.055157363890687
S 3.497999926614658 2.1428390959130454 7.05534263378159
S 8.263626725369342 8.512587216598035 5.154657136850514
S 1.7956936484286745 5.339049278193961 4.312668254409479
S 0.7524639867338876 5.614377926614721 6.0219159832992135
S 8.827876536836971 7.370118716169882 6.562046626771792
S 4.9266148848472975 2.2325435003935237 8.559758148720896
S 0.7485257635325425 3.474270466981342 3.6404085880115717
S 6.0386618228650075 9.214941666181618 5.962381914933162
S 1.756533553961244 2.903326580684453 7.867016884527448
S 6.526351615761629 4.022147072559241 4.381310219891205
S 1.8309578992250433 4.958069126134709 7.687312895138535
S 7.225665817171759 2.2512650950374424 4.188061185862008
S 6.080707680015667 8.360810676070761 7.707014341018708
S 6.200539847203462 3.806219130947735 8.228695101258063
S 5.314823030852404 5.48476867212435 9.149878474574418
S 4.620812284207425 6.737319521625671 7.7185802110414885
