26
Energy = -105.25296214 eV
S 4.341646610896485 0.20728142527919802 4.435579050918431
S 7.080970450501479 3.7308199254634165 6.211665576157663
S 8.803947920223306 2.969218042070691 5.649243112210845
S 4.232972366273059 0.7908261763321719 6.494765701390113
S 3.9875166613610697 1.817527830414384 3.347089680087091
S 7.415293922725757 4.650358148119857 8.254473069320484
S 0.960793910033513 1.1696703139918387 6.3249403605243195
S 2.941838294468249 5.9062166484749525 7.936059115693008
S 6.835282551896272 6.473604285204147 8.341372116253725
S 2.713967085471201 8.341038159863913 2.9611951642710177
S 1.763552301530105 2.080092414049539 3.230889104875482
S 3.7135083686524215 9.451510930882687 1.558718000940756
S 4.440279438612572 5.42051272190103 9.457619469077938
S 7.0093332057788595 9.950563181662073 1.561177334276425
S 3.1002349608049755 8.97526041502162 4.902822417966603
S 5.561370425539299 8.53887914331867 1.19063645595357
S 3.7752680252442707 5.91129258838211 6.094824635042386
S 4.60268851040184 7.779247447086399 5.6583094056707965
S 5.1829702742311445 3.6537910495180657 9.219643225605552
S 2.445543713602584 10.120502086861816 7.093131735441914
S 9.87625028123512 4.4882629184253675 4.416323160352327
S 7.460772286562997 10.120502086861814 3.5717187075114913
S 0.9365275585644359 0.6089430758285473 4.257002848967309
S 9.064610851435745 8.915446603801309 4.098203671360823
S 8.423511679046005 5.661136399203368 3.7125486923907807
S 8.301941572559945 7.2801503314684775 5.0674976489643315
