26
Energy = -103.39629935 eV
S 10.256262129713669 8.806638847937894 7.276907221514779
S 9.611177148714576 9.21188588187131 5.503355964146484
S 9.286062378946754 5.329496712400501 10.199837679722753
S 9.213329669992275 3.5578782681541585 10.915503192114802
S 8.72290374432388 5.18073352682526 7.992943387646488
S 8.542010516128077 3.2250023989198326 7.727584455866183
S 6.942046192150605 4.252913137824425 3.727686321543086
S 8.17043586688276 7.699476026093529 4.939204634717224
S 5.7220797892078625 4.230044681182173 1.5713615737130107
S 5.708220352459004 9.815808763338998 4.064260150935175
S 3.832377691010951 5.472316849815506 1.7803029249434665
S 7.17514940233486 8.589231581606185 3.376878619438962
S 6.978098725494165 2.33614606885686 4.0200696322845015
S 5.312541596552668 3.1167428329394093 6.790938328314321
S 5.097367895395167 7.394486090578238 6.919316912910916
S 6.618949413539106 2.5768677038988557 8.302264597940933
S 5.312547821835564 1.7529595943549872 5.295936238852699
S 2.7333985617140932 5.287500294496215 7.597666069663327
S 5.372020411346924 2.3630838948730895 1.394966932654003
S 1.3864600467361319 4.687778639509597 6.048624110558152
S 3.732923768896212 8.470791912986051 7.687996529948854
S 3.9926497862425574 8.481243892574218 4.347973179002134
S 2.294597483715843 4.534849181279526 2.65657591742501
S 2.066732262227358 6.96444884041537 8.40476552748407
S 1.555180504693077 5.690863628418201 4.286903040657567
S 2.7797251584829668 9.421266961871407 5.523871853252802
