26
Energy = -100.94345603 eV
S 7.477692799121051 1.1595100763273738 5.62358848737431
S 7.7836894036792375 2.460642854927651 3.6803649038615838
S 2.612103123197531 4.003127548179255 1.115007964971789
S 5.367627063317613 7.580463004114148 9.887913757071631
S 1.1253527367218876 3.993511818184409 2.320217015706175
S 7.42859007180424 8.3377308131044 9.294339187945747
S 4.381147890706805 9.066080357102985 8.146658128511238
S 5.914482057425665 6.4346528177929425 0.7307749892152876
S 2.593059212818075 1.0699788607904919 2.6851551313078588
S 5.297221754851897 8.093912127628286 9.542374107446735
S 6.882704935070891 5.683233069245688 4.11336909131786
S 5.329923436336772 8.51691164193517 1.0203675892117394
S 2.702956673336594 1.840993019385616 4.625398969520967
S 4.010848174632866 0.7184448268506334 5.805341449007526
S 5.848230460377416 6.1546397764763645 5.8011347380940785
S 8.233258153125332 6.492835696510749 9.887913757071631
S 8.446500773382775 5.250856395881598 8.40886967666588
S 0.4150349597150086 4.996249919955019 8.014802417233712
S 6.302684429677836 3.760123415787005 3.4243705827908957
S 1.8738759285533981 6.156627779230814 7.526448344230003
S 2.560998528469129 5.5517914656467156 5.537496401282249
S 5.536237893126134 1.8969784411507082 6.417663774811049
S 3.6176955056180637 8.83329129561629 1.785084434977915
S 8.745086938483288 1.6953471914665916 6.967901904716743
S 3.7820852416006523 2.083329016367236 1.4486926171888808
S 3.988504546431446 6.919334266973283 5.146136547325128
