27
Energy = -105.3192671 eV
S 5.938734111321214 1.8186457914099496 4.175720912038237
S 3.384857292763668 7.062243085868342 5.751837928232467
S 6.184607239683953 3.719786081215872 4.5120206534374505
S 6.1536544137965405 1.7463426567407514 1.8215059369318796
S 9.596885337567373 3.1096106485990105 8.885114698361024
S 6.317271967688085 3.5849668093318177 1.3389458035258168
S 7.182619380837213 10.406442155752156 2.076561657477463
S 6.346561812151164 8.369052414061187 2.6174578192252596
S 4.358166763802796 10.306217461677653 6.178705962469389
S 5.344067025037806 4.428049531781172 8.742947560895086
S 10.056320268778375 4.951424588313531 8.773556038300844
S 2.0768302861702637 3.7103699971099044 3.8895365682455147
S 8.47005855926543 5.946382318339144 5.211859223504911
S 2.553333244020948 2.120873296357054 6.7493232774496255
S 1.4450301314300042 2.4556802353898086 5.211392865076774
S 8.974779602539085 10.162214650980827 1.449483803117483
S 5.543131581678814 3.8956033193465553 11.047079783143554
S 9.248708874576952 6.918181294566919 3.5484612498181005
S 4.5205662539068445 7.685123281759386 9.044408122673786
S 7.771861818177077 7.10197347746288 2.06514934555605
S 2.910412313619217 6.6233104477718365 9.144637995738972
S 2.03675361866 6.3912527064626525 7.071680099037337
S 6.0744834723702965 9.454816793785174 6.39585888648622
S 6.555426820373822 5.354071909836451 11.745490758913471
S 8.335928210769273 3.952854153714544 4.924516842349844
S 2.947571234618128 8.995163243933828 5.180171583659811
S 6.241675415764681 6.124258411149486 8.671052027282421
