27
Energy = -101.62179936 eV
S 9.280185494967228 6.49728486831007 7.528619130493622
S 6.27359946360056 0.8216774238305768 7.249075839922992
S 9.091560833394489 4.102993884406529 2.6096258839275643
S 5.741425729684947 10.745288058353223 8.1273479772454
S 8.997680054956176 6.768673573862861 4.774367198731683
S 8.36080466398343 5.740371735849281 1.6767909943287032
S 7.270250695114251 3.1493732560800534 3.5981801946572434
S 8.618692923199232 7.910659462866846 6.501197876517623
S 9.010918729856174 7.366918016402565 3.0262329802782584
S 2.8876908222982456 0.9247031287069145 5.850554509402712
S 5.8861989277314 5.779142907781232 5.63878010918486
S 3.7245682678094236 4.887551564069219 1.516029783361585
S 2.494420048763955 1.8264510022716864 7.471825571091711
S 2.915190952520502 2.9099219320126686 2.048679968634269
S 5.897354947615238 4.487732240503182 3.607079207456581
S 3.055743592936236 3.1357009123373336 4.176445484106843
S 5.306889974569146 7.378733963897487 4.689966464008484
S 3.9458006879560603 6.897424958846992 8.023473072319497
S 5.609729051946915 6.495360629500965 9.143485598825688
S 7.783386087195226 9.42562761710001 9.020006678168862
S 6.871934747451268 10.745288058353223 8.038356131313284
S 4.2442627878564325 8.711611327201286 7.25157634335141
S 3.333180866408812 7.586003615903666 4.380729353256646
S 2.6187417184760076 6.359377969462165 2.1293626007936797
S 1.712929430930308 4.423985701476028 4.804739369674444
S 5.190577161741742 9.029568976164455 10.41954944545265
S 4.470544475814218 9.99450010231144 8.978959988873905
