27
Energy = -105.92697492 eV
S 8.052735315469574 8.274870833584998 1.4588619142666681
S 8.836179023310722 7.041042922603642 2.949882813889646
S 7.007693227736228 9.059666488032006 5.464860092706979
S 6.753657332811583 7.178627733497188 9.307967208245318
S 9.325806791561826 5.231353012594902 1.8661509063456012
S 5.450818265105874 8.770260275483537 8.184679499221366
S 6.2218465929441535 7.795597933632675 1.007705011377595
S 5.569182264404839 7.901205594547965 4.97818253784148
S 6.427313423908876 5.515436266655671 8.347924854576096
S 9.08929613885811 3.7298224326060754 3.0561582358331143
S 8.192831151152447 5.053145346554002 7.070939760034293
S 6.117558341462108 2.585079652214173 5.068096436056487
S 2.74231557808169 5.818010662378298 2.169329121616923
S 4.213293740632423 4.47879841172815 1.5534143309926538
S 3.066718413928449 3.062042858617832 0.5527554543616835
S 7.73885364215669 1.8521622653946095 5.984574161203864
S 8.441822344963278 3.1458895904230992 7.5904215149810845
S 4.338752813871224 7.732705966080782 7.008038489307197
S 1.6286245786220028 5.843981909610249 9.93459728921406
S 4.2821949381968185 1.85034345946652 5.8666164921517545
S 2.1384520395993833 1.981515064836209 2.0032764542930726
S 3.6586777840469065 3.537719995178159 8.70117004217665
S 1.7725222659819435 4.894784374847529 3.6962959993822437
S 0.48570078133742967 3.373756388098771 2.617839950086711
S 3.3545664422007184 3.485340024089236 6.617825296898992
S 1.675950102973892 4.022555365411883 9.268924555678645
S 9.325806791561826 2.4595627334716115 3.9903176939996174
