27
Energy = -107.24817756 eV
S 10.756317346847993 3.9532455558356125 4.1585422412677735
S 9.495363696189553 6.930403402896496 4.9229468940689385
S 7.154463741841331 1.8063724714148588 2.925747956419929
S 5.383025421337439 0.8058143684229949 7.871510041709942
S 11.048400033097693 5.974420887513007 3.884572965749286
S 10.19191352225653 3.1106234996638467 2.352866266145562
S 8.191131717158875 3.316196835683886 1.938398046345739
S 4.967957460300259 2.0858418519336275 9.574279492303917
S 7.166295886273904 1.4622973158768835 7.172426886282549
S 5.89025966698015 2.6992815028537267 4.285805472782946
S 3.0502822832722467 2.2109764783736625 9.768961723474378
S 6.862899671146398 3.1866482887144425 6.031170087768224
S 4.902208484258023 7.009863047649664 0.8601672993331048
S 7.7698284574341185 6.635475580526229 3.9321250249534914
S 6.430122045563951 7.908041575239066 9.533122047665008
S 0.05122487206789994 5.382179585671516 6.705408906806726
S 7.097066753487213 7.761623316472296 7.745466296635628
S 5.509317756134653 8.171101733048078 2.3021716808187227
S 1.9275841886973577 4.649440641385101 5.669026459105525
S 11.048400033097693 6.948455887618896 5.598564108931054
S 7.6007198446059325 8.158841662955547 2.434824322359152
S 3.793573365752537 7.292239410724257 7.646895260279664
S 5.326017718487843 7.289960158712176 6.383551629044062
S 11.432059102990252 8.755550938308438 6.6020293490640904
S 2.2278827315326586 5.71473880628951 4.1093484823437345
S 2.9714321190879738 9.231490529921441 7.7487329320587275
S 1.7495600194191347 9.483150318182394 6.118930326233935
