27
Energy = -105.33020552 eV
S 6.743615470439877 9.139061920948457 7.126157215341041
S 10.04273426047468 6.656018911976953 7.907631644836889
S 9.118923341776522 5.8773203458762175 6.214890742799892
S 8.704379210174302 5.069318407989766 8.078171430971084
S 7.5463568481577745 5.295150272639552 0.4327184063798772
S 2.405897565015005 7.299590909931618 1.5321517426633922
S 1.4497094299905127 6.772525465583122 4.716632880159873
S 7.273503519784365 6.475367308438588 2.3154905373875567
S 6.819348090547439 3.5315835462937324 1.027879547370515
S 4.289663083060052 7.227539250936262 8.400675650458764
S 3.4952948089287132 4.057918153102084 7.983493446398562
S 3.7742145177897033 8.139168038656518 0.4818274590419396
S 6.0639242837136855 7.335632009918827 7.066936005901246
S 7.628924998316768 3.3859437909972776 2.9648968681255914
S 5.192810878266716 0.01239268633015664 6.270685918046742
S 6.470913636760314 5.067474196702761 3.4876646435711254
S 6.0637982144825315 3.3273253917413577 6.677614730897504
S 5.852966829946188 1.6885620209790255 7.635414391558338
S 3.6206840226080788 2.3083966494056205 8.780781262367336
S 4.607704866926927 0.9722035873070972 4.555167140610833
S 4.461851415224631 5.493360905008115 9.360082587416455
S 1.7667886527619399 4.609726031756069 4.64615924150934
S 2.7154120084209685 4.909121096327258 1.4890851866281516
S 2.9545165003679883 7.5890589726634925 3.7049478331886614
S 2.679917082275553 1.2804415443777746 4.478175921492379
S 0.9256279855661832 4.153031003852368 1.4344942135861836
S 0.2730524108212419 3.908733601343351 3.5740711803990823
