27
Energy = -106.40421294 eV
S 10.125017650229095 7.228241123287776 9.572857506337874
S 9.154741370428567 6.087826908632054 8.337156476344509
S 10.19389399697351 6.664346053985147 11.426610147208722
S 8.15194931683234 9.993469267190376 5.7716565032631655
S 7.799473319722341 9.343434801756572 9.602633500713608
S 6.881007364267121 8.135882960397188 8.42204863783982
S 7.597270517249127 8.694236134138492 2.7536370750346415
S 6.182982534847355 10.220854758135594 6.771190048392375
S 4.768536055642408 10.386047964607188 5.493209797585885
S 3.508684254690506 8.610181560223262 8.958318936738996
S 8.288926333522792 8.296952782437748 4.686501618876857
S 5.932101010935303 7.489945400472925 2.5455334486420025
S 5.0313642611687 7.372080967742373 9.380617403483145
S 6.397161107008645 6.0540408764271545 1.1193210347637144
S 3.1585043888738285 7.682148918417903 5.6917999261705825
S 2.250823585808939 7.7367368141265365 7.449328799413311
S 6.810947084996444 3.22498355298227 3.0271613677682114
S 7.717123686788498 4.630740000612321 1.801656036594841
S 6.07427727389894 2.0184137474470245 6.053341854467335
S 5.76629411943673 1.906354084957221 1.8304984574853933
S 3.8712174925240537 5.4703311186922985 5.657195852557905
S 5.585637211938001 0.24046411580258145 6.57820117977398
S 3.762063054113101 2.451988290373661 1.9995515271599174
S 3.29303177197713 4.705752056219704 7.304381496455066
S 3.371326955308429 10.386047964607188 6.173636940163215
S 2.779123932180331 1.051323498866695 3.0918464811599446
S 2.8140673728473975 1.6002716809375543 5.173395600726375
