27
Energy = -107.61689822 eV
S 3.036109138698253 4.4715322105304915 8.305848088666409
S 4.818957573116733 9.97946892397487 3.5317665034937074
S 8.034554065894111 2.856083112563287 3.9618333353631163
S 2.447480891777999 8.22266405667138 7.0297568665908505
S 3.0306647925746137 9.042850502475444 3.920470386574817
S 9.421683106588679 5.853482549386579 7.392712451526327
S 8.765781313835925 3.5848571860248475 7.14523998502118
S 3.1496188700995202 2.3163291628869036 2.034478225874836
S 6.271578702640596 9.45539554471658 4.908097878727333
S 4.430565971759488 8.323466844401652 7.913116924280851
S 7.4132921906803375 6.011684283877234 1.8546440925278216
S 2.313203092453513 9.769817263416032 5.759879996779312
S 7.329772823584139 0.8790911420173175 4.1562293761431945
S 8.153105977834901 7.489250151200869 3.0650678510228944
S 6.921006515046253 7.515310421621714 4.756850622264284
S 7.912516901856882 3.184216779339482 8.81293395421173
S 4.55241672855239 5.276118563556444 9.294129914513764
S 4.112167000821829 1.3603975159323058 3.638526784671019
S 4.123562482608948 7.349218332402315 9.644146775806101
S 2.2672838992979014 4.591860091034371 11.599257597143518
S 4.1561200923787105 5.614900872193699 2.1915000654787042
S 1.543885992783099 3.9542907551407396 9.945185716559308
S 10.569613386924647 6.415921399556534 5.963667827061668
S 4.248886004422966 3.7200287629000255 1.1290307472234242
S 5.843462033064768 0.5171177380562537 2.8140228370941616
S 5.547319451533144 6.591799280453922 1.0946174992223485
S 7.250231134490865 3.8990188962235868 5.4954133994477115
