27
Energy = -107.36857984 eV
S 7.199957337364695 4.588847794745708 9.474333491994612
S 8.359942748074875 3.738651337570117 5.643358066793517
S 8.273645685093605 5.402255963166528 7.571063423821328
S 9.643095452668991 6.940880682004235 1.102934256291555
S 5.365745482679592 3.4116108037218704 4.262562350395899
S 6.266131446409813 10.158378931055655 9.161155576954235
S 7.148154236277855 4.676559268639403 4.455236804480466
S 5.785666225664592 5.954403348100744 9.759146003228572
S 5.84566199667056 10.606173423862343 7.151738855239929
S 9.147439766100826 8.552998701300337 2.0380436696461475
S 4.959142339828445 1.4949917327704507 7.321492848042424
S 6.209390336211763 9.938760352813167 2.8501603774969086
S 7.173250595040181 6.7367485057744485 6.780408369298973
S 3.7027182768363427 1.1210286385249197 9.147912774523842
S 3.276268204350578 6.950328182368809 6.5228207132614
S 7.185469642658399 8.2112380945369 2.9631460686147215
S 4.183758968326593 10.11431393533024 9.504935786252467
S 4.8018261829043345 3.784056410574506 2.3479802165949217
S 3.6290399892695318 5.099678861085071 7.276507720571164
S 3.8833743035918533 5.180788159626945 9.327400047524899
S 3.058247945052608 7.762708680537653 0.7865216620519377
S 5.001851602955086 8.253024143097782 0.19617091562338884
S 2.974891447975939 4.792137979446369 2.387488451265687
S 0.62629459304127 8.641601636846625 5.519758465046849
S 1.1121638232135242 7.133994494732812 6.621571726510043
S 3.1641808095944777 6.830026877744572 2.6255398791208924
S 5.452894433274468 10.11431393533024 0.814543686051464
