27
Energy = -106.40196638 eV
S 8.970667300468632 2.383139492033861 2.735769595930544
S 4.213776918313268 0.140746521379586 7.033905183413029
S 10.62083155054713 5.268225184418419 3.6516671240201655
S 6.927173719660613 2.0631294247291607 6.733487511364717
S 10.42378836458388 5.641062151072331 1.624966391921526
S 5.731431459270894 1.2265607154941667 8.142569644477962
S 9.261553175545881 3.6405550323290554 4.200127804610184
S 5.062930800673008 3.749914038116983 4.48941802266325
S 6.086919604081726 3.92525794008913 6.248332288005008
S 2.498965463365367 0.42704722648486854 7.879033790963043
S 8.696348497295668 6.330362312217252 1.0612413935286085
S 6.991387799801941 3.033956724215913 1.796579913407202
S 6.331370368230813 4.502173238787505 2.9445989043555
S 6.686790699023732 7.54098641337439 9.15104194962145
S 5.727370882819754 8.863118141807075 7.628309326487478
S 2.257266812373874 4.4271435529374 7.3142747082253745
S 0.6182056154203344 2.6494381769674162 5.105257585991957
S 4.126582803403922 7.57839330851261 1.2725749514866005
S 2.6645164766903204 6.258918310635784 0.9351589394865785
S 4.70751904912101 7.630384384751866 6.415517317420309
S 0.38829278445068033 4.193290113722281 6.240516911755634
S 1.7412083542111514 6.179507488027535 2.828269181401349
S 5.777619106718469 5.850116423433144 9.234314105161989
S 2.1357658962610095 6.248096665585957 8.192619379597804
S 3.005037900659893 9.076805622253573 2.51867463133273
S 2.663224759551048 7.711546158072166 6.814469246440814
S 1.209018625731363 8.198917022609521 2.5624386461730295
