28
Energy = -110.31332514 eV
S 9.598855791302903 6.369880339231858 5.367333008085622
S 8.063943303672595 7.760464103850837 5.107430100614804
S 5.71383013325258 6.943781962306847 1.0455801744156037
S 8.98202203274436 9.663129328141133 5.427914787655795
S 9.791916165083268 5.881234816742812 7.284548777125572
S 4.798050859772391 8.774466553228077 1.4425670055726385
S 4.46158887203291 5.436689463921162 0.5146682416102342
S 8.111139096951229 10.588635359362264 6.889770725044066
S 7.1181061902759035 4.265064619353051 6.003375703763746
S 7.951458209344241 2.634002047234601 4.7668254722573
S 4.223644797821091 4.260821339427198 2.2813299912527247
S 4.753714294596191 9.051504144112853 3.4969909509550083
S 0.8568705505927674 4.300540339642055 2.4529573185309594
S 8.118069549928883 4.4224741762731075 7.68340019839499
S 6.8964541214106 8.682042104754863 10.836117496866146
S 3.470877263087756 5.168829530254902 5.974906257661467
S 2.793807887696795 9.271607625714626 4.121996731704542
S 5.7321692935000845 7.264140565256327 10.334238793736688
S 2.4799687594972415 3.212336181772297 1.9892941635716104
S 2.1672026223542407 3.4035828066238643 5.503573189581043
S 6.43406759398876 1.4330631810607586 4.416604426472825
S 2.1864575806829265 6.6768396521663975 6.209644715938637
S 1.8022588730984965 7.486617460546874 4.304843962078124
S 5.580786787806468 3.318893251721977 10.379106317428189
S 6.574281212377167 10.58863535936226 6.1336996212714565
S 8.068384223784747 0.4414362986745476 7.19335692835571
S 0.5337806109774478 4.05100784340052 4.660160500210872
S 4.902320298205056 1.5438443257383565 10.281728118503132
