28
Energy = -107.47225008 eV
S 11.338495516405947 4.60209186867064 4.416019320393865
S 10.333136122147211 5.469420164743739 2.921312286378056
S 10.603043717164798 5.834864584490628 6.140657044797754
S 5.0786220527433095 0.7563621586487931 7.292442547179456
S 4.308369177986281 1.844385237842268 4.246866465254346
S 6.695409992612692 4.082600608911411 3.158207916357185
S 5.762996667631927 0.9990305911832413 5.412973187257375
S 3.3156886575215654 3.927025155788349 7.223071049559537
S 3.27600823501673 3.952904611384845 2.304930096191639
S 9.375545176658894 7.076288308001907 5.165193038338948
S 4.143149256165469 3.539449811654618 9.418478805500879
S 10.503290319928471 7.503302250210414 3.4372318779964477
S 6.1953746264837335 2.213238828150413 8.624277569228889
S 4.936197518168628 4.002434171410151 3.9070894119061315
S 7.201361490026333 3.49297413455257 7.637520576845384
S 5.36821394901485 6.623062347893346 6.801263977625908
S 5.571427380964458 7.193837338140628 4.870250288991485
S 3.8062467004124616 9.209047276872553 2.9491554265108855
S 4.893702919517869 5.230793893834048 9.868872974851737
S 1.6234961028681891 6.8506713376605735 1.9464614800846445
S 1.7313744784013212 5.025933651049197 3.0062680227719794
S 3.4029549398970165 5.89438795569879 7.230202433815562
S 7.471048983190068 9.734491039397843 7.927006576196015
S 4.749574346563188 9.156777471607587 4.736928801505952
S 7.980310193429929 9.954677414309247 10.663415181356962
S 1.8377217130156078 8.479372356723896 3.1522739753913775
S 5.453293956798247 9.233195156195507 9.742720363569795
S 6.173540603570171 10.951181730524459 8.916985973104412
