28
Energy = -110.60945826 eV
S 8.728285079989776 3.0966542016342227 4.652668659047469
S 7.17394039927848 4.4238279275535035 4.529150876538143
S 7.269921361203221 5.539512459631577 6.3249947864951315
S 7.93186422109508 1.2086990779974536 4.935204519277821
S 7.772647379905201 0.7095633931306141 6.946872458773077
S 4.145971050099164 3.5318217184113934 7.667141534184515
S 5.178471495399507 2.087116054112701 8.702693869695572
S 7.407527155630473 7.59295271498623 1.6367247403323202
S 5.315898964807908 5.257365087830884 1.1347594536228767
S 7.3459486213141325 7.4604161592423095 5.638924533390616
S 5.589474057553994 7.522748270578816 1.0224139278497069
S 5.778654299618823 0.5419635540963934 7.449631969853275
S 3.4414980553451837 4.588081025396215 1.415711947481353
S 1.988481810685199 1.8561956803937494 5.841334391522859
S 4.088126522510279 8.22961432237155 2.5290265275386474
S 2.8904500514906233 0.9602507081591208 2.7508326006725525
S 2.1410106580528216 2.8912540195990646 7.547041775265634
S 8.728285079989774 1.7206523071718756 5.282343573886173
S 2.621262093098862 3.9789428082990907 9.728741411776634
S 4.276207496945533 7.167025714369679 4.239369820992026
S 1.7029427595458348 3.508781063183333 4.336942791520748
S 1.5580891072885699 1.3335524035797313 1.3773081593009546
S 5.38964198504513 8.154931319612462 5.680992671031297
S 1.1798250741948768 5.492366489859388 9.225060719370676
S 1.3964456323234191 5.126822698862283 5.308264522300473
S 9.330422103714122 2.6311663684515434 3.7106672608093043
S 9.71568315809752 1.1647619858366711 2.072760063474943
S 0.6892924994429073 6.523121986932017 0.6731142139026535
