28
Energy = -111.97664345 eV
S 8.796679116534229 5.212215920473124 8.088513257831917
S 9.756351975487318 2.645201282629998 6.803279926446125
S 7.931572693602611 2.188380397919608 7.133155239635435
S 5.776682779627662 9.274425288705794 4.798237456225998
S 7.041566255143212 4.319655323986553 8.06492893822877
S 9.24329516608437 6.136020643832974 6.2891311408638
S 3.790569349222474 9.758598132399356 5.152172178229227
S 3.7881405584401358 2.2418395573215357 2.4558510187774614
S 6.8008133651107725 1.0586670737738058 4.1036930101680325
S 2.5284476177683843 2.8910096124980607 6.428480512132496
S 2.5548273483671493 9.200542653441156 3.662689719210844
S 8.498421440319122 8.137419811839125 6.709215607420106
S 1.9479843445926892 4.724896885717097 7.08809549366131
S 6.578439035222891 2.5830222134420797 5.405828374150172
S 5.223894443900053 6.927867706850051 5.803383362681551
S 2.1991747158320862 1.170766120619059 2.4417170343911714
S 8.688374722325186 9.200542653441156 5.051343703391256
S 0.8976776581729653 1.7698161536336778 5.678132090590821
S 2.0078389640886565 6.025182453794643 5.437773725499767
S 3.8853867162577798 5.881580942097546 4.628985959549085
S 0.5820197950016351 2.2065339062095357 3.7528070308831767
S 6.958600070281836 8.832230291132511 3.7858025644588653
S 5.3863063760471315 8.870352956210631 5.053161450828062
S 2.3087627353634343 5.697935949515503 9.817096393744265
S 3.18468383198434 7.659422538910861 0.5684038383166237
S 0.5090865725810417 7.03676668468554 2.156337033667806
S 0.3787916753126098 6.0410651052457265 0.3023480009610011
S 1.51890261155951 8.592722183869263 1.16420441769274
