28
Energy = -109.48197036 eV
S 8.9385364159025 9.162119065980553 5.819623930736024
S 8.438607088718761 9.456842814223311 3.9831790787815855
S 5.549560638025959 7.637136971178207 2.4583491610229333
S 7.523829268530618 9.1915543512802 7.140488962992797
S 1.6746052841599472 7.619361084898888 5.999936167272906
S 1.0796796611827983 4.517489803407674 2.947809486945063
S 3.3080960877215446 6.553152641647219 8.716824330334022
S 7.071182708773057 2.8828049681917567 2.611203697467443
S 10.8919074588009 4.818301846265962 3.699980992129886
S 0.7768536676353951 4.47755771489998 5.037444546431729
S 5.732786405628179 2.2683483106141864 9.479436668877293
S 0.07695304265893119 6.334781510044887 5.53429390521381
S 3.7481706587343253 2.7838284163005835 2.3013319426923293
S 7.08721921089639 1.481902183855839 8.28253883747606
S 5.475219497131165 2.969100578918326 1.2749152838332931
S 4.584680759804304 9.101779932627968 3.5729330458836124
S 1.7451843105813813 7.896288669184268 8.004121604689642
S 9.329329363394363 5.306140824890931 2.1957280127430394
S 7.363676673494206 3.4615559076970683 6.8838299055756655
S 7.596049319264501 4.8674427795028485 3.104581888738805
S 3.0316586360469806 4.822024814227833 2.550758349529974
S 6.700894703894346 4.850278316603038 7.997314437728362
S 5.359834116905901 2.7882028360418913 5.636830263576364
S 5.593286264700063 7.576199474089469 4.536960363263331
S 4.07490218654167 3.516248673248413 6.942320477884892
S 10.207905140988242 5.104787951658588 5.470554691148938
S 3.8588757393805913 2.1211683075007968 8.517002924873175
S 4.131935170682398 7.385018558114765 10.251126003085934
