28
Energy = -110.39619561 eV
S 10.983090543984021 7.78590406667994 5.793049271035192
S 9.526362224619739 8.55090826117836 6.784375425071982
S 4.892393410529135 3.3794665927336207 0.7039358500324895
S 8.884067053508602 5.22217916091026 4.624114350411542
S 7.521904078164913 8.362120876388538 5.4899180700824814
S 5.3415156226632785 6.601507005237526 1.4740783049544368
S 3.6007952120520956 3.9713284379287654 11.153862402769809
S 10.500682539669633 5.403674499388821 6.676532003098404
S 6.328158669894252 4.917036442410476 1.0580883468137245
S 9.15486206968476 5.9217897960241865 7.901957706353876
S 4.469418826156637 6.859518464032238 3.5987329282298846
S 3.172626292885996 8.233034920799172 3.286556396691662
S 7.427404718592335 5.954406416612687 5.6351266763225185
S 6.117170286480706 9.035033212681316 6.603571552915244
S 5.7617029180371535 8.01549658897777 10.19846399747807
S 2.2129245200732877 5.405792535830426 11.794203295122498
S 7.012676097430038 2.3132494537645725 9.435436530943274
S 5.096854182492327 4.482066292539414 7.969963310999369
S 7.104020227544341 7.063628314469742 11.153862402769809
S 3.6843468047185195 4.590090995257415 3.489022307254789
S 6.227232563367898 2.785602324023135 7.5771813369740935
S 0.4638880983358971 5.577226863247437 2.725131778401353
S 0.5545894472305088 4.633909055869259 0.8150587294704055
S 4.240372256770611 3.242969641481856 10.846677469670947
S 3.4552380361534945 3.725923705522451 8.987884399608948
S 5.372790690669022 1.553296520797257 10.45320014401337
S 2.5366299099622194 4.165035571619423 5.010387756778378
S 0.45360154734677316 4.278733858412521 4.229034335173503
