28
Energy = -111.11367138 eV
S 9.12404728900484 2.5663285540282312 5.615589664410604
S 9.530195647539689 3.3384973059749825 7.793865892618952
S 9.324546208907586 6.5201898357171055 4.600123430217479
S 7.235622220435887 2.280353511293828 5.574542784563056
S 7.725644722569612 3.4734887094926754 8.510288823794914
S 7.485114258384045 6.21707597478505 4.095868096009031
S 7.164929533582763 5.632328544341422 8.125832354588496
S 5.774535511459017 5.557920301739505 0.6764056790155494
S 6.447315706963126 8.222667845114028 4.031196285686672
S 6.470393126216765 3.418056343222197 0.6446218774974073
S 3.8881763516223184 2.8671657569866067 6.898864309271809
S 5.506620152862432 8.487398059408587 5.700267103498068
S 5.741578628823178 6.094712873260938 9.374218039667142
S 3.816290011062557 5.415813923256711 0.9480790074775313
S 5.029040318018998 2.375113382352637 1.504619441939266
S 3.7515658088045605 1.440104385288897 9.997406818380137
S 4.280481948349909 4.950995124704947 6.565571860900143
S 2.4405581479460703 2.329752736095097 5.594244854326047
S 3.4507692452271956 5.1783850132663805 3.0285907726079615
S 0.5613142319015944 2.854842189851686 6.430236207352608
S 1.5571715015917074 0.7610540085623843 2.35094647062772
S 3.770109845340791 5.894970456284995 8.22162465298987
S 2.644911545114718 6.939125098222825 3.701876824876416
S 2.1876893330072225 2.556455117878701 9.573817206938916
S 9.530195647539689 3.9350715970465164 5.061830337071173
S 0.5766892414453993 6.749215158603476 3.5592916760587325
S 0.6871415469257584 2.0012622957928032 1.1859790688447933
S 9.825600433697623 6.005756075383927 5.308492178863019
