28
Energy = -110.78458271 eV
S 6.083528755110753 5.196712573374813 7.097358621741449
S 8.4298264002237 4.809721593720643 2.2474864795906915
S 8.814395775310704 6.61614952946309 1.1865849222058231
S 6.684270372299005 3.0359635454698415 0.018805291731511672
S 2.806100706334788 8.946583560855679 3.9580178846696925
S 2.4354927806658844 9.59683350795692 2.0352221488974678
S 6.7290285239351615 0.9237445706687885 1.4277940901080113
S 4.918875019336068 3.830092862546425 6.439800998514344
S 6.677647816550251 1.6941203736216204 3.1768300679503576
S 6.526515983239047 4.213443755387228 1.5656424315095696
S 4.271933167893396 8.297459301189454 5.079744909569916
S 3.043074021041898 3.7491119854076604 7.85585307060267
S 7.370388584055042 7.891511265407415 1.3596614304153947
S 4.889081434333259 8.342379929766821 8.235807914960496
S 3.3466455399490345 8.540629546879506 7.1165665296597975
S 2.995845988344979 5.534449584790975 8.76155608305762
S 2.0605940013174724 7.378224398373274 2.7710634952545847
S 3.508821504945664 10.537929436351297 5.086071157180056
S 3.8698084058967757 4.671943367898166 4.635841777825022
S 2.9351020481815056 8.946583560855679 3.6796675695512926
S 3.3388894957996063 3.0334189355551278 3.5803624818252056
S 4.12393822463048 9.498164545752006 0.8244158677612624
S 4.744355947001518 0.5924407745562484 0.45696169460296937
S 0.032032880639402316 8.427744899190476 5.291946027786977
S 1.8641510060084079 6.824519681400781 7.670609645277353
S 1.9786253792697002 0.9147905403548201 5.744236875240203
S 1.5245966681652199 2.2579153284664937 4.190142808249407
S 0.1532997479578854 7.084855485402086 3.9298878511217055
