28
Energy = -110.38599137 eV
S 9.883079367304134 2.9474436878166834 3.638071178716573
S 8.24386909421722 3.1902544906105086 2.6671545789935185
S 9.64845042335639 5.225927479973825 4.849238691481337
S 7.871826273102409 6.041667348107072 10.170730252658444
S 8.260195670928898 3.9072755434152757 6.6138705311689465
S 8.162251667814976 5.823472064010518 3.8437511427672395
S 6.876029898213772 8.5898219598068 1.327647253606582
S 5.974957474599379 5.877938147981299 10.123493218908687
S 6.446305870703773 2.403922560874428 4.032140233272062
S 6.627297393230057 4.173607976727023 5.635792238488907
S 5.59309990814861 8.064969097679056 8.629852389504636
S 5.51168786096794 6.2956814418739215 9.5432920809475
S 4.47775010824244 2.2665070755621977 8.673216921673516
S 3.7536437690852886 3.6151906995659617 10.123493218908687
S 1.957956079443318 5.475369367610243 1.1524365667062728
S 4.985134306165839 8.857896367621038 5.34918604969498
S 6.192116375796505 7.723973329555129 6.606207166385688
S 4.849002985925494 2.7254989158943808 3.022862900537444
S 5.269364985854722 7.673884785478261 0.8547912994560412
S 3.01505593617303 6.020441402502328 4.226554602067303
S 3.0894074224438435 8.262205307900485 5.33740086201535
S 3.4846492796916473 5.4766885042566065 9.388824908114344
S 2.6404704117898 5.1307377866336035 6.199461783630696
S 2.4872554093784127 1.7392864315561616 5.997779857035902
S 2.965786148283078 1.0916736564821006 7.961959027589281
S 1.4879772543700593 5.235954061905566 3.0198531181597223
S 0.6278428489559426 2.4371351043440814 5.915911370472552
S 0.7747872813765371 4.596903005891506 6.456611348265836
