28
Energy = -112.1470021 eV
S 6.649804897325379 7.532789814677643 2.258562500479005
S 8.439439046707486 6.730500428805225 2.8867030349536296
S 3.7886288161436896 9.103030661712326 4.7414831108514335
S 8.096127888531813 5.708306939284662 4.680146024247432
S 6.0344159047965125 6.5844037200045005 0.5161424305555016
S 7.864244662703893 3.2242487930961756 1.415891645305861
S 0.9097492847652244 8.009100313236758 7.580317044067246
S 3.2072752791481944 7.270418194503126 4.8206476621941805
S 0.9567750462807337 7.370228232920702 5.01437156151574
S 6.756992299172563 4.194090201852999 4.351880827836122
S 7.636009365095216 2.587623971548418 3.3783405501811012
S 4.964114692526661 4.891899568119828 0.9979211431899628
S 0.13700468300487179 6.301806762925476 8.021814397596463
S 3.2209728624898295 0.9553284355032401 3.6025113199393033
S 1.5807872054879781 4.918369649506653 8.930651452572127
S 2.1251842659951605 1.3268423381261973 11.3803140884267
S 6.085489293200329 3.2256643714574844 0.4050614442093499
S 0.2401816804610682 5.613251631696098 5.261494589378549
S 1.940503889224293 2.3321057156094773 2.6853348083337165
S 3.31917317408379 4.869749192136961 7.900417498023616
S 3.2990581533534047 3.517514169059935 6.326984918128713
S 3.4730935294730605 1.6127779461294276 7.183763078036663
S 0.8807172718024061 1.454611450102559 1.1704246897482953
S 2.4870073374447283 11.249620655560808 11.05580621939416
S 4.197871261943607 10.759905114494993 0.4039299282047235
S 1.7649858276457342 0.6753418078402205 6.618559304441176
S 2.263004609717663 11.539368255098825 4.825765879069236
S 3.8374682733503316 9.103030661712326 1.3309932605991566
