28
Energy = -111.57005541 eV
S 10.456185701871592 2.727563556956952 4.153307260863158
S 7.836080496406332 3.6104226934990344 0.0026649185261058816
S 9.418179704221439 3.844815247079128 1.146644966735385
S 9.128125559360562 2.3540425536495433 2.7661549740131064
S 5.995137224410447 4.700818127284624 0.9700108548658513
S 9.519828350984817 3.8614079561364876 5.882156025624468
S 4.810233984345464 5.130691392209416 11.537951626269452
S 6.788830339847438 6.715860097102312 1.5930558610763021
S 7.65377898566998 4.3357679745128745 5.380446684879165
S 8.270484840271301 6.59222004003065 2.9707141323290913
S 7.555471962556389 6.394426307610208 4.895382175506882
S 3.3552791307811938 2.9703271957793183 3.5606761157956104
S 6.283421533780108 5.457355808358432 9.578821323793013
S 1.8404004915717045 4.1261178584062375 2.974730634489296
S 3.2228913596592728 2.2163803162864846 5.734310647286929
S 5.436402315821186 6.530593454917017 11.05156332835727
S 3.758587395362168 4.253973823650507 6.478110589536974
S 4.522335473487023 8.313783878011796 6.792294603921769
S 2.4860095091685737 6.155071197787728 3.018846253907034
S 2.706109478738504 9.154443950015411 6.123418262926693
S 4.6686258647148176 0.9601304218378599 5.826257940502922
S 4.844259467430292 9.017856951480557 8.641415571811088
S 3.72177381846267 7.667357235274902 10.099739432487443
S 1.3818746563835407 7.590346769746962 5.976014878444715
S 1.0561544270578098 7.2762769262344635 3.9415603087872038
S 5.279034942663648 3.632848775299902 9.404871935908155
S 3.072952540079739 8.75871143503064 11.537951626269454
S 3.478014884133068 4.079373817468845 8.477592108118557
