28
Energy = -109.17378437 eV
S 6.940338818424562 0.12911920753128997 2.477908473252461
S 8.616590479357065 1.5489992810487168 2.973045588415066
S 6.880047420063138 0.2809269422051997 6.233497510007173
S 5.6046879609225675 1.2746190683446539 1.505691769310905
S 8.165719360005651 3.302578317416048 2.3501806371309226
S 4.096162841607754 1.8683168600411912 2.7476331367980142
S 6.806433024691773 1.4422353065002738 7.770573272442354
S 4.820537712341195 3.880799389667424 3.4791243242393524
S 5.732211724626057 3.747040747270681 5.1594951641431335
S 8.210523331252839 3.0147760448628875 7.591348966378134
S 2.7732618528213653 4.754909548169069 3.810872892831443
S 7.674848115189812 6.505070074761005 2.4621259486028855
S 8.083315460978758 4.213281534657741 9.08600357059439
S 6.371516164195195 7.7229425071565965 3.2808983125368467
S 1.7326258033488533 3.5490593188767785 5.0773955007682945
S 3.975416143386171 7.482163507842746 6.447676689528186
S 2.2898539691656854 3.7648179702526776 7.004432567101641
S 7.877603907627486 7.719375539724059 6.337672986454172
S 4.710071060764439 5.170442913350603 8.700577076097273
S 0.5173255056235833 6.510322711697268 6.100926428293113
S 7.100433456178229 9.594318872194664 3.5163068034217164
S 8.283550472325642 9.391724171833449 5.51663448473327
S 1.1789294389877518 5.612090717567487 7.656568977204877
S 3.5503748125276573 6.684475183070633 8.410267933432412
S 2.9968930883609097 9.267593138519457 6.4557475399210995
S 7.30718018579614 11.25047246394757 6.5476080161572865
S 4.11890286772962 10.723222927885729 7.407448354171859
S 5.419887840220263 11.579088212822654 5.994955571239951
