28
Energy = -110.79180153 eV
S 6.780430208813291 1.172618339721672 7.640239539864834
S 8.502550931400927 8.807979919494224 11.710308122860107
S 7.2277855218485865 9.093327452085258 2.7614706102091024
S 8.644370384760943 3.797979847857315 10.332819655888862
S 7.331291475769366 3.049365168231358 6.420691727012057
S 8.327651528565784 5.265596800759303 8.636543899238648
S 4.847614964199377 1.2733809504179667 7.774691076324838
S 8.93906262686301 9.647695723427635 1.3119420691887538
S 6.84810924771309 5.969487193235914 1.549221059947776
S 6.023677528530731 8.11379184320094 1.5766350110420977
S 5.08793337876221 8.666925572451472 6.169421185710306
S 5.859982628254765 5.687533687320211 11.406182529334838
S 6.461137266180772 5.669693792708 8.393410412075557
S 6.946072912967361 3.633859313097281 11.406182529334838
S 4.062689937375725 7.161976545471047 5.345910036165951
S 3.75811581336989 4.0854201497761915 9.812359307902689
S 5.8373570977300755 4.762085522068436 2.6251713061611666
S 2.237297008462039 5.500529876563577 2.0427894857834725
S 4.049613150504547 8.793597274990189 8.161210084567518
S 5.809178401785577 4.217542623887499 6.619659208508066
S 6.081057241926848 1.843333949797281 11.049140451019506
S 2.6124850333566445 5.229359451981614 0.09455263565460637
S 4.562703240614852 4.302928966739641 11.888588570124835
S 2.098170031321238 7.6467458954116845 5.9320853075072755
S 4.155003843654321 2.217750314305746 9.912172728233802
S 2.6953384723648517 7.338720449791057 7.919969497631312
S 1.3837759358905057 3.599057313197535 2.6857536913796816
S 1.324871798796827 3.606866215199467 4.611908701700211
