28
Energy = -111.94171065 eV
S 7.51616344657304 1.65250523357992 3.419442436267008
S 8.902114057398803 2.0233643824642793 2.095099279428417
S 7.380254366681174 4.827894435496016 5.768109565766534
S 7.36021658087278 3.963192891034144 7.838886268381299
S 7.790671791120345 3.3225624759963104 0.5225693020189239
S 6.624848793063201 10.299999011515128 2.7248431497720524
S 5.534945476948557 9.634700442923638 4.191397861511424
S 2.9143998506101956 10.205021795200748 0.6133128519857693
S 5.545657435883472 4.226036783424766 8.57540680527383
S 4.34014242801777 3.8991666393022473 4.796813404776168
S 6.045954509208644 3.620941065856835 1.2475320833587313
S 3.7106522842291993 0.9723260182065369 2.1411953962592696
S 5.57490633789867 5.543972320370843 5.408370175163557
S 2.2428613035995006 0.8831368601322124 9.807579883431668
S 2.00800885506541 8.314340596365899 5.097024428895775
S 1.8226966861321334 8.758140199232928 2.83291799058785
S 3.4826979289072786 0.10172168490663168 3.8736379919034563
S 0.3262618240577115 1.5840232869483242 10.480664947689782
S 4.313423076318975 2.639864732213268 7.840197572376243
S 3.1641447422149525 3.585272998377647 6.438777095090787
S 1.2433648020286054 6.542380890010002 5.351939441174784
S 1.4271914303364226 3.978448955573068 1.9520912699628397
S 0.442020782843586 3.5748189103893715 0.05214894965764893
S 0.9240419224661768 7.196043086158441 2.087620096619245
S 2.4301075124914973 5.655590917721434 1.575395080224593
S 9.695332998323156 6.668413239229108 5.825438591739573
S 9.220707569476202 4.660946883120726 5.5709181999758774
S 8.902114057398803 4.178088469493424 3.705667823381507
