29
Energy = -114.9012919 eV
S 6.535310396430877 0.37767777859039275 9.568912187015336
S 6.106332997936199 2.445096865130368 9.734078153492616
S 3.1545536609583813 2.0623468307390884 10.500295496276467
S 6.245386471066349 2.925953289033522 0.42548592061173746
S 4.8459992088097055 10.702634488862381 10.486916890740634
S 4.927748337806851 11.087066820868094 1.2043444788423436
S 3.9765253983996844 2.1370327520657133 0.9968923988833771
S 6.5623318209711545 1.608660222672208 5.173100581190396
S 5.520357619720317 2.77940373352707 4.089606129957148
S 7.237388950892361 2.711968209899721 7.065870302664494
S 5.596788302904453 9.015881874249196 9.47326697140365
S 3.2767657321738457 0.6639145248238184 4.971241882479612
S 7.247692979841336 6.125769494834439 4.239764674107619
S 4.509383894007542 7.3726789014138765 8.722962250338057
S 4.676277455155146 0.2382907105398432 6.191752802182366
S 4.86752228274553 9.587732510081683 5.495565357905906
S 2.585581153403943 4.313196093932394 3.5222413395213827
S 5.356655366608394 8.868004896234504 3.6482730303362643
S 5.352788488332506 6.791350780083089 3.7707791742955585
S 5.250551591243792 10.702634488862381 8.587630524868992
S 7.423575269479485 5.986021430442131 6.285784016622483
S 6.210315912742753 4.418781528742914 6.997249373960183
S 2.7483440871300946 9.873948331569826 5.518561473807797
S 1.4755822840564952 4.021416180571758 5.055608015604789
S 1.8596618965392475 8.145947094979766 5.179391864253697
S 2.487483721741796 8.0858253369696 8.588600895051615
S 2.0189633026076432 2.19080304408761 6.545302036354094
S 1.6185712597881796 7.0606043854979434 7.1609713542980105
S 3.4039070257372703 2.3658924971308593 7.848362478184221
