29
Energy = -115.54117392 eV
S 10.810845117896786 5.6169749416361 1.679799636877576
S 9.838208009889398 4.458498759251019 0.48977199084202666
S 10.591743267526475 5.30599377821012 3.583667252665796
S 7.826971717538102 1.9553502659608823 8.416455881665419
S 6.564183317699922 2.275484193998137 5.30186982060636
S 7.405991163059896 6.08654309281821 3.0502675359655362
S 8.041432647301134 5.908312924623859 7.001386557466234
S 8.553747161402846 7.893704458674292 2.542988868394168
S 4.845753195710927 1.6873639598363805 4.438583025715511
S 6.338198887520473 1.3389519901951772 7.28555440072883
S 3.3442910359505262 3.168697764184332 4.605921366813844
S 7.125224811700641 3.806117295824975 9.441371543692828
S 8.750897863531527 4.677514535719563 10.081584395959547
S 9.46796511449577 5.954750966491153 8.312885960312377
S 6.319809667115997 7.477876754182701 0.39152489781157496
S 3.596820884573359 4.66792076265458 7.47981066125238
S 5.656514627451881 6.515174205989272 2.0989101232259695
S 2.599824239565085 3.0672720291501654 6.492210127565293
S 7.161826157026382 8.994376348554383 1.6003280422098982
S 6.617250726092036 7.885637782709417 7.169382788538399
S 2.1814962696939455 5.643161357908489 8.562129929883094
S 6.990547055780312 8.253682572235311 9.34332057317432
S 7.4094108803677825 9.258481413837883 6.0902350883149134
S 0.8891684101757131 6.786001725836439 7.381940595618428
S 1.7873866269179766 8.407261777086795 6.50440456519319
S 4.232798284065559 9.94163340149256 10.137062752479995
S 5.117812732452146 8.047797434454383 10.074275128499336
S 3.704307383285881 10.53575313817374 8.235574056751185
S 1.7522660513260477 10.05111302507515 7.777806018099068
