29
Energy = -115.21031042 eV
S 8.825086263448593 5.991467211964935 9.385366728649286
S 7.41480939583974 4.838599045718614 10.392036431990869
S 10.658778899802215 5.568461776608294 4.327442073726913
S 8.092915947209255 7.897487218423371 9.192681476394586
S 10.647751278847425 4.275583921123416 5.763504602758124
S 8.923580257775374 5.245313572966915 3.0198941421001018
S 6.741191270168951 3.3051257623677155 9.200005652378799
S 5.237612439337727 2.14232260406247 4.001620764421598
S 7.714243313494384 8.454910889021642 7.1795554694087
S 3.383647140457774 3.760648599057997 9.096408541375212
S 2.423850231969978 6.935069068596777 8.589401702050951
S 5.141887486102648 3.9197001899927315 8.034521315310222
S 11.07442413564331 3.5972463234154866 7.100804001752522
S 6.659385839370032 5.89394413072834 5.229095873018002
S 3.015226113654276 5.572433827410669 10.0294737030922
S 5.78488915159053 8.74997355151495 6.8125580500150855
S 3.751112102761612 0.9650152300128298 4.236828767861231
S 7.677227741257371 6.739701770219017 3.4608035266930086
S 0.25904278118633456 5.410144436744996 6.540351591848579
S 5.898691659537453 9.02403998745418 10.75903812428357
S 6.201520913214604 5.726563929667625 10.392036431990869
S 1.8677073543149794 2.0276969103380806 3.5260255580732065
S 5.077100296751688 6.979228299209923 5.593710934848779
S 6.063600774488268 4.211738283601721 0.5317083199173234
S 0.4202798023089926 6.744972652461221 8.224350251449351
S 5.237024325395551 7.360186084904138 0.26987800813458424
S 2.5551149784607134 3.811252158174065 2.977028811199567
S 4.366730064236621 3.058707622431432 0.12633888931236417
S 2.696098153716531 3.967396088302145 0.8691016023480727
