29
Energy = -116.3332827 eV
S 2.0480701516689783 0.8133222729115624 2.5898212847939877
S 1.265766041922835 2.6777003057662814 2.142597237165991
S 5.55291312435598 4.917852522162533 10.890589939413752
S 3.5261181882517687 0.8064149448288541 4.020167809201223
S 1.1497272773630847 8.13597951902845 2.06308799037861
S 11.61184763409424 3.1583854077934945 3.6024257439685736
S 5.916076133978609 3.132174536377213 3.7695931195494556
S 4.3091270665539065 2.761720283019735 10.890589939413752
S 4.4042017912815545 7.883096194208316 1.8381919798682158
S 11.21981619041062 7.188263951930209 1.8077449710199853
S 4.483001876741411 0.9249009231439014 9.990804815160415
S 7.389368480400735 9.592669070476868 2.568414014471018
S 8.336120711875932 8.254931646171586 3.5300465242187404
S 4.063350168906385 4.25286372255785 9.471488586742868
S 5.037544700171425 8.212970892646013 3.876662583294758
S 0.6741858958939612 4.768615444362598 4.642210423138327
S 6.413191156066557 6.938981443313355 4.408742120174105
S 2.0839001878769903 4.281181477536606 8.891890289368183
S 9.19398594709962 6.70609550559383 2.018113262167887
S 8.02460444961392 6.827868093905164 0.4444113532332756
S 2.7795789552750776 6.699027486826116 1.8691186300818188
S 2.396278780880305 4.123253322444462 5.558070821234871
S 7.519512818370538 2.8363042441491193 5.087274170040496
S 6.896740125299842 2.845183762767321 7.007302747474861
S 1.9377319445114254 3.030162436346444 7.254524293894506
S 6.660033389077369 5.099511877279758 0.7221394520508821
S 6.497665345121116 0.6439231857331031 9.420587953859366
S 5.326873989146054 1.2826270034444054 3.0831360319248486
S 6.597830041985805 0.7382009384258994 7.418797352565091
