29
Energy = -116.16458593 eV
S 9.050060203332393 6.312090864737934 0.5509447388422829
S 9.762879404403526 8.650759084584783 2.7019938396334293
S 8.80942475284951 7.579000734096668 6.684379263917779
S 8.898350863509096 5.5215793043055434 7.022921200453539
S 7.859381243173053 3.169729847284713 0.5225208720537049
S 7.540575438400308 5.111346711968838 10.949383424949406
S 8.30456143648017 7.479119384735476 2.2307275525565973
S 6.842219027800103 8.109443180723893 6.446691501888723
S 8.890555456386494 4.569434375257574 5.235928742699884
S 5.051907235625904 4.683628177839692 10.949383424949406
S 5.864047824693976 6.527778571600005 10.716333049742072
S 6.247709270998014 3.1681309393897186 10.139400817716615
S 5.863190799937866 5.1493068133006625 3.598414043711294
S 7.351342134250649 2.10432667700592 3.683484419936035
S 6.441255837411329 2.575101991187422 2.010607434572153
S 5.546945447990594 2.571725082035629 8.301814189119344
S 4.798391221136548 7.501453821791532 9.135848877077757
S 6.081723712941476 8.807621501949766 8.265842286730269
S 6.735083043172619 4.108680081056416 4.947189283781887
S 1.763112688776798 1.5872905922861649 6.327750278725493
S 4.134615095167493 1.0755749421799903 8.608146601652201
S 2.272902319801295 1.9016504083556087 8.337882516899729
S 2.493540675860954 3.065678376887445 5.16518696981427
S 1.9652791329659127 6.49091134499895 2.622066963044074
S 1.7581110186628142 6.3039349588096245 4.88584129035439
S 0.9054403363855023 4.5630167667035915 5.1888589272099646
S 10.718279585757363 8.742769774580625 2.351913830259626
S 0.48257919582247 5.508540459278047 1.8541513399445382
S 9.863531709918984 7.160925884443931 1.711620069419712
