29
Energy = -114.93814587 eV
S 10.1151541609227 7.239066440999144 5.237874715857877
S 7.893695180071661 7.519951183582509 5.4613626308436265
S 10.210634802563396 5.364061922519093 2.4465879452229866
S 10.589826734782653 5.451636826699266 5.8204578509410165
S 10.67741193625879 4.156225950838128 3.8729729833019557
S 7.372456614578366 6.578131853563941 7.114631449324553
S 4.813572269325158 7.293905614662272 3.1773036271407675
S 1.6994024809210355 7.313829423278709 1.9914494729909056
S 3.576586622918714 7.640659846353239 1.503749754157148
S 6.679805009707677 4.615620791243655 6.417774570813411
S 4.367493480815211 8.748855028890329 4.625094666937436
S 7.644006500680216 3.327829112697012 3.2519765062280968
S 7.922370175452498 4.821183150245938 2.098924756834023
S 4.3481006116637175 4.103585465504079 8.781176959728725
S 6.271686901519276 3.6991314784044538 8.175983051402449
S 3.4962210689238518 4.377487194906463 1.4173896489111173
S 1.756046610197111 4.875748903532396 2.0322511443165907
S 3.3741036363112955 7.819985555039425 6.065391251009604
S 1.277387814284243 9.574972740834916 4.080657950500392
S 1.1871810672680634 8.356426156910025 5.546885993043399
S 4.489929362403045 2.2107475926801463 5.127480759744141
S 1.7305993759696912 4.839009325789511 4.320751044768576
S 4.823566579087369 0.5375959806676012 5.990433907672035
S 3.0392072040467295 2.718668329995365 7.764376617520543
S 0.3560803267415013 6.1052475681200695 4.893773554096606
S 1.1942926093128934 0.5963509008384098 3.587097791209057
S 3.5708446748742415 0.8859563287038018 8.14789762198376
S 3.532374409321377 9.574972740834916 5.23873266796817
S 1.6228186969362521 10.37333680446357 5.266858278198329
