29
Energy = -114.8925638 eV
S 11.871176962152308 7.560621077398994 3.0402813623606644
S 10.593835195365704 8.511692941028967 4.110852444101886
S 9.938467701488241 6.04775962134022 5.641429744697843
S 10.529965894529273 5.282041552036861 3.9571625304257596
S 8.68308692047096 8.218847684761382 3.121022566001672
S 9.150614055100695 5.518971173787863 2.5314629277326466
S 7.3580844416721165 8.387810262113376 4.672895256999869
S 3.7587680032618125 6.917265325014202 8.63511583499567
S 7.0144288311995195 6.073523372183384 9.090759945973026
S 5.41872448747611 5.99116416755345 7.787074655484159
S 5.64827879059366 9.020796662904385 4.020035377750287
S 3.4998175872064117 8.745162972650595 7.700815108390833
S 6.825450891831813 4.524601329533197 10.462476360342135
S 7.889154097640435 2.85705121958764 9.883369474689987
S 2.7012961838241307 8.373669824046038 5.842236271269587
S 6.52617866057399 3.8555274231880348 5.369677915414542
S 4.194367906433004 5.128760566641429 2.9619410220862017
S 6.566795164535283 1.3997903951230162 9.174084840916853
S 6.003822498624814 3.3488796545210393 3.1356885170457103
S 0.6118800888269662 8.18340724809478 6.041896941400905
S 2.932791372824097 4.567361881487083 5.832909778863164
S 0.4658091090535477 6.822117958015562 3.0706301373376803
S 6.778238454929328 1.0985960876072698 7.169347851500204
S 5.424304161940217 2.5095846966444246 6.315017155598809
S 0.13067624839624603 6.287802860771791 6.391345317399531
S 4.913226102942644 1.7963131788143814 3.1094018068259808
S 2.7391299930191235 3.968363657601163 2.5209226807084475
S 1.7234691294762268 3.6523197630037583 4.681315479683188
S 11.871176962152308 5.478188960280158 4.2587308656880465
