29
Energy = -116.58735213 eV
S 9.136120922420673 3.083380460600949 8.22414891872805
S 3.51100312630124 8.321067829679661 4.729886004799461
S 3.61319356129201 7.738598043965378 8.3773872052539
S 9.059010852377309 7.871019213342999 5.092297909412059
S 9.318055586798083 2.700521971219748 2.040864731382552
S 4.114678741954434 1.7850440531456695 8.732845206834357
S 0.3135735641423173 7.776359820922461 5.509238822913095
S 4.9452287094037 3.590084988072355 8.970267306807306
S 0.5386403470048959 6.925871538440356 7.377207331415475
S 7.662561044206794 6.046785321045078 8.166193634153359
S 8.412533149364139 1.683663583549756 3.6258697711002714
S 4.354997263989693 9.648336776073094 1.7734118363422746
S 1.8756423822696702 7.126123261617575 4.317612968826806
S 9.067250227360796 4.7372348373815525 2.1539101804503074
S 10.619793288986717 5.563329023054857 3.2575523600776672
S 3.1946731038270704 1.5915951872823333 6.816488394557252
S 3.3548529199431893 4.7266090299303665 9.920666580214343
S 8.886844696858011 4.822661067817174 9.019237027796406
S 4.061557109331574 6.601823393013395 10.091628115136068
S 6.478122504055853 1.3146439005400121 3.1704702451962326
S 1.6283493462918208 8.258961251439487 8.525788943542315
S 9.886874110547803 5.973932930026952 5.142294225202165
S 6.399388071617477 9.76815217907245 2.0212306579109027
S 7.040549261309255 7.851415486258121 2.449604250219285
S 7.093584358296209 7.638798125679729 4.513044538035695
S 3.454808165385158 10.0478730546869 3.5922913771555574
S 4.625070704994124 0.9418922309932708 5.566169205239079
S 3.940878327910029 3.7453253778244844 3.666075286206235
S 5.391244043679876 2.8228537009974057 4.4998050143496275
