29
Energy = -115.95797571 eV
S 6.33955659191706 7.579493621270047 11.684638680986225
S 10.196575072446253 7.358495941587292 7.374748355858927
S 7.254354988004656 7.687336705551713 10.031381564731065
S 6.595194228873225 4.85281344992719 11.6180635212697
S 4.738719326894479 9.495978507332731 2.766312282828203
S 5.30336430752948 6.1752166750927 8.862398623224168
S 7.5039572798225835 4.996257149468244 9.964513815445875
S 4.410982417705919 6.052198466165173 10.528037538171148
S 8.738882114044168 7.654487779718754 4.4087410398748546
S 3.2690934135454595 9.261717953296143 4.216731034922614
S 9.011384719768627 6.323814740257836 6.276278651609473
S 1.4762745435505495 9.890291904645924 3.52129698741722
S 5.049748642361272 7.746702629933246 1.7107776673238504
S 8.083569190938636 6.620039090750283 2.8213090909991902
S 10.196575072446251 8.235086887819465 3.2810971322545446
S 9.969314227788447 4.688039574942209 5.126896966048581
S 9.93773810836824 3.1481116164466227 6.523205061924806
S 0.5090675670295262 7.102617395199979 5.404769229731881
S 2.726459863540264 5.079088538434237 3.8896333166411132
S 3.9932646957513 4.519021586485587 5.402960108898029
S 3.9946823658069945 2.480959443349048 5.6614389219511585
S 8.118720799440307 2.4481518320678575 6.774908261812317
S 9.821274587737102 1.1815248456056864 4.102204409241853
S 5.9985441014046454 6.373030015131284 2.912729331315283
S 0.7465725101712876 5.319241851525209 4.644373072346902
S 0.36970934860913085 6.851578689784834 2.0171326865990107
S 6.68872047166301 2.2800711632650517 3.602194149480608
S 4.836587054402712 1.6027959746033786 3.9361889597457207
S 8.05607782674574 0.9777215031459107 4.815562091819123
