29
Energy = -112.56729546 eV
S 10.919718855240408 5.609846867768356 2.9900245034763486
S 11.746708215491251 4.8625683530351145 5.429088642714169
S 9.562318355630316 7.208056054719544 3.518304132139174
S 9.971273349382878 3.966842179115862 2.6653838996232233
S 10.707154148071865 3.246973935677105 5.354050096461265
S 7.5237408569277235 8.606526958091568 5.614899382905486
S 8.849346944153687 3.5749008658901706 6.447902263777593
S 7.700133278227099 6.196466022970136 2.8299272236295785
S 6.6948354458986925 5.288863258384649 4.209017290543403
S 6.704281221716825 8.030903248759866 2.3723792214970794
S 6.049796691466143 8.706402814595263 4.390863077024275
S 5.1021191161043165 6.765836663901183 9.140193630416192
S 4.515696006794286 7.224168493727191 4.8379292161829675
S 4.669669030656572 7.5155363073020425 10.870458965911725
S 2.694208051468895 9.278932050868596 6.98157353697252
S 8.44165245439074 1.6220271807462179 7.045622583962982
S 8.425406266398054 0.3902414340969453 5.5337019251394945
S 3.005942486549057 8.865280019679815 5.130301429851861
S 4.915371569885547 4.666984741046698 9.18084166585024
S 1.3665451247285396 6.958059546937037 2.6860864693564306
S 2.432638465141235 5.167717444335797 2.4421851123654976
S 1.2819441901364697 7.4837920245788725 4.620525324279843
S 3.8105229518639314 4.27973309327416 7.30646096364073
S 1.756208309180634 3.9124181877736484 8.29701253991874
S 1.0855576328669871 3.609737523987625 2.5000417229317753
S 4.539066435202176 2.6811350603625916 6.53511252160163
S 1.342576645704195 2.5598892313131216 4.264157285008921
S 0.5056921471879019 4.573910545373946 6.868970727129042
S 11.746708215491251 2.9948323561438537 5.6404703683367226
