30
Energy = -121.57644875 eV
S 7.441346852527209 4.087948965442603 0.28144065432100185
S 6.191864634184729 2.8753037980854965 1.3855240562980828
S 2.814036073685853 6.793202328860365 0.9342963855242808
S 1.697321456356955 2.6484145302852675 2.430543291322995
S 7.361258116975175 1.2174205369192022 1.930082665547343
S 3.7649837325137843 5.195336076104087 1.8816749672654873
S 2.495001178366024 4.465156696293825 3.2882492641524976
S 8.189722482204742 6.93722987282795 2.0422939854248354
S 8.785510946509174 5.024100671508337 1.540772695369863
S 3.394693488133258 8.464305435961563 1.9725668229695672
S 6.812072542416033 6.951946549019644 3.58404796254372
S 7.596694735754583 1.1912109652251444 3.9389657207250406
S 1.401767825812137 1.3396907214138962 3.9179629509110776
S 1.9555019836484593 8.853419384263752 3.452976281695104
S 3.3718909311918983 4.038634994722464 6.519671112655551
S 3.0991988066152554 0.0621758149314809 4.227378913145431
S 7.717142339804525 6.687271714222612 5.422860044070492
S 9.158706287483698 2.568315195106237 4.387812721031774
S 7.11185836823822 4.819999804995435 6.072366591529986
S 1.3808373905816265 3.857734292457714 7.005354221222447
S 0.7733594651560064 5.641585405765281 7.891297750108415
S 2.291297023587663 7.730865917266675 5.0956080159263415
S 4.284060524111697 2.7528985963806174 7.8891756594983
S 8.666625515005668 3.4351843866334377 6.162754650921253
S 3.426141074427092 9.166989122489658 6.235591885090455
S 3.6428728549200557 8.93647529599639 6.298942296487478
S 4.329304772659806 7.703042197291406 7.7208182123095925
S 4.998286925146006 1.196185319397538 6.76568135985133
S 2.0359121209625615 5.917534272037675 9.525288104897921
S 2.8885644716671903 7.762103509317013 9.275835677828582
