30
Energy = -120.80413585 eV
S 4.602795033613725 7.511658370633556 8.52009936351839
S 6.065295073414024 6.16290188965043 9.300063470955578
S 6.711224311583172 6.831742144225789 1.1102304493635013
S 3.2656892805510696 7.949624639707621 9.975092990108537
S 1.8440694881614552 6.434247727474481 0.2595542055494437
S 2.3864601975911586 1.3969900133195008 2.189775995225562
S 2.675781665413442 5.06681603361712 1.5005051946298351
S 0.3574606359261379 3.698721335177557 3.568231186149565
S 5.928721334087746 5.504664126285466 2.572255878226257
S 4.725178506401856 6.450887541194048 3.875376603003259
S 2.5254370900987633 6.360350377412085 3.406674461569034
S 4.31752944761163 1.5633584643635545 2.9494582748655627
S 5.171877739551279 9.66907119545718 2.9251437019132536
S 4.5167381413780054 8.407847953551729 4.398225876873092
S 1.1240908219621233 1.7627972602990643 3.76845873858023
S 1.3526868337312672 5.058501370101963 4.689221288168438
S 2.588802109227913 7.871713428065909 5.411085028571169
S 8.796895998924171 5.4748172958249635 6.123786712767584
S 4.718884054659704 3.578509327670905 6.607319333940659
S 5.472247704199501 8.95638199154667 6.186108950008814
S 3.989609513869446 9.146532585871807 7.588885358765872
S 6.984911255906835 8.361711797227219 6.556643525500261
S 8.657036765107115 7.251756702556939 7.133194621171569
S 6.6317560239932485 2.9137486912663695 6.155770145353249
S 2.602350464204468 7.281742759130695 7.341461684023753
S 2.9145189214654668 0.9036464731198295 7.349787825213598
S 4.49145202927192 6.744082475902138 8.018430706029669
S 8.0645979232544 3.87706366997835 7.271156698852514
S 3.9433076261412463 2.496266162731597 8.180297939268197
S 5.7171398134327935 8.40784795355173 8.17584156070445
