30
Energy = -121.43939359 eV
S 1.1470964542777093 2.7794888961770483 8.93852715519416
S 2.9056873641662864 3.779373542384512 8.83804431935793
S 5.43417234593479 7.056588141190937 0.28919115336858
S 6.804286539936338 4.048305118237296 0.8445323344285424
S 5.592017715617965 2.592764230104137 1.5044406204015175
S 1.4842337972811772 1.180871617330417 0.8910674657672318
S 3.2712016352003737 6.938192564753219 0.5748497503683968
S 2.9432046123351188 5.067074882880022 1.176514061858377
S 6.281100977315408 5.945933068898666 1.7253908064604675
S 0.19760174161919147 1.3353133031058397 2.470369592298042
S 1.0272892803300802 5.714233450676024 4.129355401776226
S 5.994395693348636 0.057258878487546606 3.62540495577141
S 8.206662907148534 6.169647054753995 4.833136874364053
S 5.2160277154999415 7.469798488154141 5.289397526655973
S 6.573214774948401 1.977616587513238 3.336468053651343
S 7.180733104110101 7.956551783219009 5.2293752094131225
S 9.18577112929187 3.9826016822176893 4.398652581672161
S 4.132064664277792 9.236401520157255 4.512776116711114
S 0.9478686084918199 2.3027899804574194 4.178530474316256
S 5.249328244026584 3.4505443700224543 6.238218650112774
S 9.18577112929187 5.497026202814515 6.504708782420587
S 0.4547998284509674 6.897566513463371 5.692768587586788
S 4.787930380515553 7.061577189111327 7.34762292507963
S 7.11341366597883 2.891524339021806 7.033430147699016
S 4.323095609415761 9.29855048261849 6.630557944519815
S 7.855980857320825 4.6294119690257105 7.846050107576854
S 3.8882830945372344 3.183714532320934 7.678749543940424
S 2.9963056454314536 7.948411634709389 7.689587471082594
S 1.485156018287652 6.533771301585549 7.460914831576261
S 2.9661946765468747 1.2231684069174638 7.297438286879944
