30
Energy = -120.60072845 eV
S 5.324822802935872 0.6977677087055572 9.38553883536136
S 4.1060764723717105 2.031646100429355 0.18279264813904902
S 6.984795542943191 0.3946654488144065 0.47416667894850373
S 4.857669940475591 3.9714673903776525 9.82385149380252
S 1.1328464537275558 2.8523902871859836 1.7518689565596766
S 3.240714682905726 5.08810488161176 9.315209760815138
S 2.174922292630739 2.428881361196898 3.481730669918925
S 7.036432962505713 7.160414767132773 3.4374771222328224
S 6.659326189441056 8.934632910214445 1.7306420754024368
S 8.739514661351606 4.324816808337369 3.3512611392604823
S 0.7699221583815975 4.861646632095427 1.4695813084283609
S 8.399392879851789 6.04179460612803 4.492379010021554
S 0.856686909457764 1.9156964974239843 5.002015255417311
S 6.946058063267124 3.3474771211156495 3.154947065781848
S 2.5274737039845863 5.845337801357652 0.9852342378121822
S 2.9626716703240956 8.934632910214445 4.76051996929263
S 5.678775689328167 9.497374911437772 3.459524035464046
S 5.203870965666209 6.561641473426226 4.195080946470923
S 1.3489241432053019 7.661113119186096 5.099806321847994
S 7.057394167882598 0.30831535435081986 4.688686814735033
S 4.597750601311731 8.000915071511823 5.581399309207895
S 0.5754638332687441 3.506724799536937 6.266902588805775
S 3.3955911544525788 4.717824279412984 6.63802720723136
S 6.424487757523036 2.2628788767482284 4.848896977314875
S 0.6264081285768133 8.011748791934808 6.975446082083916
S 5.1723040710161845 4.369290324091073 7.7407514775740545
S 2.2168017123933357 3.388158620564763 7.62026391627306
S 1.6846976218774916 6.800521980758729 8.405177457383312
S 4.673055167265185 3.013932905684366 9.059060470982812
S 0.5784144344278764 5.2968876460354455 8.988178830585664
