30
Energy = -121.54260907 eV
S 5.378746178892932 3.386549820975144 0.11902203102299916
S 4.211342852655848 4.911956919909782 9.830692859793942
S 7.331743555662826 4.147629286138406 0.6528870650164494
S 2.9861745787597678 0.3218784912392053 1.1113042960700728
S 2.204376366152805 1.794628510128358 2.124988763203803
S 3.2368834908796433 5.801847616585292 1.1781318077238572
S 7.804742094864445 3.2545767725745947 2.3717005683978485
S 0.018757434769844903 1.608480745879034 1.9773561294045663
S 3.2225507121557917 8.955483968507348 2.712942938082925
S 3.636294199540595 7.801751745017195 1.03076588367275
S 5.122772542511007 8.95548396850735 3.87268839951234
S 9.780473568369718 3.533235570007339 1.765895800719582
S 5.440482642071692 8.252481651646963 1.9913376586125902
S 6.758931774271267 4.502515502567119 3.820812444703265
S 2.9090494613117786 9.870644380561226 4.39947204732119
S 9.296712969231603 4.2860059822185885 3.690517758703882
S 3.5844960802885635 7.283144887196073 6.395695823843693
S 5.1193663001759475 7.197382250538878 5.074937497081388
S 0.709262508768951 4.553234617297653 4.688716606246549
S 0.9154800738683047 2.6273669327410722 5.66049610818272
S 4.855019912842446 0.38311790620449004 5.018125515408114
S 4.359236963977301 7.957960600984078 8.218166932265845
S 7.115523228590884 3.7252301120128184 5.636489045069143
S 8.22921308252858 6.579316638748463 6.979302357741808
S 4.562678234478212 0.9408611695533736 6.931178947687693
S 3.965929707422582 2.944590571188049 6.9932881940941405
S 1.9103440659250073 2.9798033993934236 7.370963132480103
S 8.789298453817574 4.655141601513364 6.530378040290777
S 5.41509047156119 6.347640647529715 8.967404161761843
S 7.4457052401194534 6.756736479102743 8.885827474554375
