30
Energy = -106.29790635 eV
S 2.723826853561655 7.878907644999393 2.246037349926163
S 6.035447620427966 5.528924328522196 1.5958655934608847
S 4.43071043733213 8.901414293939094 2.1674683544001114
S 3.8016312306864357 4.692116061454946 2.2919404294627443
S 2.2732454505273374 3.4199695320786883 2.8418886368819973
S 6.8682602569761775 3.8646026716450543 2.336753378068462
S 3.3365514004917793 6.336139857616704 3.355222674985354
S 5.095311062079458 3.0222927843625857 3.260462186397475
S 5.937022416826391 6.725574743340693 3.2986159896966125
S 4.663834105304643 9.59210721736437 4.0158644087652755
S 3.3683892976128424 2.0830272275119226 4.2171560973936675
S 7.646301568539744 4.523278443165587 4.238008926821678
S 6.221189946787228 1.3642514984561864 3.6249087865558614
S 7.88648655868578 6.444582773362628 3.6627425424738824
S 1.469729125283706 4.459046879956801 4.5742108662656555
S 7.494854574023472 2.093876806315947 4.978574310633819
S 6.160942257730836 5.044695714210167 6.09739378204046
S 4.619543153013246 1.1456876910405076 5.645372017603576
S 2.221792810358715 3.123244850518276 5.929883087387909
S 5.595596248838449 8.150273468422304 5.03946671546645
S 0.9043962257757274 5.022384090586249 6.553915695695251
S 3.9227984976438988 7.076661822634089 5.808847499461749
S 8.130522688721346 2.9636892490349336 7.274440250859267
S 2.5102289359863588 5.953201870351593 7.204712501261639
S 6.309539852926578 2.235177339017101 6.634955698299767
S 8.095168252718084 4.862349767963041 6.512612761956192
S 3.768018996812293 1.9593067259884565 7.273927641377809
S 3.694811366422801 4.090746226013792 7.007575739514861
S 5.4062312161631505 5.431405460884346 7.955796787947515
S 4.694133762213953 7.29757912971454 7.641895459410094
