30
Energy = -118.27707232 eV
S 4.387571105038477 9.479738362978477 1.7820503982034377
S 1.670700668846072 7.96375943215924 1.6404324494251856
S 4.938606719555262 7.883893889189305 0.859159051487372
S 2.834085621959435 6.722332302373837 0.7859440883430565
S 4.8009090992923085 9.100585733193736 4.023703910762717
S 9.353030737074917 7.59138762048647 1.8559217752832766
S 12.147869422803208 5.748013787570779 2.4689584113448815
S 4.189065048767718 5.880232378536117 4.683116150182894
S 10.286752884284144 4.37595404428518 4.8020802866570715
S 11.591281576049717 7.591814995039734 2.0298667163418487
S 5.681985620037121 7.351874840139303 4.128256138258771
S 8.687628702881662 5.596702757435085 4.414649552021919
S 8.745177915463113 5.7627342236947525 2.282662944721776
S 4.31741682589556 4.343877387633326 3.3757552789919427
S 11.972220223982639 5.521443024256325 4.590731513459993
S 5.824657807515715 2.944518755353388 3.9398134758148267
S 5.038035793030824 1.5122646316354276 5.099088213946131
S 7.3233035940144084 3.014331274341764 7.125270461469756
S 2.8576213188667134 4.012029819384767 7.19273695895311
S 2.081726584875802 2.0870660337846227 7.243244872111848
S 6.639418040721359 6.582672337099903 7.71089946362217
S 5.727066821583338 1.951112592356327 7.1788636056083055
S 1.7485674166639114 3.3909099765353212 8.835554607480871
S 2.65564543936333 6.836974844311014 10.101939440288811
S 6.483919919692302 6.661691616351612 9.619754718643787
S 5.042423960608296 8.50515570865455 10.039965848988196
S 4.878235370959651 4.995632463612175 10.298763238153594
S 2.84795408584713 6.988316322849071 11.979150553367502
S 4.789565370670225 8.66609303578099 11.939781618938088
S 4.687843982470305 5.167173487792269 12.202171935942065
