30
Energy = -117.198897 eV
S 2.4508015837178467 8.190744649601815 0.3773275429354569
S 3.7166523459968754 8.509086098305112 1.7898481087107694
S 5.383129272897677 5.192169655215821 1.0917312236294836
S 1.410389595755395 6.166314322308277 0.8795802537682199
S 0.7510951496729263 9.994491253958431 2.2787437119955074
S 2.233373455289017 5.548773477600118 2.5395693187552872
S 2.4020849598572926 9.903241469293931 3.2236415346092184
S 6.121641586122054 3.8937595787387154 2.312067212218601
S 4.47370458442618 2.690616119233397 3.08699365677752
S 0.905854318594355 6.2619726890749305 4.1561132169870945
S 2.02197076035269 6.690974015198917 5.691020616454215
S 5.310598123729048 1.375324853909838 4.311262638827121
S 2.0717877768900115 3.14976302795499 5.470366121109357
S 5.302806090176385 2.494867631765956 6.263235188578597
S 3.660762205776723 4.573254562235656 8.097387077843651
S 8.279368765572668 3.8100237350176 5.280661077599083
S 7.795860378475387 5.774694516394424 5.984914140563631
S 2.1337963082513776 4.496175739563381 6.885026710368131
S 6.688128681240827 1.682167376130819 7.369244424040169
S 9.52207264517084 6.766311494450931 6.214714050198711
S 8.704259663478476 10.272670033246145 8.012237687556016
S 8.672056416339613 2.6144418966399057 6.809575746016471
S 6.697815292712331 4.90056239259757 10.02658941691268
S 7.553409623697298 3.182773275900005 10.818355963286976
S 10.494358559622466 10.757901962549978 7.581514982833299
S 9.993346115760156 6.139296908738811 8.288702012832248
S 9.047237713974788 8.849456278062457 9.933387422531043
S 8.401837188462922 5.043148871523536 11.205016573161311
S 11.656441367411983 6.989460668691429 8.820453829862108
S 10.965273208883481 8.907475184406263 10.022632277347297
