30
Energy = -121.93026339 eV
S 0.8950901368893058 2.1984347137516216 9.56287334684617
S 0.17622780203745275 4.145447683456933 9.452846321752006
S 3.0361068845614527 5.743416156757383 0.06392639012131887
S 3.011032430858269 7.655839672589273 9.404073137518324
S 1.2134405174851302 5.200055505445383 1.0282218731466402
S 5.83597893529784 6.229455762224124 2.5367493434010955
S 9.3989097002421 1.0402866994106432 0.7933669016759187
S 5.494110882608532 1.100755877114504 2.8818511808226437
S 7.405803685552533 7.284839909281815 3.317803380951211
S 7.973150417508784 2.7412086975485224 4.4886373055008875
S 3.8418508863430714 8.72795680564299 1.3747586419716835
S 9.470595095231625 1.447156786628378 2.8113485637217432
S 3.9134088086998258 2.502657756564537 2.7537950200758456
S 6.352030437393445 1.303642498372952 4.682647492244179
S 4.038341167998485 7.338411254536749 2.7676830190800223
S 1.279190251015718 0.5277507684509329 3.6722875573709985
S 2.5745838359672066 2.040624425446308 4.236144798375818
S 4.819716315099419 9.32007582998774 5.978432659133832
S 7.331918304735077 7.066463851735029 5.385109600283401
S 4.1794713120900315 5.234849228658015 6.82944875117616
S 2.80775386452739 6.763207313532029 6.781723862109816
S 9.3989097002421 1.8804050657365297 5.574470131963273
S 6.830480118343972 8.899112688275137 6.190296581321887
S 3.740789113242041 8.460331238407713 7.522618453295209
S 3.3290383264923995 2.631962278772446 8.831424229382739
S 4.776730784769004 1.3107723314195783 8.003394159078214
S 4.222904402154072 4.453375932232442 8.774930521461256
S 9.308794977864807 2.778672778994079 7.586103367647425
S 7.4428226921272485 3.264551187406413 8.062630190423816
S 6.470704119803279 1.6067630432768225 9.055990208090323
