30
Energy = -122.26760398 eV
S 1.8822580931877728 2.405374707030982 0.6717073653248408
S 1.164331932038513 4.313005988284781 0.3459876997565749
S 3.916588054668237 2.5191531339967104 1.031400977389349
S 3.379572483974106 8.212165549850774 1.0947942742601993
S 4.857764201371018 0.42319103403916514 3.4693626502712616
S 1.5676432429040053 8.126280420305168 2.0812381215779276
S 7.481971470065738 4.835121205331768 2.16014093008533
S 0.26239985046174646 5.083690428598215 2.0427365035008
S 4.209589538293436 2.3398838137806064 3.072780951793725
S 9.0070802658267 2.5169186249723765 3.993548884099669
S 4.569657528893172 9.518480522685149 2.1752397769282736
S 6.417526270500608 5.615889423418154 3.7130435166448668
S 3.2858704185882157 9.51848052268515 3.6727518819452856
S 1.5646825549346226 6.307395694876202 3.079334016611456
S 9.34354863513438 4.22139020250827 2.87233433119526
S 5.102224535511274 8.65359527480494 3.9821431313909934
S 6.887621889661284 7.663297266078553 3.9289794700863814
S 2.5439393662653944 9.69979103840297 5.598612192126521
S 0.9128367891864299 2.231071433136348 5.245886367176895
S 0.6949004242438016 0.19030755220621595 5.476267026125172
S 9.370907468199976 2.9320795500698456 6.001433796944972
S 8.315214078194138 5.882706586062873 6.799447086757144
S 3.9481489294072833 4.784005040961452 6.682401177436601
S 3.5054530093393765 6.576472013962887 7.616738447299446
S 6.413799475160807 7.816070674134891 8.737526395520543
S 7.729307934734031 3.840859956116328 6.805038540312854
S 1.027485814484509 3.1439656819434085 7.094147433375807
S 8.056513088053313 6.549266521235212 8.714277807831637
S 3.0119534679789033 3.2325901906100865 7.6732161002882675
S 4.692758903635045 6.809208831687173 9.291032860839936
