30
Energy = -117.95266435 eV
S 4.697683629912407 3.5528927955320486 1.3849928816777883
S 5.925863392084382 9.099288810222376 0.47595454617547917
S 5.368643841682305 7.624866595932293 1.570892745804692
S 6.642823527053854 2.859031907427618 1.7475907332519067
S 3.8339917348600183 0.3201221289850158 1.4746989991923471
S 3.5521445305689117 3.344435208584976 3.0001768298954326
S 7.758321208589121 4.34994123513596 2.659260045897069
S 3.6492407477026054 8.40626214571721 3.051836373816192
S 5.691904238844079 11.243367706960987 3.2428600520882225
S 7.658850741150292 9.897016680991545 2.2468171543130313
S 8.15193284329702 3.6794696485755662 4.55040804697151
S 3.174067141843216 6.920861000145307 4.167924153503398
S 2.905569425948327 1.1774140476875408 2.9139120010877635
S 5.114397424929699 9.778715842665177 4.344896683488665
S 7.464235682142913 8.394348628178365 3.380363863617714
S 2.5475110399630903 4.99903307240953 8.058066774142953
S 6.8628986720057075 4.53558682468158 6.0038228859168274
S 3.688752791010917 1.9991751949258108 6.858167216147752
S 8.127889841745567 5.352936353596494 7.334963646958626
S 1.2956912928641375 3.8788744977431695 6.443917017731965
S 8.224586270084464 7.582837159575483 7.153823461824693
S 1.5882241448824836 1.929049936547815 6.880328550746881
S 3.8537785822634714 3.164282602430548 8.484092653475015
S 6.593290837120595 8.092501514206324 8.836290633108517
S 8.351552051352897 3.1565984190453964 10.147095872898483
S 1.7414420913785913 5.331672578378781 9.761850983354872
S 9.948425236994794 8.101129656943245 7.823075433371101
S 5.934537970884641 6.42119208700575 9.68748785423399
S 8.734432073795581 4.876227834455108 10.941444180712363
S 6.9809696675885515 5.994520559858429 11.43664039913979
