30
Energy = -121.72988722 eV
S 8.701905059164858 7.5021596459283 0.5789060867238398
S 6.657305855155636 7.468962071913535 0.3465728238232762
S 5.991362298990357 5.509484591829187 0.31203237049964894
S 1.6273609192860725 2.125081305362853 9.782321712443531
S 9.199237808986293 7.260065256418899 2.5731624908630475
S 0.41357627235414934 2.6236247837792526 1.1574524309763234
S 3.800817064180339 0.23370452166273203 1.242785447644116
S 3.597760761174973 1.9529045159290441 0.10443307392294131
S 5.207735751174838 5.066865999926376 2.1668685000549566
S 3.8031099692521475 0.9421945365488176 3.1807981185771736
S 0.6503700627290223 4.589989452329386 1.6191101701683948
S 8.765452781722235 9.040127743564318 3.527320735801406
S 1.3477439586010134 6.101195230397232 4.467705663940547
S 7.6369733509670175 8.655972120250478 6.599154035981935
S 1.959776438895726 4.562953822662785 3.3168435999892036
S 7.030625007900711 8.75585791039113 4.625513776985462
S 6.905446398642097 2.2649357766249016 2.73111506270172
S 6.682049222277984 4.228433540336027 3.352902293284293
S 5.774193378133085 0.9587236521178067 3.846506349596495
S 10.09456553278933 5.549458711011601 5.851226589288905
S 2.2856890843604023 1.942854848828305 6.591416753474384
S 0.6973592463635799 2.702843246662947 7.333240990777988
S 0.7620745768485294 4.892431856679465 7.53745270797261
S 4.9697389651128345 4.950270586011773 7.35261622241878
S 7.8734641529398415 6.7182275739682895 7.279727433918617
S 5.543658555445886 3.0511921168113374 7.991715151004377
S 6.166299675232805 6.2782361087856176 8.377986128956817
S 2.868643613892368 1.5018270079329885 9.507055330442222
S 1.242885835039097 2.5504330748560773 9.772769387192666
S 4.651851554255788 2.6812879880973837 9.782321712443531
