31
Energy = -121.16837403 eV
S 10.13599933335378 9.15936167567542 6.931237510179304
S 4.658168668835623 4.313574989405898 5.395878970444136
S 7.410211479424073 8.119351139753025 3.0498129983675195
S 8.55342028509368 2.0740104448671923 5.311686674812429
S 7.092998140854189 10.474515101511097 5.276970647474924
S 1.630342574611711 6.500526292547211 2.5800454295120274
S 9.817140123211967 7.198616069214632 6.5914025032157975
S 6.169681181733817 8.849542759114644 4.603047569110485
S 5.463857986897331 5.291334830821067 7.206157957230017
S 9.620257476641738 6.180918030990192 8.26780413593485
S 2.861937697454131 3.696726008576783 5.833356662946585
S 3.1967643707250253 7.533383510579945 3.674878099918716
S 3.7067871706622895 1.7368029956418263 9.114796736899335
S 1.5937823608780584 7.627380575478128 6.693993699527971
S 2.497401497067716 5.805376557042687 0.9224676317818522
S 3.130251578993739 3.8045328040455693 1.309384912532174
S 3.4057598419461477 1.6130698166204234 6.981333116219898
S 5.535917470697803 2.2709910647046683 9.463719936221576
S 5.055194687161925 3.5475191916476323 0.6953316906803508
S 6.957259811103848 8.375205914618395 7.932828446208539
S 3.870357558185212 5.735427003828952 8.344915295217845
S 1.523246178795419 0.5926613819545551 7.196081619836902
S 8.621640856030066 3.569695805496053 6.786113108079283
S 10.059214705680994 3.5092738742457144 5.292222408574293
S 7.868280583997412 4.966947405057697 1.9577172834405918
S 7.960015544566154 9.898778596201183 7.3691149458756176
S 8.187723256007413 6.243208507381339 3.534283627919963
S 0.6957614165271389 0.40064677701674917 5.460638816922968
S 3.155216285298377 7.682010833160635 8.038102330575429
S 2.1611761189482515 8.679943702364778 4.972814179666571
S 6.4428482468273405 3.4798131805489096 2.260143255672955
