31
Energy = -120.60184246 eV
S 10.731514380591815 2.5591806443284133 4.40227602491911
S 11.331999256834326 3.9065000177587716 5.609797498654073
S 7.470858780138576 3.3464541406822574 0.5138343203163932
S 8.85005113418245 4.92021045379481 3.833453065248979
S 9.987986880207849 5.597092600335811 5.213999688767809
S 6.479607587079499 3.0097815500875327 2.115928431148821
S 10.403111450463205 9.612024880714792 4.9574824425483355
S 6.526877769492566 4.773396991203176 7.383553827121602
S 7.3095742506022106 2.9865117161477825 8.5254877114419
S 5.400132156781749 5.962790473143802 0.9791609839578446
S 8.56646652650566 9.9423021844823 4.562786566908561
S 6.576786652309974 2.953683793898136 10.315878528696317
S 2.6136187428642947 4.057736116099475 1.5809550151606413
S 4.577461060174811 1.048711017676324 8.3394586577846
S 3.4950067244322485 5.400449373041041 0.24685755740998128
S 3.3991672444533987 2.679133098340431 7.384836983126171
S 6.215741789179952 7.426432925899169 4.3713001986829445
S 5.883969846338653 6.059134338639949 8.768239593543617
S 4.725558212900801 1.512502203328771 10.221026005235705
S 6.768112702670815 5.341810749259828 11.49634357665884
S 1.2724582484476752 5.05753888442083 2.680914118859949
S 2.0837665865998107 3.3136177730869054 8.723900686589719
S 4.106982345335333 4.785537629901403 4.514950261500069
S 4.724535704974762 8.765974460563347 3.8580582863739585
S 3.76229876567455 6.20467228840524 8.769453426953895
S 5.144246880681357 8.387283254522643 5.864646944041993
S 3.001091564878376 4.791875513597858 9.995060226873582
S 2.3948035125561162 5.6430350627676455 4.543852047116407
S 0.49952151053417293 8.601125224370533 5.287253388913809
S 11.331999256834326 7.841884200273075 3.8018762836094675
S 0.5200737780595674 7.626110764040349 6.954289367056868
