31
Energy = -121.10912648 eV
S 11.540503909389555 5.138977470044303 2.8398956650748275
S 7.389337128129977 11.821794165013369 4.127443961896
S 10.727642338038693 5.060407583268748 4.754419677609439
S 8.119402016327014 4.158015781819383 2.4183273137703956
S 5.878244856347558 11.539955924403298 5.244674704767182
S 11.137810290693555 6.893897413424667 3.868881240930872
S 6.768837754958836 6.9215672150795555 2.037367946220738
S 9.274229599244675 6.564362073029709 7.675871017045131
S 7.315400619741245 4.037044191497739 0.688467865559208
S 4.239334760214853 2.6606950576298463 3.0534861958644544
S 6.377461433848857 5.994168930032002 0.41413855859018756
S 8.262025126095741 7.562247869263787 6.236659905986392
S 7.798812910223919 3.574665572422936 7.448883646156922
S 8.00757827758827 5.218494103490463 8.664098488902091
S 4.6534440169954925 2.5242192610924548 7.525506521691046
S 5.962631615344305 3.7469733504175573 6.500336378415395
S 2.38170016081761 3.050680909909141 2.6590385688448257
S 2.1675674860394434 4.867096791512378 1.5284230677382713
S 3.843358801446656 3.495420027189371 9.159079223027296
S 7.27618799074191 9.206056837657364 7.2624645708001605
S 4.253766052427838 8.011511243714255 8.302644940045504
S 0.6570196428251831 3.4154094722265125 8.219479903045833
S 0.5426128729521301 3.191441070179897 6.1635119037442925
S 11.540503909389555 4.487178932083988 5.524529896140448
S 6.073956595902935 9.954504289936338 5.94271024826624
S 4.009022023848663 8.57905525047035 6.465613930391752
S 2.1760660253002597 6.442666333425629 2.8290645708327453
S 2.2557044105039536 4.681457312105736 8.569724251579153
S 12.35749263080043 6.389196158954048 5.331726703413972
S 0.20482246287152334 6.850920200331954 3.3545331082768897
S 2.472712588027666 9.633721326876664 5.925834658847441
