31
Energy = -123.64614702 eV
S 6.037440975501623 8.170496701251903 3.625945082552914
S 1.8673950971506246 10.123875400953189 4.247179534092427
S 6.914431014375648 2.538556872639358 7.297834041031708
S 2.451449084856833 1.1103116277790424 2.7874449010103417
S 9.406987814876292 1.1844060789062614 5.545663276448598
S 4.221371045988979 0.15377542879578046 1.8829213329307004
S 2.2460884206229057 2.9165779174658826 8.124229260827853
S 7.8510378941403705 7.058146097939709 3.4758147020449845
S 3.47112173253559 9.723594389237006 5.469670915553326
S 1.5714470768476403 9.113221489386238 4.889690232278033
S 7.384468127638753 0.7804280686884733 6.507110778316355
S 1.9710689184782062 6.988538854648734 2.341698481967548
S 3.878214030552777 6.340404706796904 1.9450644826284809
S 6.999485275797849 4.170396991834977 0.882964076610145
S 6.363967249131381 2.6800715791016625 1.9258581553502407
S 9.781743328253523 3.045916868566964 5.768568036129152
S 9.21918988382227 8.371439845211036 4.2338374645053
S 5.144941444131693 8.006724586657862 1.807937758709685
S 3.502475755828054 3.3356147612610556 9.823828029519124
S 8.30615550825838 8.914181378777172 7.481238280276031
S 5.497755081761143 6.989726905163674 7.503498987427123
S 3.8726881156934074 7.930807689327265 8.32349413610537
S 7.246036508605909 7.488259996046369 8.516703925430088
S 6.106851901493004 3.766426838170843 5.779642186645444
S 2.8877396486858373 4.898699726186565 10.788302672166054
S 9.621359299462782 7.906021722627728 6.207921179917615
S 4.187157939079521 3.1568261907073136 5.399847494303183
S 2.831522916230689 4.164026732419585 6.615393379307086
S 3.6265989924266577 9.836362383158928 7.511318181702108
S 4.964252698073033 1.5393630048157878 0.6622351489212575
S 1.6448830324497559 7.111381299830743 4.393054155133108
