31
Energy = -122.9182168 eV
S 8.835884487856148 5.584826923823457 4.4224860067522025
S 9.16294318662055 5.693640569671834 2.3876678678555643
S 2.3719886085554114 8.611621381807877 5.59030693121816
S 4.005037092332597 6.832281101202044 11.282078624404752
S 3.2352736467506142 7.549054946983512 1.5164207993849554
S 4.149853622372889 2.1759462248536776 10.01929818377481
S 7.011321114325241 6.401858995291916 4.958032847686605
S 2.389126816703373 3.3190202117870555 0.926240609865217
S 4.025185856772797 2.7092279743079013 2.0517649454456315
S 0.8604795320690161 5.8017853386592995 4.7041004597368765
S 4.659852854931461 3.7444706065010345 6.128641604076707
S 0.5287741696573167 5.61711908833897 2.665446860099776
S 2.704352509409548 6.606038103407779 5.195473011406317
S 8.564193031251508 2.4088298800545838 9.322720715896828
S 4.924701822938995 10.575112776476608 4.661704515008027
S 3.129335080733804 9.747726479463656 4.032346496078788
S 3.353167544064393 2.017881884444723 6.171428182148326
S 2.680543331604192 2.5407292206425387 11.191362605512444
S 6.006090961530198 1.575069867054979 11.282078624404752
S 7.35054429008516 8.39007946311184 5.430179285260511
S 5.16325947438778 4.395444104234276 2.384409685152969
S 5.244839489920213 4.038167131929706 9.368427381532308
S 6.498077290861104 4.583001472863011 0.800917296796835
S 4.100361267709638 4.733498118482137 7.837467553329013
S 5.14099160575299 8.109141004161406 0.908009153390718
S 7.274557723807903 0.756751601449231 10.000765043573196
S 8.342290827420483 4.0034579574148035 1.510589823459224
S 9.263140348563823 1.950787255605169 7.588217727259844
S 0.7708760557254396 3.6153334751390753 2.160346552833376
S 4.278885195630181 0.5178952718132624 5.388933296380563
S 6.593261331787998 9.60774371461702 3.9259862666444088
