31
Energy = -123.05034062 eV
S 4.3644163988532005 5.651981520314158 1.4113775788205594
S 5.314338625731883 4.792434327744407 3.0789115127489337
S 3.0623881803790143 3.2610808148537123 8.0554531171309
S 1.304470566432003 2.4951932480073427 8.132046640033959
S 7.016481963676214 9.35464530070926 3.023210389179702
S 5.04393636396158 10.819693374650765 6.2211768546729616
S 10.220725985211985 6.937983994051076 9.303001624990767
S 8.141086022298401 6.047462554504545 5.4706906050518835
S 1.201556534622021 1.4469927052861937 1.9944860708717873
S 4.873606861537225 2.832281596297157 3.057169282815139
S 3.4588803515807287 10.658710990559898 5.161420800889423
S 5.602932152554224 8.306140757033665 4.229290102533934
S 8.816711197398497 8.215424784030194 9.095176211865459
S 4.006378957633831 6.40993265454661 7.046162017629555
S 9.706355801168176 7.375560804727777 6.0579346926898365
S 6.590259403466868 1.7297419795946989 6.782826465486217
S 4.045983021731011 2.6378469405888025 9.977508149553243
S 10.979691985443399 6.391981108474843 7.202513312169909
S 6.956119375459126 2.7151053626654574E-4 6.013151329130922
S 5.8970801332940095 6.823435893478415 7.879303150656813
S 6.4972472289128325 7.868721005289088 0.07267512317183251
S 7.007981361696617 1.5869256241878011 8.910718135839607
S 7.8187953357499005 8.050801112418856 1.6860872850263129
S 7.207318593527291 5.390595193285347 7.163318704054713
S 1.895137701107574 4.155096661937675 3.8731256863838874
S 5.875066779624921 5.910016709968491 0.030537083491607695
S 2.8714402786402187 5.512581322121914 8.427867535624998
S 0.6122353070375878 3.2553626550234633 2.1499977530863013
S 5.983568022383478 3.1671012953115953 9.721280560724324
S 3.796445983006712 8.919744371910944 3.7053166043227437
S 3.0811689039056986 2.6774996639385455 4.330214331512264
