31
Energy = -124.47291451 eV
S 7.3187782201769105 0.6967335019323776 3.5978941631124868
S 3.5599299039201244 0.8183824720279205 3.7629943790346956
S 6.199921442308323 9.154179594671222 7.658363877509562
S 1.8288692410880936 7.544654253994376 8.507323142000583
S 4.361426087077914 6.483526034809405 2.544818871664833
S 3.3457633490505847 2.7182376306002416 3.5576325229743846
S 4.312443213492315 9.95369593502462 8.112990161124857
S 2.8222894884703926 8.870168520766814 7.234587993798949
S 2.1276256713282526 5.636812073832866 7.777491791408251
S 1.020993178045441 6.428868655567778 2.9929785049452646
S 5.954271211847715 3.401885392318856 7.339238551628003
S 5.297394894814509 4.803925677921418 8.708029363228018
S 8.782386951482827 6.210785457072238 9.393924123534022
S 7.267520155088123 9.104515260751926 9.431619566166493
S 5.876885034551946 4.213539660190292 5.442716205293433
S 7.464624874461929 5.4993424291489985 5.12171155302249
S 6.630842826320628 9.95369593502462 1.8549885394155752
S 9.172973604570927 1.5648062408090555 3.228479308631824
S 2.7656617017752962 7.200183494654032 3.733536594169193
S 4.564083099100285 7.6386295579080405 0.9429828182611275
S 8.877932125310242 4.4526633860279 10.17695644414815
S 5.874634185334617 9.328749843466463 1.717758790829587
S 0.6551064002235494 4.593307027704382 3.9284408010426333
S 7.173419268401328 7.307341328218537 10.372517832870692
S 9.210944053778544 4.451827589522422 4.841880947448672
S 9.134267272908918 3.598997802644639 2.94244304036565
S 6.121646339773287 9.058330626619624 3.596924421207812
S 4.594771955865835 2.6417733158888916 1.0836394372205975
S 3.2855889493016366 4.537080476658702 9.087015530854773
S 1.3428660175272222 3.107848163053892 2.743084981719999
S 4.684693602465286 0.7354095455653891 1.293114564960663
