32
Energy = -126.17642096 eV
S 3.781832492446319 6.989338212964813 9.453340041070362
S 2.842832354425228 2.544621770616492 5.66386010362042
S 6.367509676035441 4.4472915594192175 10.086615290082651
S 6.548962018207838 8.174003656427372 5.132230372918776
S 0.9876172301921112 4.9278700905391135 3.0410985693287986
S 9.407657765952962 6.82208446003845 5.638781220209199
S 5.633483499470226 7.6604563949489455 9.296435831694293
S 3.206439376893502 4.585104331095078 0.589704911183061
S 3.1928778869892653 6.6664196139689995 10.086615290082655
S 2.9856406950107512 7.910135912358298 1.2859031965637726
S 5.0531683561552425 3.293719734208799 8.183427772869235
S 8.726729945838443 3.182351871696855 4.572392651552806
S 5.1406032852786145 0.7277626951705998 4.29098689404144
S 8.680913104248663 1.5238459157889013 5.75565501412775
S 1.014171818209799 1.6195025813835204 5.297006860835693
S 7.7461477251243185 8.926093110369232 2.070989949669281
S 6.605881366245219 7.588040843188702 2.8062121005673855
S 0.8431657619808202 6.909955787283487 3.5363599222927435
S 5.601355313483778 0.6649188516100666 2.4308234041850634
S 6.329552628667583 1.442611375582442 8.139551317501278
S 9.836308146056476 8.659687639709523 5.361265062633555
S 1.170431361874085 3.0376304089707302 6.813717416829492
S 3.0598484839027527 4.704227434854198 2.5597589879421347
S 1.1369287239151145 6.492326125827213 7.476543146051076
S 6.803096939356683 2.503836624096589 1.9240622178553424
S 6.85267754632439 3.503290665952725 3.647791579417073
S 2.9341756982701117 7.193895631991487 7.424349124146023
S 5.5507275727277685 4.541370678562704 6.824215446493948
S 0.9064938861891525 7.9850450710660095 1.7898017948706424
S 7.7183997751081455 9.698575657123547 5.107606520795639
S 8.20257180523069 2.0384275885422323 7.7360367023163175
S 6.976425048762322 5.879158260221032 8.957856548291689
