32
Energy = -127.32076192 eV
S 10.437327733262688 6.332372616909303 7.057102952225854
S 10.054054783330564 7.401658645539636 5.873829296192763
S 8.582006760768888 8.794203089448327 5.3131279522790695
S 5.901880054754631 2.091335284397724 9.228403466500325
S 2.7791441014126375 8.093457150265214 3.2436953690068897
S 8.292907567043148 9.119562209789391 2.0191017057630964
S 2.7416964965684754 4.415434902679305 3.331987936076315
S 7.596300570581233 5.345224738493709 7.0844728450028835
S 3.7882595020569183 2.2885695686125778 6.366722513980604
S 4.427946993740064 0.5611365692766405 2.272232927693896
S 3.26271329949385 0.2749903167783326 5.427988749015875
S 4.892041545955317 8.700290172167676 9.504178691780762
S 8.120073650469745 2.4263280636559865 8.711981378695668
S 8.43275212445319 4.389089609004687 8.846803503214586
S 4.6316297432543045 7.984546907198391 7.315478058724021
S 1.3444714917059477 7.656656311279969 7.154030610559261
S 3.422571880229711 3.7715795186373846 1.5887649817688634
S 5.200784431814195 0.019630370543748707 3.9957579048962693
S 6.783657604575343 10.505591274247124 1.581207661654754
S 3.269781303322004 6.591391293716215 7.509574763076952
S 10.031579680168536 5.754816999077124 4.748579866537904
S 5.086901630749873 2.5386444761783054 1.848432516110429
S 5.683069060392868 2.2511054274332163 6.906525386943743
S 4.261319379737442 6.128111181155732 3.829461556755932
S 5.178580179899695 10.246745142918016 2.771848306074473
S 3.8802318471512227 8.76703339374639 1.8017827994080045
S 3.742668039173281 7.590084457682464 10.550815523722761
S 5.599691525330248 0.3523862925699507 9.961996647673566
S 8.269418772044967 4.575408864079973 5.401454582080345
S 9.282474518418208 9.839613533658786 3.679029695258943
S 1.8623173266266635 0.6973233389877859 4.194479758640606
S 5.508714007487888 6.239560125822667 2.4005846742972956
