32
Energy = -127.98015186 eV
S 8.606000908795036 4.628012246647037 8.437670404640258
S 7.641067818688015 2.1692740894212093 6.223458799078631
S 4.252695095980899 2.7039345100961367 3.0231860698252024
S 4.629278600054898 9.151376826207017 4.499948799077697
S 10.125910290052357 4.730917910559 1.756221145713521
S 6.111958745440797 10.72330417561863 5.308320242690803
S 4.263371377627962 8.174899939176843 9.281991289776032
S 5.6253028925628925 4.069018970819201 2.418846220483574
S 2.2869293122171164 9.765484389801296 6.7582826562593
S 8.017266351685413 7.153767540727329 4.897271448197795
S 1.390012327916848 4.0545169400167875 1.9248510468221984
S 7.45340331853841 0.481683829722619 7.420551990506383
S 2.9013219816885862 10.071666456942001 4.762222897025634
S 7.074278705044122 3.8532212031764725 7.271163531976177
S 10.69062102313547 6.002747319246686 3.258149032829156
S 7.2566252394020765 3.0702879316314933 1.5160876824389231
S 5.074863258555773 6.510004518983729 8.781931945512403
S 8.917308674482793 7.504406803109403 6.72956240439746
S 3.4205653034281336 4.949301673798468 8.647734266967495
S 5.078358723577151 12.15333787574903 6.058473375196408
S 9.870909968362742 5.747967496959178 7.23525168302234
S 5.473283110597949 0.22371718094758408 7.926313433249956
S 3.153734285513434 1.11829198071857 5.765526291017654
S 4.025211908139195 2.827081203018473 5.161425942558555
S 0.7031900190478112 8.457676486447996 6.741526184823169
S 3.1974758031351893 6.14323028906753 3.7081827871142963
S 9.408120531705686 7.6200982814592075 3.430031367887255
S 1.2555721812708722 6.497981996804592 6.719352216587598
S 4.487643668986038 12.15333787574903 6.225088047191227
S 9.010961540227518 3.127704198042505 2.559040440996357
S 2.2858773257737948 5.748626641382296 2.0365020328699748
S 1.722138358968298 5.956517038860689 8.75547195210762
