32
Energy = -125.27018704 eV
S 10.397117600497037 2.3663959663028526 7.926955913021601
S 11.336465399398884 4.114939072163565 6.68576967111891
S 7.235788322105465 1.8110660411395247 2.5400972301245344
S 7.175599022641298 11.55885559329041 3.5050935075263605
S 8.550586872916906 2.368487443510016 7.43928307506448
S 9.769451772030992 4.840546994238854 5.779296811158013
S 5.333813552807543 2.1748981735460955 2.507959402974851
S 5.257871276738873 11.379948459744817 3.7087958993907133
S 8.933169613081171 6.232580058624563 7.3053196706068375
S 4.5943568508228125 1.520676236238046 4.685279852982124
S 7.616838446182208 6.749860111317192 1.0512110009000344
S 5.685696667347034 5.43789174058923 6.976474551300013
S 9.462995468363246 7.74972763702562 1.8622725535191698
S 7.25274510764441 6.942306056677477 6.568317783622546
S 6.378491739710349 6.738216485116094 2.6106940364510485
S 9.115827913013113 8.264186870110342 3.6719153279527474
S 7.962960327962865 10.586010656142365 7.428700189525802
S 2.6820586678035045 1.5548278185141446 4.682488165853403
S 6.111656889705279 10.67232605411533 7.845741969634158
S 4.407414833028322 5.705016150409437 5.486753770322597
S 4.221476076643319 9.293942153809327 11.651491742403103
S 3.0401994040821623 7.209050190103419 6.318299697175576
S 5.439048318479124 8.605234430368489 2.769985794773504
S 4.9442048845324065 7.01740293989531 10.497191609693381
S 3.76648079490561 5.490340639072358 10.40264407019827
S 3.7939771332872803 8.479723012780626 1.445259720057864
S 1.7843678029492 6.274482590916213 10.03068149564422
S 0.3408087172478497 5.814104858880639 4.844706158907131
S 1.6663461582511894 7.520841352072892 4.914365405721405
S 0.6936220648385377 4.123141115868163 7.620660473153638
S 0.6121252930870754 4.658376884851051 9.59534672881739
S 11.336465399398886 5.504600071817829 6.59902346383064
