32
Energy = -127.06931779 eV
S 1.998243401971845 2.8226414758986205 3.043067363965217
S 2.6123894558042093 7.532164830863385 3.226891940276689
S 2.27431008264068 3.6595088790447106 4.860880260556303
S 8.34562459252553 5.682701467751963 1.9837307652488063
S 11.16380463695697 4.6560096793614365 6.515894479961567
S 5.550237576551057 6.174709562998973 3.778280723949495
S 6.792683110401165 6.890227909207132 10.324169415445944
S 6.657903313216571 1.7224091992703776 6.437796811620869
S 4.484397667265427 0.7231843571749423 2.363159619188228
S 4.946267534221032 4.81744334870966 10.338263565714286
S 4.387245034097671 1.8331899913760852 9.040622140975202
S 4.610987805630848 2.1577824164885704 7.167779061554436
S 1.3753584268581955 6.884131454314809 7.945307840075832
S 10.611491141280137 6.345646745105247 7.481290764397932
S 9.127223500695314 6.83083762287336 7.714517821395815
S 1.2772199014843326 5.65377783794187 4.841004541974734
S 3.3476139804814835 5.226967777505322 0.19358617722511814
S 8.78433654504947 6.938275405585975 9.71698729352385
S 6.357443249547463 0.7772457657723717 3.2149206448391614
S 2.055136869649561 7.254252088094734 6.042859568646425
S 9.059085517034758 8.806243178872448 6.944071399849224
S 6.351387163814989 0.14367136820387827 5.206608453033367
S 3.801108669493785 2.652858128453554 1.951298964202713
S 9.290912563143838 8.419439050546183 3.666852778517585
S 7.951049327721447 8.676828436527236 5.236587705340595
S 4.17427180708436 6.892154201912373 2.203537342613397
S 4.972981653329254 4.614754127551067 7.161232524372061
S 6.749605631179518 4.77243635054477 2.993646496724328
S 4.504491315873833 4.897619602127027 9.03811591965956
S 9.662898557799666 6.404663798419122 3.3885302338066214
S 6.177519703270043 4.921386231140807 10.338263565714286
S 5.993725438031134 3.271154695560523 10.935306264759827
