32
Energy = -125.9380661 eV
S 11.686401273824714 4.913071247458591 6.56360650802046
S 9.927924816718562 6.009358420897954 6.85738996275223
S 11.421389226515881 2.9952001551288467 6.847524647889977
S 10.718801866832498 2.558564311871604 4.466240004646171
S 10.067314557913349 6.472440291764531 8.966033631594168
S 10.616027209230007 4.360279224048971 3.8336035400938115
S 9.164982613724563 8.14838788409484 9.279302444705948
S 6.5643464813044625 6.8019072015407405 3.8029036273821344
S 6.950940285104655 4.967735478813955 6.092635665910962
S 8.860665042782236 1.7473793160847473 5.373866883795854
S 7.947107872596569 0.694435158954782 3.900737739513688
S 7.602142093147115 4.484518516848668 1.667132748700974
S 4.642161360847851 7.607661489348499 7.530600804208693
S 5.15022390563421 11.307188623590344 4.235119666443284
S 5.979125713242399 5.763122346209846 2.2626853071635273
S 6.607487710787095 4.040736649568381 7.9445182255475
S 6.315555551293573 1.7822419614907559 3.207117790015506
S 6.740961410866329 2.660320326489877 1.3762610744976438
S 0.8651451277536795 9.146973370395814 6.042139372837904
S 2.794996409159469 7.652919144035923 8.681409447185068
S 5.120482874603453 4.043964139364956 6.48233868546998
S 1.9746229251624878 4.160515148771641 4.5381617870260405
S 2.478638247224595 6.099943660490999 4.784719429176905
S 4.301822524254035 9.71929777015547 4.902967389193723
S 4.901884305394682 9.519885175700974 7.08043279135452
S 2.815030764943467 5.901604047034064 9.704981965890493
S 1.688894255678202 3.1655891857610925 7.790809758211784
S 1.878119558549425 10.261443986317841 4.876226463517356
S 0.905776051638547 7.286457013230302 3.8089274447009083
S 0.6595475370582798 3.5617349721561844 6.049397690824679
S 1.2283745962982457 4.672569608130843 9.141380114630524
S 1.8018135973330076 8.683945629368464 2.815919270206914
