32
Energy = -126.53876122 eV
S 8.211060931525203 1.3076674802585424 1.758203576015379
S 5.2234527356237574 11.668146740995287 6.975841817188925
S 9.193296537553694 2.642924381378364 3.0049460916234505
S 3.1229448589385824 0.22193570408802243 7.720028817076282
S 8.428081989138114 2.1701609449147146 12.794750011364453
S 3.0697260537297653 1.2404463109648622 6.083272324785509
S 7.889114223982729 4.2552360452532945 3.081063262529671
S 7.123287283591332 3.7822775739475554 12.865086988798035
S 5.534988975960591 12.391322081178094 5.201361514101826
S 6.595726327283201 11.863915260668456 8.33833652798961
S 8.099468950060382 5.120232688777086 1.2093070731673419
S 4.527165647079754 2.8336909203990372 6.425949133385458
S 4.470299485915258 4.074143492768441 4.873965930999978
S 7.826946105216652 4.655707244088816 7.140564586833072
S 3.0685512956090424 5.654433676305711 5.474439324287302
S 7.142053434987033 6.313771932438476 7.858001920436739
S 9.959389076622381 7.921208988707115 6.8076289472299845
S 4.95811951956441 7.240490560046836 3.1958766919619443
S 1.9299665134272639 6.0539219325787474 3.9144036853489923
S 9.528803009986692 9.742331173714378 5.901992280052196
S 3.048301037063288 7.6174464093688465 2.767615935432794
S 5.465951978488892 8.23578673319223 4.99616097926602
S 1.7168682818764687 9.87099349939615 6.357828754220101
S 8.469153627183314 9.464913848917694 4.158573465820849
S 8.742730679077884 7.649894736506898 8.423266281827198
S 6.474583269489099 9.946282693926294 4.487126930829284
S 2.7998316136916226 9.930402658974593 9.5135075576607
S 2.1095166338742644 8.59197571244764 8.173643918898021
S 2.268413206695053 11.668146740995288 6.719111961212308
S 4.181050874527982 7.575931185220597 11.430411507601983
S 4.792016693489547 10.152001497548914 9.28776805452669
S 5.623747201976694 8.551187750196851 10.636928965812244
