32
Energy = -126.21172125 eV
S 1.8968964820075314 4.591682033461555 7.716582952398108
S 4.364866013148669 3.526205413628376 10.756528805798663
S 8.984336571403045 5.724340831701558 5.6632194108315375
S 3.5201223258248135 2.219572587195873 0.9954177369696882
S 5.076729054029803 10.053967168232097 4.305733318552588
S 4.053473165382458 5.804379050701651 3.6671269013419283
S 3.5605087628212915 2.951178016775366 4.164268825836507
S 4.785556183931639 3.2497559590108285 5.891030445167802
S 5.5007373587189505 9.258940690897779 6.075216753693405
S 3.1210903843192064 5.315391306143218 0.12314833636442082
S 5.9874952706399105 8.92408858223769 2.7858488514102526
S 2.8396298510229983 7.548284070088233 4.781513221105936
S 4.6780322529917004 6.229157037480588 9.940760469234954
S 9.268445934735865 9.1353352019683 3.387519167205649
S 1.874261622084918 2.70154805375531 8.053661571400882
S 5.448606486625208 5.468063051132664 4.961971143152477
S 8.29498567549715 6.363467933793068 7.408406963509713
S 7.776631468056658 9.880005063684564 2.296205665063977
S 1.9683611252069533 1.9436789089719297 4.580092782234365
S 4.969034443000322 0.9520023579671787 8.492533345769164
S 11.159182094682242 6.427672935617707 5.738796166276441
S 2.846381047017448 3.4498096277672086 10.756528805798663
S 2.5738824493921064 5.21409690964183 10.11184980460448
S 5.87349586679312 4.832903698256389 10.662515574960258
S 9.77048169968228 7.222507010684061 2.2810298449451363
S 6.882739956707589 3.824394738796581 9.087669696782731
S 8.439261366874435 6.956556454407467 0.9305379335653596
S 3.843146763381189 7.715686385732737 6.416901059170776
S 3.7366913415497507 1.5088725491919495 7.1298889689689435
S 8.631390420291373 4.857419809106179 8.866462436075922
S 11.434319137791354 7.232253000683238 7.4518650109507405
S 1.7455252919009319 4.771208181746273 1.331494034526089
