32
Energy = -124.64141362 eV
S 1.6177582145115608 7.590513604365248 7.999086298030785
S 9.652298584842823 4.488415973079939 1.2311692226779924
S 9.389754999836708 7.320215693067023 4.608166335528477
S 6.769102771829967 0.721244622003251 8.02070157383214
S 3.398193579869765 8.23149422709609 6.74866738353393
S 0.7598921084173065 3.205069382129544 2.558354940396762
S 2.6185577949966716 3.1164811774531995 7.084659703841005
S 7.180578656990107 8.515745057169989 2.340101696768944
S 7.526748676116463 8.177873013607883 4.348287603893249
S 4.305773414186111 6.818937467769997 5.8418714106066245
S 1.137998085029002 4.27871964845409 7.956232127786336
S 6.285602585098536 2.215677152025858 11.131288868718213
S 4.8705848726401815 8.791523827532938 8.543735557215271
S 1.3760739776343687 2.3403979701766935 4.167901307917948
S 7.1791032417515295 4.715472031847936 7.51231883989938
S 6.4186874924794255 6.829560697007854 1.4280043470352926
S 2.85195042485712 3.6170148990679123 5.12672535687003
S 8.079627906920281 3.1349204745971075 1.160164602868609
S 8.523909488677942 4.299060525361739 11.131288868718213
S 9.091700599649657 5.268367315852238 4.770921168008389
S 5.294161248201218 0.35581660134062815 4.351647536701067
S 5.039848413918548 0.15856367831903362 2.4788946924172772
S 2.0448818546901566 5.878651608747483 8.946782122273474
S 6.570717900546797 8.048465055845186 7.893315694521484
S 3.210109378585866 7.790387275809982 1.094194721501225
S 4.862077348892191 3.0143891148422104 9.811202238642867
S 2.13972844722625 10.898526150047402 1.6444931571703247
S 9.128078818513542 4.711217259307094 6.752105606854905
S 5.576056634417786 0.9802395235447615 9.483317648403485
S 7.068781985486637 6.211439825864929 8.88750527279411
S 3.09762871087924 9.459044303794578 2.496271495161618
S 4.457910604544807 6.524232655899813 2.0704335387220847
