32
Energy = -127.8244631 eV
S 3.9828606432985953 0.710372677514478 3.8249543687636027
S 9.484649323682868 6.079061724798557 0.27764323199386554
S 10.570714559508186 6.420595197607537 9.54906035562887
S 9.114132554357555 4.1325564046632355 0.8809248588179701
S 4.547389240030103 8.260968992094988 5.701066339078846
S 1.9527489202773285 7.386228603048363 9.532328431477021
S 7.942895470338979 7.143230472344677 1.1723171259929681
S 7.159130347429405 0.6357338698783449 3.9601918470436352
S 1.5855344341518867 4.776449003305153 7.34636036692138
S 5.94223064187899 5.300356202496565 9.03744210014901
S 7.9506416410653955 8.265502111055218 8.780287285918105
S 5.141342265014034 6.828735358787298 10.192465396334045
S 5.148207381766658 10.28829447650306 5.869900272562245
S 3.2365178185114893 6.430994475930827 10.85628217412477
S 6.686508266770946 1.348426316332944 5.666562946145571
S 7.65685822716254 11.383486794521547 7.725765518705406
S 12.127019500210102 7.269407764259544 10.330464496874784
S 5.216953575508802 5.387072076781978 7.095760223463109
S 3.9398529936059625 2.6195606622438135 2.492153032958655
S 8.151862351150717 10.42956150057527 6.155158320870098
S 0.6727469927026727 5.955808802312 8.692146268307587
S 3.8099138253574556 4.10763077349723 3.739621240279971
S 4.310578013121699 1.3694674270155192 5.605821667203134
S 8.116672549607877 5.207508336245015 3.775177566418211
S 1.5542218432340018 5.851140741149712 5.438435156960232
S 9.661197325878707 4.151294506572017 2.881071068691893
S 5.18175710535053 11.099625088426311 7.6545461534133645
S 8.145180382736521 10.088662488030977 9.556790212926337
S 1.6266384538347052 4.431261239204718 4.063252612363374
S 6.0730634357073106 6.858131531434533 5.940845349394805
S 8.487026113575492 7.161575069752358 3.169726319079711
S 9.753018515993396 7.61556762184615 7.9781191366036905
