32
Energy = -126.90939909 eV
S 9.124221234582363 6.993507419757165 5.54607858792531
S 10.752775694099476 0.7741036471058486 2.2248509331056896
S 4.103587350294294 10.622644644718035 8.539221501642794
S 8.493772701036567 8.917634531567256 5.056155906175808
S 6.0905484168249275 5.460217729411494 10.42779257525186
S 5.870914448552229 2.1271373198239156 5.715587902121791
S 2.374704025593483 2.351964286552149 5.547085861257988
S 2.708563232641263 7.638327229769634 8.683697154036462
S 10.884421917307641 2.6786781965708806 6.8539112686054
S 4.436671656012 3.5602551949924854 0.5900984680217402
S 1.1820579917376175 5.451504514029 5.142290926943363
S 0.35119337181271143 1.3720126983144287 5.980923123345005
S 10.636272645209065 2.6613644807639925 1.8481662321652095
S 3.406714711119066 1.9357019104507514 0.7034447601395882
S 2.1931278320794774 4.104504653558815 6.451177189770083
S 8.905509015208226 3.414683538741385 2.9482360230669378
S 4.045134700712748 5.166482821522432 10.540329429723583
S 7.634585083031832 3.562240289811421 8.153174084321408
S 2.4091180471913716 6.988743361009137 4.620049826112699
S 6.458590109899189 3.826876986043445 5.0512117484542545
S 3.188645390949204 7.034754195770084 10.625279334127944
S 6.602128766940738 5.369096067585312 8.429981672011332
S 4.319238211375637 8.56409351005929 7.873763597605787
S 6.462542381559613 8.937680054827368 4.743591908379833
S 10.232314164836174 6.335706045937092 3.9485318938338643
S 8.983000559201395 5.402614690735792 2.552359011516906
S 3.2397058897501205 6.672195403269918 2.7190430864443376
S 6.075931465787496 8.36061890592028 2.7861860463969443
S 5.279388364337898 6.451674129757537 2.8931032685049236
S 4.294519960809022 4.629557926982982 10.625279334127942
S 5.600119472045928 11.603884962391636 7.818346974608497
S 6.3793194290406285 2.0363019193026584 7.907600765501623
