32
Energy = -126.14178031 eV
S 8.067457452084504 3.879768877698482 2.1969776192989916
S 5.195048639392505 9.933688723044648 3.3677060893261164
S 4.60357778957355 0.26249009448743504 4.887934341437777
S 8.353580048347762 6.212865320005974 5.314421151869297
S 4.034761287024301 7.11166939445328 5.866312614447925
S 6.688090316206404 3.3597561855595055 7.384447485350009
S 4.149115192729142 0.0869873265246531 2.784937218253246
S 1.1264485350547973 4.579156413943306 5.11644867769468
S 4.21640543128449 2.14058232124099 5.52416685579672
S 2.609572936415221 4.334361938048011 8.14720190433167
S 9.622853638876567 6.607960375316319 6.904284348270681
S 8.431370745322903 0.9620376568344156 5.744244497615134
S 3.9511995441056236 2.9334215188181276 1.0720772846534696
S 8.246655093478996 1.7211162816147134 7.489788881043098
S 4.814112331228933 4.644166303493782 2.189959890375223
S 9.17665316835032 7.3232668056678065 3.7639603093204936
S 3.7058732057565273 8.383333940126223 7.472525144966955
S 6.669477671583402 4.89787440409643 1.294096832610595
S 9.143247035847217 8.559527250307607 7.418056673871693
S 6.020951347816825 3.2727859064924893 5.512350813334074
S 8.5802739109942 7.460941213032964 10.892549117386759
S 8.70310527096163 9.274341317783854 4.281757726777202
S 0.839314655304376 4.095628735899609 7.116761409993954
S 1.9994355471219853 7.64700952873935 8.385623819862156
S 9.974610298007098 9.666728516583357 5.872810321772602
S 4.602739745749069 11.243892478388236 2.1226083157175135
S 2.3858542132858345 5.94370843413321 9.461452333956128
S 2.3656331857599326 2.402723498644227 1.9999871987678657
S 2.7018853979812736 7.451788403477378 4.347098403003436
S 6.810715486412453 7.372680791618369 11.582807121401288
S 5.46569365656891 0.9990732999317052 1.6692994824835203
S 0.8561909816449684 6.605779454071362 4.848782736852207
