32
Energy = -127.79897747 eV
S 8.199339888050638 12.179173194051929 4.9262655632337085
S 10.137595920494752 12.069783017333526 7.656509462690284
S 6.37761135766538 10.66787521539899 2.5532590980094683
S 8.196360130595098 12.246986502969543 6.918699551533471
S 7.697494960911398 9.951537440310105 4.446049406267261
S 4.585576070920751 10.479335386950547 3.3464140748350126
S 10.410066457093215 10.009397706748937 8.140778513452142
S 9.651129714733736 6.2289243991256384 3.3923517998680914
S 4.646762446341991 8.79451284215327 10.359138801313229
S 6.438764464971911 9.347648587503508 5.739067104153122
S 3.5673128977290594 8.780453610282377 2.5549555555582
S 10.175645184848676 4.513356781406395 2.4863922188401295
S 10.423232919657506 9.760228307417458 10.062531440311178
S 4.262102568093061 7.801591589165474 8.507001713679932
S 6.478551195959236 5.747490379569375 4.298066327743523
S 3.4875227143463494 7.26147632596421 3.9166489649226444
S 9.908218238468628 2.9843908649008073 4.128715842040434
S 4.7189787388792785 5.67066514410907 3.3082656802522656
S 6.64337830626166 9.013234977053232 10.587667893368025
S 7.736343712835011 6.770919592522377 2.8981903995558165
S 9.30782269184764 3.8548863163859814 5.721122378031968
S 2.6723624600638463 6.597304315961733 8.924105647133771
S 8.758267646901231 6.4701464753185585 10.218612291839372
S 7.482227201688496 7.36574765354767 11.576961837677263
S 4.96069726286213 2.9818379363438794 7.372829921606879
S 7.803153350507643 5.044463336149328 9.117559692129305
S 3.228383747868549 4.74972811603976 9.687678226456132
S 5.828316957879772 1.3469144023953068 8.602918953564476
S 7.931425826688302 3.2393173501590327 10.289828847537988
S 3.127964372397905 3.3575556357626395 8.12735998132703
S 7.64228072926955 1.2936623368619848 8.002660010128722
S 6.124430490893808 2.667598938696135 10.72961507029196
