33
Energy = -127.78621469 eV
S 2.7854909304124074 5.455157623049333 1.3361423241110344
S 6.1547874866071535 5.687051834520499 10.57043719779704
S 7.529515144958663 3.6383284783060863 6.318806200294648
S 8.487670448414988 3.865002768786188 8.199600004975395
S 2.334845738401478 7.109528218788899 4.219341334270035
S 3.8963851611954667 3.4868942363626156 1.9550400774415855
S 7.680134347657366 5.743000114708555 11.742941711309886
S 3.6435064970667144 6.830334267662461 2.4266233929917242
S 7.905065743115781 5.500078030256642 9.037119988947136
S 3.5483529797866136 3.3716340584171083 5.2556145938845775
S 6.870079804882463 8.281393587858242 4.381597342758394
S 3.256055405021955 4.132366973878617 10.031689910738868
S 2.0753192764619466 2.5870625827194114 4.334893888359454
S 7.995205423538055 1.9766527737159454 5.463358508300627
S 3.902771037650561 2.120448194254924 10.005350856864942
S 2.2640123913187136 9.006500869149434 4.5542824311577474
S 8.152459499857864 7.567035615171276 5.782302660338539
S 10.001949202128294 8.783657047746035 5.472186525313033
S 4.394886683469542 12.284856260185565 3.510695653116845
S 4.183088697107147 8.924477987719172 6.310362110266307
S 0.8637211990474583 1.7310084832745372 8.528446010636001
S 0.6388106980793761 7.237370036317312 8.802951802422138
S 3.0863465341113097 5.374166177949729 10.031689910738866
S 9.69366126196865 10.145525415234456 4.16064703955637
S 6.412940758529602 11.780065102982395 3.6026799669801046
S 5.909758351756987 9.881283229807739 5.107037077419437
S 4.79448597289445 4.188646906280763 11.185584881338702
S 4.411675871848346 7.0349699767190685 6.26114100669624
S 2.6891532684643704 1.0939207419305914 8.560068630125906
S 4.997765098313014 3.995757944529673 3.442191494964669
S 1.4732795829933556 5.514983630877675 8.574237421390627
S 5.407989566012434 12.390158532881227 5.314953218876181
S 4.338543706326007 3.987178230905865 9.242055774044795
