33
Energy = -129.49649228 eV
S 1.9662243261935766 5.727823382373233 7.873232448247711
S 10.770849062451482 6.7897902664458565 9.638843862199689
S 3.0331261354011247 1.1613695750961128 3.869191352250747
S 7.928703712759753 8.092363954274951 4.329537262316728
S 8.105193195003043 2.0470718667028427 0.48249986799963185
S 8.725712098422006 9.952897295430391 5.354545438524065
S 3.3791065203706148 4.439579870104049 8.58679823839284
S 7.261801947228863 6.942192315032775 5.791538175718212
S 8.034531265160032 2.677187126768729 6.013748269274313
S 4.250785335253942 9.504310841253627 9.634658976241244
S 6.6392025011393425 5.139183047484809 0.5588409861851071
S 3.1250487694034788 7.155727738301201 3.070673225242799
S 5.778277889749582 6.440225775283502 9.878631431338373
S 8.579117718069496 3.8394246468220268 11.426936341381953
S 2.2114859040195833 0.5900557270409337 5.614684406309873
S 6.168381526990051 3.3867702505012725 6.07458277810681
S 8.879744508770084 5.855396486106245 6.6816039450475575
S 3.092607208056636 5.625616387661344 1.6715262634514811
S 4.238406325827081 5.108688832427666 10.344162845229953
S 6.877482742997211 7.019895544704174 0.3004134671691641
S 5.315726231376898 8.201592545156336 10.838828846098492
S 0.14612295815294454 5.195798232256566 8.913085327150501
S 8.044562054874957 9.896757359364578 7.185517287807286
S 5.510195415984144 3.4766275316462565 4.013451856027505
S 3.908262958918727 11.428935458625483 6.842639693136214
S 10.770849062451482 6.334517854179262 1.0881102270196659
S 2.800064131392004 7.594429513499384 1.06207923289887
S 9.299884203262913 4.318435567537206 5.442087948638512
S 3.2525893023001755 11.195461898512532 8.640631266605732
S 5.532941956699718 11.043755751462186 9.020048360738498
S 9.992652528375723 4.667644421231602 1.6415829536126203
S 3.515901670836209 3.2325885538447445 4.054224666409833
S 6.068396929174539 10.841926649865556 7.088348055964796
