33
Energy = -131.53061124 eV
S 5.723592899771152 2.479783713733001 6.881336193720465
S 8.35768987689261 6.003063562638622 10.35148838390882
S 6.243481676186877 5.729684239759675 4.091155096921881
S 2.825625690099447 5.122816692628531 1.584638109281018
S 5.268605344269993 11.148600879683135 5.666953513747048
S 8.403837133721968 7.949444028220071 9.973131425695561
S 8.013399839302709 8.017065429794602 7.808466896263773
S 4.525026832327213 9.369278305968185 4.415673786397439
S 7.552391519426552 3.059848238414134 6.720773517218027
S 9.351439328585444 6.050949790701925 5.280034730379339
S 1.5755118791354732 0.9018389572332278 5.996946989039243
S 5.751839048286238 10.510397976638828 7.487412534710606
S 2.915864338029299 4.538832634927021 3.47809386739786
S 3.245509799256724 2.4360974469490633 3.513255390036616
S 6.052798246478896 4.5872614872048 2.3458703230775475
S 10.390758113363722 5.300190023718489 9.826377731260934
S 0.7105451028410424 2.1307542354035127 7.400081342117581
S 2.306403596216634 3.0377026597551566 8.43131530722207
S 4.9356192651704225 9.813802356583416 2.5896102725972256
S 1.322215706883848 6.765467371153642 5.785464098724789
S 7.844161151865093 9.956670579465275 7.391062181680915
S 4.949950002502396 5.584902803730224 1.0280839056219178
S 10.273538826165966 2.636369716499585 4.8972043477329805
S 1.5577698997616876 8.819715003502605 6.1684567066152125
S 10.66722028725974 4.636558156707736 3.8324376801479794
S 8.085399015055822 6.773489416441118 3.9584023928549095
S 2.9114667338142874 5.859533773486044 6.7161657074054295
S 2.284045199371067 9.63113441949181 4.480879992682228
S 1.4505307780513599 1.5989237487480898 4.042806771587713
S 8.333628660947438 2.278698481631098 4.803740430065039
S 10.302705051721 3.391770362780248 9.551799923417844
S 2.1109588308959286 5.059303700284554 8.485988704303535
S 9.71782367349857 4.756863024128996 2.1811035081215904
