33
Energy = -132.15491871 eV
S 0.5845909499836152 5.126076924955613 7.982375365603705
S 5.011411254468302 0.8835699944696892 2.9330226832353974
S 7.147826000106748 1.5360949095805077 8.669244442166015
S 5.228348592777012 7.405218075667316 2.538117173854634
S 6.591153219896028 9.140175888488086 5.939838605262073
S 6.4718137256994375 1.9941971958019713 3.8793728869188095
S 0.6368635842964286 4.912540406798118 5.917928654918679
S 7.187706818508756 7.9231578999667995 9.144840947004095
S 7.570019189712004 4.261709724923372 1.5672379245309265
S 8.821693584320325 5.278839683324489 6.331423235208752
S 1.769009648214058 1.103665950283683 3.4969879049752715
S 4.348090304393707 8.569739595936573 5.603092270125584
S 1.4268702101421622 1.6224706384300998 5.4797737818794845
S 3.3279949901367027 2.088900753232072 2.5955822902154257
S 10.281669806988166 6.012401238593231 4.964534056321823
S 3.1387296806579497 3.163974332908242 9.017004952240237
S 9.17873638097421 6.759366934084383 3.428122797649931
S 6.737114166770022 9.595584988538326 8.149618353608014
S 9.260110245267386 7.63018951612318 8.830845261705589
S 3.5786285246301452 7.919262195714566 1.355484372001267
S 3.0906545770336504 11.2328607399498 1.3695215509235807
S 5.795810038100783 0.19227376646900046 8.824268243975109
S 7.874959074991979 2.372683409323101 2.4152125188016336
S 2.689366068068763 9.596533143843224 2.322125585733382
S 6.767826123336192 10.861506546959186 5.107255478919373
S 4.1532216281487715 6.6273042447732 5.673279633368165
S 9.498382939125104 5.674366695395202 8.21098177577861
S 10.943069852245424 3.025181839787195 5.535098666520207
S 4.339236676274211 2.7349236734554263 7.331676956645902
S 6.189282615829504 3.35704394606999 7.702217160478766
S 2.5009709652891985 5.103774974178678 8.746037393605485
S 4.811922266548777 5.827110137435923 3.674163435547375
S 9.268984717689866 5.373712129443104 1.8599908456807515
