33
Energy = -131.36399311 eV
S 6.848155540514013 1.716461864163641 5.470373019544703
S 8.7016127013888 5.485545761929912 6.558848553175904
S 6.070992800396688 9.500738366151277 2.899367668199231
S 4.3903620330223365 6.447010078344117 0.962405678636518
S 3.3249145238791806 1.0630036834290821 3.6451329407712754
S 5.544877424734663 4.6739331404018545 5.381934655534617
S 3.6915944058509433 2.6350868893909225 8.684887897081486
S 2.1948230052444475 6.924003286042199 8.095192974453898
S 1.7686379786067759 6.315365504099281 6.23329279691403
S 4.308558779573583 10.148963876677618 3.4118913096510233
S 1.795989210460021 2.165127990907362 7.981025856212778
S 5.9785793554008295 9.00360944522786 11.278517463342792
S 1.5948751451483385 2.8276157812827054 6.0426482122869185
S 6.207072710265703 7.450469479977652 3.549545338028966
S 10.183817053200457 7.1916472953562725 2.965740742767099
S 2.878869258077167 7.685452503181194 4.914713008240995
S 9.049731704788753 7.500535178799167 6.098382815754463
S 4.485266643659082 10.339112275698437 4.558224818379585
S 6.793281843322466 5.147134632254388 7.08219795790068
S 9.340492784729856 5.448222045636448 2.8738504234643827
S 2.9569197886741594 5.652765328785685 2.1935368227122174
S 6.048710268011771 10.14896387667762 3.3784260492736045
S 2.016418130704456 7.28143879965746 3.1493501324566675
S 7.741150550402527 0.3839356982955696 4.344220369836761
S 9.196527814059218 8.669065645342938 2.2274231567118985
S 3.9840603526766754 6.026557512365611 8.759828243211984
S 1.6167434689252818 1.2058713365152087 4.683788970147424
S 6.578034892038921 8.160178370394997 9.659219191293761
S 6.608011313568179 3.4789052633457382 4.196071757070458
S 9.348863476415737 8.555852990650342 7.861332190221929
S 6.2692754526526215 6.289457039141679 1.8625205619781546
S 3.529087202550623 4.338377458155013 9.842366838593653
S 7.660680349098775 9.561162542331719 8.371781265032514
