33
Energy = -127.76865805 eV
S 1.0371530552520556 3.0295583619949595 7.454605698247872
S 4.400753196933341 11.377783764429852 5.709802478273572
S 2.971177506697257 7.636607706782777 7.3218423978476785
S 9.213339048993383 6.3743016087975555 5.221610343623765
S 4.867831433894369 2.001714729299602 9.884766429505175
S 3.9531330669323275 10.018976981600545 2.8377060516334804
S 3.3340478519371866 4.983282577840647 3.757028068445883
S 8.204567641221914 10.454343599235147 8.45246696454183
S 9.840646009614158 5.770220916210162 1.2963310187305401
S 4.8921853238718125 7.496971143920985 6.279141141890047
S 5.915069111351612 6.386191597147534 11.708187713014066
S 4.6439709479773645 3.596110148208756 4.1619948511835085
S 4.193968414634437 7.027330171469702 12.202069084375378
S 2.3906594021577807 4.442552414828281 8.01932377066107
S 8.448601634245547 6.939155539261718 0.7398600731129096
S 6.589774725753258 9.992213474342243 7.510508168471662
S 2.792549992591649 0.2767798671202522 6.8349624460787455
S 5.568017352779012 3.7199244430529306 9.349446193919148
S 1.8926969997007617 6.093559245809361 6.699837541969747
S 4.396422865231644 7.927468690942326 2.3909074739546567
S 2.192039777857322 10.63783950615259 2.4570287832192665
S 6.436692278099879 5.760394213052364 0.9381140429710898
S 6.6222427422541985 4.308168004239007 3.947790966349181
S 8.440878815873894 8.517924905709881 2.7252153890088966
S 9.966413257496079 7.716506363655493 3.611423774404031
S 6.299408815711982 7.81679834372208 7.658915450044978
S 6.091484623693499 1.100833149943533 6.490245250312043
S 7.619338404808087 0.4619220643688724 5.508406388814462
S 10.762220784961839 5.691751170726678 6.140581305044744
S 6.992841816369755 4.115797663780041 1.8934529681395509
S 5.172751811636715 9.409804835142873 1.1248244339900972
S 1.7020329455153425 1.866657880432551 5.901815289717862
S 7.27096399283487 3.7477725335514314 8.441420418049923
