33
Energy = -129.07127873 eV
S 7.725432151351794 3.308482026725162 5.1581352903943
S 6.424607651819991 6.338063301921614 0.3015886846245001
S 7.830595614141312 0.9447872830400975 2.8702096294619186
S 10.231866155084981 3.0609331974987124 0.43663444081202435
S 3.2292628756522017 7.461672956204175 4.402974455395956
S 7.875402015373695 7.840767060940905 2.923232173852977
S 2.599894627977457 4.685140264831128 2.648362606454393
S 2.3279623201467263 4.150143760308573 10.258092813024147
S 3.7177157858438243 1.8374935557966645 6.405196969491734
S 7.7624700744343915 5.45651493727574 10.201301705602257
S 7.492880309540308 1.2041835155237632 4.755943035301424
S 4.801085823910887 6.324999639421427 10.417776419437448
S 5.204241140828452 7.102128753966461 8.660651249759566
S 8.457844323625544 9.735715087950172 6.0422427997261945
S 1.0280331762806592 9.611676972539456 5.475958846356134
S 5.634338528522827 4.630786187435149 1.232895991018497
S 2.2725646170516702 10.64216174507509 4.449542713984478
S 1.8478105172599242 2.465219102880162 9.293646895434165
S 6.454467779842521 3.68926617302178 6.739811556712589
S 8.770230063559133 6.169083472870642 2.659819889816039
S 1.8333693516421925 6.526724349698786 3.0800996253001593
S 4.644033367191161 1.0622403554483266 7.87973841058194
S 9.554959987825919 9.051333527300466 7.502129852519962
S 6.181133165357678 7.963912546883831 1.4213763849083576
S 4.455817389724059 4.260766363865063 10.368461013268362
S 3.816742370363946 9.1635766018922 3.5954976882193956
S 7.622606872180887 6.597931713595288 8.671547232205102
S 10.64351102765323 4.541303361674547 10.417776419437446
S 4.596079900637523 3.9153594953944117 6.023689344942677
S 3.6101036559968165 4.564706004756488 0.8372088290122516
S 1.461560331902935 2.9137573849634752 7.1690470759510765
S 8.44747173739605 8.60070994635325 9.191835033650758
S 0.14052095302721815 1.662429490572799 6.548209926335161
