33
Energy = -131.25925636 eV
S 3.490318334015027 6.876920248112625 9.844619197732168
S 4.798160266014313 1.96672957539106 9.80336342607372
S 1.7485053856623065 7.371043468062555 8.680717373297286
S 10.407814956697084 9.204956889643046 4.995338381747026
S 2.3327307597813185 2.9859281479840787 6.270868461140654
S 10.11507763560177 1.5844856723313665 2.0203716772923217
S 5.156678449527024 5.327190240692695 2.29697086965386
S 2.043164047000677 4.449315586194081 3.3027853386431363
S 9.954413856420166 8.422454891549064 6.800747333883945
S 4.4628877941359635 10.580422610872425 4.550917116614026
S 7.46568513046136 0.7259691287334601 3.9516553581159535
S 9.467695961540104 4.519541919744369 3.465936888467759
S 8.753636787839467 9.793782234023453 7.866051716587871
S 3.623100172729937 5.729273885276974 3.6304713834863236
S 5.0758710252801205 1.7243219210846004 7.8038900774492665
S 5.984803183987772 4.392154144289133 11.789631290457034
S 8.867833255243335 8.400429840916381 3.679216915737468
S 8.202635173747753 0.40853285829046204 2.2114408698661485
S 1.8291010867064417 9.662512295169709 6.275413746783333
S 2.43651082189425 2.6360825978696822 4.2465610205778965
S 2.1819347499817807 7.645798790711148 6.709979285762716
S 7.6659990360756645 4.542966619247324 4.431470601861323
S 10.287324816319705 2.5825185274459073 3.733125032961188
S 4.285872816316208 3.3965586202602616 6.847883696515333
S 5.660301621078447 6.213448277756035 7.932413120133502
S 6.238933768761096 3.7734510964978485 3.1283831802483455
S 9.380473519616292 8.867350476356654 1.8803574604704676
S 3.5149644285958987 10.760982045262837 6.497094394244526
S 6.806038280074168 9.41852741359029 7.495646369095594
S 6.4961186366075605 3.2104080135866155 10.350784102056746
S 6.155959937788829 11.497428880632912 4.650729784746971
S 4.6163248808957045 8.390547820812346 10.328645772223002
S 6.529237462601173 7.662322970055452 8.832248414297265
