33
Energy = -131.41003104 eV
S 8.77236638775594 5.160668103945975 8.573139965325312
S 9.653369436019181 7.006909790638179 7.944772175980484
S 8.252945793956515 8.036977586989353 6.812837834854661
S 7.463586644663481 4.236734870783936 2.4052079681713603
S 8.163543438188624 3.4928330530045084 10.99677557590699
S 6.494929579824347 4.359686304074803 10.572122689806875
S 6.572260653895681 5.781535589454984 3.6520402795030282
S 7.345456054998169 2.5030199793645505 3.4212034804766804
S 4.907792894180423 3.4079336002964578 11.58878747177669
S 5.802185974963225 7.2614283898902885 10.533815717090231
S 7.268015877955778 9.338552456187642 7.955069000287916
S 7.926668754407134 4.2253964722252455 7.108219594614096
S 6.649027849790833 7.347631607426721 2.3868563477168205
S 5.553219215856108 5.388594496020394 10.060396045601584
S 5.709056045756867 1.345342108626676 2.7972091109786046
S 5.2454893253430335 8.295918911390324 8.35511521685997
S 4.171741146110457 1.4777241068841345 4.175780052531502
S 4.869976024848338 7.470853934909585 1.2604741436586495
S 5.565611698507681 1.4990163931177243 7.108929649172012
S 4.647299086379051 0.2071838510343985 5.708899841732343
S 5.104475989653786 6.761692479929953 7.2373842857651125
S 4.721715682660143 1.1612144334296064 8.93056485061712
S 3.7584489773434244 8.976710511319311 2.0670397955637725
S 2.51599085591318 5.009161642809676 3.0552164378495883
S 3.2330039959633745 4.289308973600775 11.253740103153051
S 2.2443055382259414 4.565086302919941 5.358721659861002
S 3.5027894462766103 4.9009746786018304 10.572122689806873
S 2.5481675065792624 8.258107226637254 3.66098612149573
S 2.787279709326486 3.994175711281691 8.897681259821349
S 2.8002003971270923 1.9355312905286888 9.11001838448347
S 0.7462471062455787 5.614061648058493 2.5798730242983816
S 0.39666861595200165 4.928512887952536 5.672593765586785
S 0.7185618454924939 7.858107847797943 3.016093014786865
