33
Energy = -129.42465762 eV
S 3.5351399069881007 3.9661402137892487 3.3271327904670756
S 7.855609790326452 7.934014969067487 3.7284618106656313
S 2.8605129563502945 6.973496499933702 9.458421181404919
S 8.030401346009878 6.455473018058522 10.020146669665342
S 2.503731048938055 5.299328904771834 10.525386542659632
S 8.874259525551345 4.3428481122582046 8.90252457395214
S 1.9695952031191353 3.6815481107780315 9.300211351330761
S 7.906243564390887 0.13067159516379773 2.8878583802478675
S 7.599790733796724 7.688447772124997 8.479147304892614
S 7.441635793400753 1.7333931306410024 11.510962643834137
S 6.366891692533018 5.726310571847544 10.820682808739077
S 4.454134138824668 9.08535640037517 1.1136912951787281
S 7.411857622595721 3.159791297406595 9.360139854217577
S 5.717377765306766 10.851328323188902 8.275830308138387
S 9.67982955061327 7.674323588785057 4.236278171887374
S 1.8118462027252449 7.521175333905063 2.4119745129390426
S 4.723357960769183 4.827949682574018 4.759809677923402
S 5.933122958774586 3.4801889174191856 7.778930320027594
S 3.3763919839804415 2.228620275049046 9.620691809127798
S 4.6419364951684825 1.9527371140197844 7.956006109154307
S 6.9404657313358955 3.4488017664481205 10.820682808739075
S 5.73338241122397 9.412757954628097 6.598192773022221
S 4.82707350838479 1.3613229190646878 1.7354284940577414
S 5.995484526268186 10.123186571890335 1.9643727374927558
S 3.8553891417362793 1.8938682371809794 3.4167533762695514
S 6.715109327227119 4.76105013092456 4.109765711857817
S 7.029928420138906 1.673435423112724 2.1675682545769894
S 5.107361354207503 7.381173402052973 9.134426780304702
S 7.03261361898978 6.105281327767434 2.6451168455919776
S 7.737929180121119 9.101281330947897 1.7837576404386155
S 4.363111551141145 10.225804125206523 9.477162971891717
S 4.41941869716403 8.047265064932441 7.170919145495348
S 3.6115147057333004 8.05587029121701 2.8408276833290467
