34
Energy = -135.37461843 eV
S 8.159451125832105 8.672823987269785 4.308163138074078
S 1.755160774703198 2.506003857850107 5.977141104161253
S 4.102309905447732 11.42837749354765 5.27272765432883
S 5.308204796929396 1.366572893185098 9.16124677904297
S 0.6001341570071816 8.237180826721374 6.756556537021629
S 1.9808173714640984 7.36008089408376 5.708827757176176
S 6.838511449021535 1.443086323769409 7.714751155333033
S 10.088720087778013 3.642968977688525 1.538864158017004
S 9.328526554770816 4.787237294091269 0.002981202176448162
S 2.5785374809235817 1.424261498133732 7.468791741653913
S 5.305952875985983 3.76601470274247 0.3080662986206555
S 8.984512621723129 10.801001120795627 4.390120117326128
S 2.42364240091437 5.713613302859479 8.091242836340339
S 10.668570457427593 10.7859389466623 3.484990253370313
S 10.668570457427593 5.452322604992564 8.446836787753108
S 6.139595077846751 6.1351027453718805 9.09966028192604
S 0.9071592024918722 6.672200832205894 8.757852480999698
S 3.8933394567940307 8.18878543455805 6.105081715589611
S 4.130524783955369 9.623288382894229 4.563010837936376
S 4.5251991887768535 2.975598715783459 3.512184370352468
S 6.197663283643602 4.0618919963376925 3.5412761043036074
S 10.823160438907578 4.788828700331859 6.544928953465162
S 8.486297056985029 2.2990158060083763 8.573647108542167
S 9.620555987966666 7.693008524709298 3.3916005570899532
S 3.81926195659784 2.669415423633159 8.734234008143536
S 8.143268242657662 6.317147543534655 0.7419323673887253
S 9.349809178605689 7.881273207164378 1.3045925216894718
S 4.068617146072786 2.714629052659147 1.3208426806659521
S 7.846466405651174 2.7845090192663444 3.859059429494792
S 8.684232288453451 4.300120954225737 7.990560931547057
S 8.179393475848185 5.514218442616194 9.531305312779253
S 5.863139782383658 7.79789248083625 10.037129354068538
S 8.68142345822808 2.2163937037771446 2.0770334530407943
S 11.338268557284199 2.782774858877294 6.456674143852877
