34
Energy = -136.92803627 eV
S 3.0524604536991795 2.003311740866943 2.8542492683937457
S 3.936496895058707 1.7250443237919715 0.8995062716265607
S 10.666955405111391 3.133617567620645 7.138680003556457
S 10.406133193674274 3.4814714515160334 5.104022682896636
S 2.368942275541848 5.574094487345197 9.256804249718115
S 2.1832569086918374 5.385042654634002 5.002074490706074
S 3.085231156068412 3.8406644670481365 10.039906819852748
S 3.9944292706624314 6.9543926584324005 9.39171794871867
S 0.22327467823669261 8.177729931981736 5.345474616166042
S 3.659887718388787 8.355458739562463 7.931322824222676
S 8.336611608373339 7.568891037440387 1.0714124083789762
S 3.4737912284380137 2.362708537383554 8.62192992679579
S 4.809994488187483 3.509861794916241 0.4624576624185398
S 8.196524770188113 5.077820337108586 8.45953109212618
S 6.821876162003676 8.887654669680613 2.180631262730775
S 2.4647531539257654 7.961443031754263 2.982567157686424
S 10.666955405111391 6.6029706159714925 5.478554085182668
S 2.450294203312995 5.9121511361589025 2.94106996289585
S 7.043320134651553 3.287673614637977 4.442309316587813
S 4.657359321305034 8.030808722202464 6.182180950416285
S 7.026857111301611 4.558258030905075 2.8030288417203924
S 7.469421677484337 3.863508144272159 9.947830092976098
S 6.854784088122674 2.100760850145315 9.017919729267254
S 6.553077156072658 8.957504316618026 6.646133005997573
S 0.3142170984260972 4.7774029615317914 5.215020509344334
S 0.5345218466006276 8.584699238279702 3.2655444541535315
S 3.6323720612616057 0.5912759044659944 4.039912734317215
S 8.8530476178055 2.289930867842406 4.450550649742343
S 5.32746146430098 2.6289103414861845 7.746824227805793
S 10.242199285900519 4.833571206837811 8.212977393355866
S 7.913948348191398 9.59993663915273 3.66369575335301
S 6.803354068381736 3.4785529785576754 1.061600278837889
S 9.929421739128824 7.559651199801374 2.1209809481437527
S 7.866073733247498 8.228670394996044 5.323169395259227
