34
Energy = -133.97498754 eV
S 0.15818458060717808 6.642371713556722 2.353724967552312
S 5.436565079917 10.971421713774566 4.852882869717679
S 4.303509193969764 1.0728902228771888 7.828672697917568
S 9.333464110219408 3.0518768008938646 9.515870701668467
S 9.21503122736095 9.07588417487764 7.707915615489624
S 10.662660567904718 4.835720619445746 2.1751689934430405
S 5.605870397367131 10.891174714428189 6.903978063912874
S 5.5993829370639405 4.238031458944399 7.8386119422069696
S 8.786723918518174 4.846841776073137 3.1228921999445873
S 9.056090858397473 4.9637917784951835 9.439591450750989
S 3.0352887740867134 8.293242227793101 1.6564476844036997
S 10.6377716550227 10.108462479661304 6.5750651738808
S 2.3365184199421587 6.498353323247597 1.967857537246248
S 10.020837521365985 10.891174714428185 4.913928765114617
S 5.228602559866034 9.283078172190711 9.561283148700317
S 9.79209526214249 5.7024114273576485 7.497754165970404
S 5.804837594836648 7.4748696912791 10.35349705116728
S 6.465077628023876 2.4735634474469896 3.083301760802777
S 7.3934919478896095 6.316083732152959 1.7577205758356962
S 3.6825443841167878 8.868561715216378 3.8781428850971698
S 7.4262699630301405 8.348487470532474 3.377433678792338
S 0.44696404734789724 3.1870242249894334 5.884913585947629
S 7.509517479286547 10.315114585154296 7.351252524386516
S 5.811207790639293 9.240727002112578 7.550594099449718
S 2.702126484530183 7.641515247694617 4.972305372498672
S 7.346263947815796 4.079510366541237 4.202188032092762
S 5.419916417207672 2.4577042283491997 8.873173498266942
S 7.071134953611158 0.7046828262301655 3.911347940323257
S 2.164155740458966 3.776303921248883 5.322151775799581
S 8.402449940440306 6.9130470176487515 6.806106768181838
S 3.9988339788811302 5.462476400204218 8.311121378542882
S 4.213432009013576 6.1597709175514455 10.243833058708804
S 5.665333739089525 5.703245395521498 2.2412688456820224
S 5.811431929294639 7.80454715493272 4.257028667106784
