34
Energy = -133.94130446 eV
S 11.278926284350858 7.071185425004675 9.626896246629025
S 5.844088727841257 8.601478626373492 2.009911804595443
S 3.2128512701338203 2.6055928868898186 1.7167357005712738
S 8.156933049214022 4.664262293620587 7.439697225918613
S 10.359863334185569 4.309761248960286 7.643719485252983
S 8.228650020320702 3.6526472648169515 9.552949690727509
S 5.761072239945783 0.9817693818063574 3.8014264043004524
S 4.674576647692787 1.466525103429794 5.432057532353451
S 2.6503639197755575 4.884303775403769 11.291117058565218
S 8.895307341638325 6.746606526894674 5.024267078113021
S 7.490394599882154 4.82855043613827 11.019285010159807
S 4.678247122979023 5.005832035740256 0.013797594832425293
S 2.715754046168847 6.419470179326 11.049580890678717
S 6.197143624443141 3.4476101270712727 7.559599031108213
S 4.671196176008306 6.490181458074649 11.291117058565222
S 11.129923937494793 6.566901780390077 5.418445270074043
S 5.0017960466809575 3.4960555098103745 5.931165600972513
S 5.254237530526996 6.88738592453536 3.105104900720337
S 4.271957514642812 9.247465022761025 0.9784744840956338
S 2.0508641725084438 6.7041923529462695 5.9177463193065165
S 11.1683626057106 4.593135895944995 5.774689815587762
S 8.257518738199535 4.89930469869549 5.031508546817752
S 5.47128476973877 4.477712530547874 11.26138765884797
S 2.256610497884952 3.8846338176816415 2.973700629255945
S 7.71141625966087 0.41210378794185987 4.594078441312361
S 1.6883699509816583 7.287420369215943 9.10326768154859
S 4.424224511035794 11.078735703175104 3.8251700000068274
S 3.3343313021012784 10.836322557965044 2.2713137900755793
S 2.441298113248691 5.761130448099244 7.671689296655299
S 9.043138958471523 0.8389584343996304 3.2634278003381625
S 1.8258588110039538 5.582924976683975 1.5806704182082811
S 3.4484132936256886 8.221661129145266 5.616935344771944
S 5.262363911576461 7.384431411057824 5.091595531456606
S 5.095640791815938 3.3161930460022355 1.415556473845835
