34
Energy = -134.61583272 eV
S 7.822595228306012 2.856822716707404 1.2435801643386428
S 5.354952115942008 6.616969683334572 7.551941351507546
S 9.914580063920315 4.216254249950335 3.0286262329107805
S 10.465341928823715 2.3902595712555983 3.0251825227915328
S 7.398025120285574 7.797915670979377 7.2691811670100535
S 4.68617449299522 6.317609631938586 5.717008111367496
S 9.968105449589654 7.680094124245612 5.199962354407227
S 3.69991864757717 8.118515257259176 5.015490885665049
S 6.791861725564453 10.103042598758892 2.1905015402051924
S 6.231881719946257 1.965772908568371 8.684595766630139
S 6.06479342414559 7.397107814490589 10.348388048997213
S 7.682634474778805 8.23362349298528 1.4373895586466436
S 1.1408356772576111 6.098000745522236 7.591337869140529
S 7.319196884832044 8.44197449005179 9.289065656791132
S 5.179720990654756 6.009476839117928 1.8007686585311873
S 7.193241388167076 6.789061166560279 2.650840637186895
S 1.0207114911378117 4.561799140907348 4.4768900802745035
S 0.8703154227741267 8.039315224811336 6.886598207430495
S 2.160643476992188 0.8156130608948001 6.953294271613755
S 8.968854476995071 1.420335456603294 1.7496816033702038
S 2.991399371331199 2.4654196697750574 7.66329195109275
S 9.647010628096906 7.509630152753797 7.188939944658939
S 8.686408011074962 10.825493587045585 4.975984118874186
S 5.022025774592538 2.53371976581182 7.084466613022731
S 10.34194296336496 9.639553595043516 4.6174284455186045
S 6.864060515515319 3.6408526993322363 9.5935953984533
S 4.8631623223626645 7.016851455183565 0.20767259113873288
S 4.684960421108623 2.2369500816849373 11.77363093382354
S 2.5504154301189215 3.07603923282008 4.49625537902967
S 0.12235464732084397 4.85940532979074 6.288827978926141
S 2.7746709248589054 8.833498766847878 6.669026410255407
S 5.504738566738683 3.914788346758869 11.331535966845038
S 6.9515418082910845 9.973753408459906 4.19261096976513
S 1.8110819760122627 1.260824008140948 4.7592444287185565
