34
Energy = -134.70889367 eV
S 9.129693404908569 5.124895493281268 8.955658708424913
S 2.9974549023433066 11.388139777019294 4.97605442278509
S 8.740461014004476 6.414098867479965 5.624393167230728
S 6.840540344544112 2.8354037078845447 9.644056177011642
S 8.30647109975831 9.111872392224239 9.447913396544598
S 8.076483199819533 1.086613993756377 9.311226430838234
S 7.80015697268092 5.959906511603251 2.453508851271956
S 1.6829016263576981 10.321929625763069 3.7617202697789494
S 7.160695725638822 10.634730005441279 6.029733950032749
S 3.660555996043603 4.0535259445443454 3.3363510593815433
S 10.648151542702617 6.172723801990599 6.213222699210052
S 3.2006695813022863 7.234527913179765 6.597658707071365
S 7.385824043318228 4.170056763857411 8.220824290867037
S 5.820810435025529 6.56051951960605 2.609928974557644
S 8.582419940249531 11.360661662771872 3.04303654526591
S 6.6948952307356375 8.059603587847837 9.295784679784742
S 3.873990799581642 12.179053970153637 8.91061279252719
S 4.745586416918951 11.659062408375444 3.949087924256875
S 7.533735395696233 1.5612769372134587 4.148145842307315
S 2.6501510474138406 8.861584652235708 7.883266666958732
S 9.062136893549315 0.7025083475915572 10.929717525103559
S 5.439973865553338 1.678204814323272 4.975016371621121
S 1.697510921312985 7.236476670518636 5.243745631385498
S 4.2984844052031095 2.040652676544865 3.3824868054247816
S 8.271130528626964 4.945469363957486 4.1635578611947235
S 7.446874386822701 1.7853697891890707 2.248778076450279
S 10.602014534211815 4.6048538836882456 7.677540362160604
S 2.330773660017733 8.379380696696023 3.605528900217715
S 2.1954346669316185 11.659062408375448 8.190698662187229
S 3.36238606818581 8.292923548440031 9.713924142445231
S 5.9969322407074985 10.046714248270977 4.541294081474501
S 5.096257013492085 9.309256462825608 10.067009323955446
S 8.974549983709014 11.471445732674697 4.912039969614731
S 4.563170688707503 5.119884787799539 1.8227162278203584
