34
Energy = -134.60395257 eV
S 7.251105569869638 7.973398025000761 10.260822417185658
S 9.139347447062939 6.7102230264016125 2.0717256182806123
S 5.192323515653227 6.581443822737534 2.1097223785803814
S 6.666116990641407 3.7465053965200767 8.016604936775309
S 6.429931167599093 7.225312997315286 6.639850777600639
S 0.932277891565019 8.260291754343154 7.721908469323214
S 10.133483017889331 9.261746547187668 11.190299588996982
S 4.605675350055504 8.22752310088917 2.938168821936387
S 9.750799617566694 7.380145088366952 7.959634304872084
S 3.754768725197641 6.02649824202469 0.5897195162566196
S 3.748702430622559 3.980344488673021 0.6538691577118628
S 9.536903927971707 10.612241237779086 7.654738825462348
S 8.729975995028353 7.606783382405485 6.3654249204719635
S 7.553361852663579 1.4196745239038822 4.330495150922791
S 5.651198481595547 8.841609557256092 7.487045988875525
S 3.4878713726828434 3.2499955630583877 9.310755249126464
S 1.7224590654896752 5.103227479884555 7.128300631193478
S 2.9237810191717055 6.1610570933132465 5.946636296295959
S 2.1825824909846356 8.289266827744047 6.271531640509445
S 10.094035160210913 4.88060680698851 2.8051674901040067
S 8.34346194905867 9.873169925292203 10.874876149428953
S 6.359684592345672 1.136193907695585 5.998301867258186
S 7.261524275620697 3.342694113831057 3.653522829860732
S 2.4408682909189943 5.019581407756069 9.097413944544916
S 7.380072926474047 1.8266919347094053 7.6516364252695235
S 2.3358628853569052 3.335790789147321 1.979040380205159
S 8.885621175077919 4.474971945046226 4.37146471192248
S 5.443543321040802 8.452696911119851 9.592937212254698
S 8.177760472367154 11.210565571352145 9.08138882527585
S 9.970707795935137 7.270541957683551 0.4293491926754426
S 8.580496893597687 9.938160578426562 6.053269393287324
S 3.4577359430384167 3.0292466111944756 3.8235170828447074
S 2.4293329265113406 1.8335100610739477 4.929616408120686
S 5.4761398045784295 3.674020510672525 9.698883026549687
