34
Energy = -134.47366937 eV
S 6.563691923440992 7.083146534359298 9.64220152823905
S 6.709312493845946 3.9487162215257414 7.040607021139095
S 7.651572874005162 0.9976532796164753 4.62355120759708
S 1.6015192570912538 6.962009238936168 6.629855765241941
S 9.134640527776867 5.773658306131809 7.839084788364087
S 3.337966227666669 5.834602369864189 6.8450691979792895
S 8.123054188869217 4.767560999832298 2.4298855439452227
S 3.1573544958968 4.985969556910885 2.429442054600573
S 8.483792968518022 7.422086643369314 9.049226996948802
S 4.007966786792854 11.556432985147834 3.608146673479232
S 2.9843967099500683 8.561994051312844 2.2674700018028346
S 3.862425058125648 4.314997874490729 0.7068820732453175
S 8.175465784122967 6.810013041560575 2.60907129274239
S 5.580327575398828 3.096676112803796 1.0062563543703718
S 9.446801745771236 4.227014215966344 9.002494966484072
S 5.4072617182712746 8.679941344339795 2.4684963283965287
S 1.634366552897533 3.4067819402559363 3.1032120510055448
S 1.6097271029724651 2.0212747701665097 1.7657753452678449
S 4.923584790098746 7.156450773531777 6.6633266561929
S 7.25240901509608 4.194082556998298 0.61274280709551
S 8.547569496596049 1.1343029658899726 7.815613760007611
S 7.386226807492978 3.0220092165210755 8.558639162226882
S 1.2010642422750033 7.22472180947697 4.656422146437854
S 5.414660281438456 10.274639706969447 3.962630038376315
S 3.1948952141635263 0.49074813076080775 2.7147549324910107
S 5.262311458403114 8.159753031749336 8.425118878700742
S 3.675629326525182 1.366533685219248 4.340088931925288
S 6.543941873940216 7.44259252866329 3.7250385970105593
S 1.5714606218412774 6.126660663870448 10.706564941540895
S 9.181828985437749 1.697905014205401 6.045587488036283
S 3.0342990019819136 4.879210986905092 10.618151628790235
S 2.3339768530641964 9.008420023057045 4.071973924303056
S 8.4574910355512 1.1302883829961579 2.8773022930896537
S 4.576901853481103 5.195638469022408 11.729796129777123
