34
Energy = -135.73136028 eV
S 7.474737069426362 9.343760952340686 8.636829500553532
S 5.331915531190468 8.096352262330937 4.82417434595325
S 6.930489468076524 3.3353593895211477 11.019359641751842
S 2.256483025623535 0.7858697847942584 3.9997396945827184
S 1.6257032053701777 1.3220371259514527 5.9016208203251805
S 10.212835180996013 3.8419265585650035 8.389382161044965
S 8.807125249235849 3.7382674535419573 6.746319491901323
S 1.7652708796101504 5.212968815384994 8.466650235787212
S 9.486176167970841 6.821161864272361 9.626250375627006
S 3.5413463621248065 4.747577223128855 7.882140228695343
S 9.153493326992193 4.819475619758851 9.850869133323146
S 4.024861202786183 1.8026674333766912 3.678165217058905
S 8.564167760903581 2.451502989158368 10.505364089158416
S 3.5803418176303206 3.8056973616871845 3.3910691958641066
S 4.248189550098158 2.969302986667158 8.944081398297012
S 7.975197254616307 7.391978839843496 8.237142100530026
S 7.287966380370894 10.870840262286686 3.4700492210958624
S 9.700363841440604 4.159882995954355 5.087770001684151
S 5.588626512703098 5.021838532882438 1.0755820289977254
S 5.8487589258060115 10.503268069720603 2.1625272982463213
S 2.823963387023572 0.3866755132641834 7.284725487316547
S 3.689143844894588 4.217390982763967 1.3748868706869557
S 4.399492154924393 8.722503850581113 2.9251598951731443
S 2.6652419782199246 8.864124664790863 9.657279926064117
S 5.955256492964989 9.531002257810064 9.972867140559249
S 8.83372716826206 9.47394754240531 3.1356029751378736
S 4.580548262104212 6.124803881747595 10.059003400124608
S 2.7988184233099616 6.6115207720539635 10.505364089158416
S 8.624030287357728 8.211398403691968 4.738548203894639
S 2.671057757099295 9.393666467136105 3.4270609451659313
S 4.538228924885178 1.568200309046535 7.512448732869162
S 6.941159610286153 3.5454289091276854 0.7648276574031456
S 4.3132852477203505 8.954885811294428 8.639065889208462
S 6.971035075381717 6.995542327596862 4.345687910756675
