34
Energy = -135.27913299 eV
S 5.410691120227891 5.807180782247156 0.9860233764400891
S 8.470853343209102 7.001723591423616 7.3900653840251795
S 4.7974174089054475 8.84520074534769 4.563388061946675
S 3.123937039101013 8.248292343355919 3.8090588720037846
S 6.9985437481676875 2.8890004351098044 6.918861187197949
S 0.3271551990731603 7.21918830414489 2.8272733974818514
S 8.557984919849849 2.0388985785049574 5.884818414027052
S 5.600485461275123 4.869122560216318 2.8639405373767213
S 8.991646002270667 8.3943062131535 3.2780733928107213
S 2.9889891026844633 4.8800526791127234 8.026534622882982
S 5.3237388987655025 3.6921032184240614 10.818364756312086
S 2.71900528399636 0.9872272215024722 4.121635405697939
S 7.3780507360612235 8.48545264092097 2.176848780368948
S 4.067607444020681 1.365775924149652 7.112727377740441
S 5.914897884390548 7.783861362910004 9.284367322867325
S 7.893341739297432 1.0826916123365886 4.172074060415959
S 7.740990733461995 6.213390087638707 5.579348599990696
S 9.172911108677347 6.454350754126678 4.164248764435147
S 2.976420425701638 5.766722805256801 12.171447784991239
S 5.740632224232938 2.8740965249210926 2.4148253736437155
S 4.103207420408138 0.24971018142689524 5.246185159780369
S 1.0167064874876217 8.292577617374096 1.3739514847017342
S 10.166059009201405 7.120472735297211 0.755969653634307
S 7.751042213448389 2.3457415391110406 2.5518837076005005
S 5.187927922264879 5.305368000091968 11.832633452346553
S 8.410747905005687 7.566503494152482 0.14185350606943148
S 3.9935367588049386 8.128802310223476 8.670715437539906
S 3.2635512278327363 6.775046725702695 7.274046200440295
S 7.316333367708698 8.590120141896023 7.942654993315515
S 2.9034137919916443 9.051555091676308 1.889844075594088
S 5.945768953033137 1.320932414156748 7.853474335442717
S 1.3739789466402377 4.883843104968238 9.319799881010722
S 7.1121612567463925 5.681230525366927 12.171447784991239
S 2.0877534984059887 4.274197494905332 11.199436677173804
