34
Energy = -135.0643871 eV
S 4.834024841865339 7.233546755556492 3.0832426821118477
S 9.635050317784007 9.66281290652374 1.3435371594178798
S 10.469722508100537 8.153109510812364 0.48199732557082964
S 4.11903832762552 1.641040986510975 1.204229400264712
S 5.893397849010732 1.7420252807327563 2.290278407818416
S 9.351711233930992 7.336746351736864 6.373425793476266
S 5.6210906089746135 0.7591794828707702 7.791214000633544
S 1.6333961887946686 8.551780061201459 5.085357247058442
S 4.764874692736306 6.60729552525729 1.075646592099997
S 10.391617719318338 8.044039778342567 10.9438694677836
S 2.7568175100229677 6.2424430981317 0.6544953722033748
S 4.94412215444514 5.730119986779389 4.379646439251147
S 3.196081926148437 5.817534201964106 10.943869467783603
S 6.141333721712364 1.3111807449684236 10.392630774757
S 9.04464191142535 4.826060438845085 8.520923854893699
S 7.874888760802134 4.422895369565458 2.426113105403205
S 8.634679617175117 5.635375108717152 5.954876346766483
S 4.96321242077706 2.5182754309272237 7.533647537830592
S 7.3578289804414405 2.6987302589720037 1.2269844938273828
S 0.6019817709953226 6.816612544465642 9.106947499152962
S 2.8658855394862806 5.366389419438612 5.136916723363044
S 9.794560137785219 6.513575769101988 8.934877695141761
S 8.103421333536247 5.991353949681292 1.3204924118006838
S 2.6642893430763217 3.002677038952895 1.695852577561329
S 1.6777982056929293 6.644259133821181 4.191103402759865
S 12.352850364214746 8.59838503648858 6.291164857338987
S 3.698399530565306 0.317733563850033 9.670535011198016
S 2.733142470036357 6.434647810271449 9.169381166824255
S 5.480302682779289 3.0709633888230607 10.171002484707573
S 0.5251159635568056 8.681294170245874 8.28793715723376
S 6.704599241362309 6.00036899778773 7.8572460073877375
S 3.0656495598989686 2.0861299902907153 9.437818933229526
S 2.5846767919215625 4.306647768626162 0.04578212953913812
S 7.426299918635042 7.705960217798484 8.249077789886849
