35
Energy = -140.84459264 eV
S 8.187607631068119 2.2548807215198425 7.771883843307422
S 7.553295334298741 3.2255904692758812 9.62001414070448
S 4.651608867142493 3.174136389543642 1.1531504229300105
S 7.457483563055339 7.6935560805501275 9.073297853281371
S 4.1754629396388765 7.486744020995824 9.062557698924003
S 6.471903529659482 2.124518130034833 6.706126630106108
S 2.7086067128610174 9.400979926602693 6.590225978084872
S 3.56720264396565 9.079538258865112 4.692126702444293
S 8.834472033422484 7.395814757565481 3.7907352682688167
S 3.1033538318741503 4.415629722247748 0.6826173770728722
S 5.931225598906143 6.534085597768116 8.367133119544226
S 7.75316927827176 2.0309769661206527 2.5864829614757117
S 6.320907056255474 4.99232621885905 3.414820335573196
S 4.346088670139939 0.45749411691780145 8.692678354034506
S 2.530624908868281 3.173520331301464 8.158207901177283
S 9.932938252290967 8.156891334348451 6.894705089397958
S 1.4526254687644562 11.385703872273128 3.5813584142624655
S 0.2006271282425626 3.4403751964741547 4.286178591016872
S 2.966198789132534 3.9165799913378634 6.268138738578137
S 9.042243357507122 4.855193776729505 1.1047243009960872
S 1.1974243777949045 4.725592595794931 5.579521035115162
S 5.14771961656991 3.4425147832208167 3.2122676140902726
S 8.165048636710537 8.968397090313891 7.583401273537339
S 2.26622989788605 8.096257115529323 3.560477770398937
S 10.766065249573312 5.647874179971672 1.7260044683338909
S 10.356388418150276 7.61000586995287 2.456661599895256
S 8.437853764052816 3.7709532046318976 2.986994532910184
S 9.48890141304369 6.60921183197697 5.60699865639192
S 0.17693238016013355 4.343478062431926 2.418840751967477
S 9.145391515667942 3.754136680949709 10.567971053833517
S 0.9060661601395196 9.739015257984585 2.772890761938037
S 2.4851217166701765 1.1130978354758776 8.072187073695439
S 1.3094969228499593 3.3882101137679967 0.9930637497697856
S 2.7509938218642027 7.595138390243339 7.600893148711544
S 5.580994999915672 0.26593275266352123 7.056066606202637
