35
Energy = -138.86472415 eV
S 5.5289639641679535 6.832427507743641 5.933088962411747
S 4.1354622982244065 2.442310133926276 6.288009488469574
S 2.9975708918692243 0.7640396103129019 5.814984668467249
S 10.893141587264855 5.721455457254267 2.8014633616438553
S 7.499052172598582 5.5430547154844305 0.19456237371626764
S 3.6789373127328275 6.766844383730396 1.0091474455593619
S 4.579047777090807 7.190539761345233 11.146292365481449
S 7.2560665435390925 3.7435690134479143 1.160825632254558
S 1.3948109185479065 7.707519441655518 7.734028970843904
S 9.111120863691587 6.698628330428456 4.954987820081343
S 8.531148596675651 3.4174546599355904 4.178530053471669
S 5.089128578249392 4.669671990615683 8.994913735181177
S 7.064003682349244 7.181780627033731 1.4243933432288174
S 9.416900550391269 6.207358460804385 8.245753036583055
S 8.909488917423092 9.595683513177956 6.687898597477731
S 8.888714376237669 8.914399384894576 4.865706433137117
S 1.5514761348404593 7.673096837234364 9.766144696444039
S 0.45297823186384073 4.038089433310828 2.034685033735644
S 3.5746798570527263 6.501913034918837 5.4341512659532025
S 5.272218912808989 6.829989517442251 2.3583547841152996
S 3.5130655199318057 4.822980426323761 0.47460070618231687
S 9.55685399350524 4.238743281190957 8.818216368628441
S 3.1429312956479785 1.8859230189466822 1.9537442357494885
S 5.699978023980398 8.986093416758175 5.862966402642448
S 8.97295374512481 3.133198074924257 2.077118478688387
S 6.45895030057949 3.2897324870850513 9.670839623821402
S 9.857659005489461 2.406518827343908 5.153035423008744
S 3.308347458881841 8.618448878077162 10.38131091548536
S 2.1191312300329614 2.6474261367590928 5.830164638640032
S 7.913000386730518 3.1329385279512807 8.202482479439533
S 10.447442746198236 6.415604917177219 6.42503160650254
S 5.786522673502144 6.539261881301975 9.603110861514685
S 2.778963397500011 3.733872301261525 2.3112963728755362
S 6.716983503749794 9.593960993454866 7.425800009361781
S 2.3405061576903914 5.97478399021445 7.001117351884895
