35
Energy = -137.80032108 eV
S 7.992255639756523 2.7374291162896336 2.2645604187084936
S 5.1387586627302575 3.8857675155498677 1.2334450479850958
S 2.9521279603463055 10.165810455048325 7.387239308626722
S 9.15099186119627 4.044903765199315 11.66317651548211
S 9.25165250243863 2.733557255382726 3.727583264297223
S 7.013854598913975 4.104629185947294 11.635210908458156
S 3.538874881392962 11.342291332465418 8.996368287554656
S 4.609656708854938 8.803314442127194 1.9990541523355467
S 3.2437060670959776 0.7194436317015899 4.3830304869205685
S 7.278420387161591 9.48890544694484 5.3005382964836345
S 3.3110764487373188 2.8119939110602847 5.0318769123168865
S 7.401519597779334 7.314963510888458 7.8691034800983175
S 5.894867612747276 2.5176005076685013 7.076711988307787
S 2.7141348021727807 5.548612343418841 9.673496334845499
S 3.5005854920841304 9.264316720685429 9.187507901250632
S 3.725608978824115 2.599560884325189 6.978236538595203
S 9.613888085746717 9.229952214630439 1.3632526025816216
S 6.4381546003117665 3.9244285149786626 8.372288852631266
S 4.012412681081905 0.5337950489650362 2.6206888239845694
S 4.522538595174023 6.658374584731492 12.375830245257434
S 1.9246475517304078 5.9780838515074555 11.356479136151828
S 5.063810307532307 7.548218724929227 3.573179643182358
S 10.229596866856786 6.106022098391734 9.14461360847279
S 6.577061539586187 9.027650196074555 7.2739149984186495
S 6.50384221307463 4.266584497693653 2.6821575384789313
S 6.405328848806808 2.805972091771614 10.246833224957347
S 9.876325701770533 5.883377118057636 11.253109204022142
S 5.571298625178723 8.224546963036598 0.27074068468454304
S 8.355179044186338 10.611858111671896 1.8399173737978523
S 7.041983537607166 7.817750232252858 4.173714781578488
S 5.672748707919544 4.967394576525374 12.505088775791489
S 3.4267663326783264 7.18014284574252 12.375830245257436
S 9.396799544405763 7.83654652668832 8.602147060887205
S 10.481197176331419 8.26486304794641 2.7862374452210075
S 4.906924129431599 7.234717020044648 11.162830976922189
