35
Energy = -137.66774077 eV
S 4.283322453448559 4.824034153745368 1.04419491683373
S 4.2370058320642725 3.60173901196073 9.883594440432342
S 4.141239270320458 9.597546108910919 6.139559871554883
S 9.316434509331447 1.303526734818928 9.751436550446423
S 6.592752136298242 5.707415553696449 11.150360886192214
S 11.602418053256363 4.644419699533098 3.724864578088665
S 4.588543477276264 11.225823429058124 2.337210070429096
S 2.1656204702132147 10.16300293027253 6.56286498905659
S 6.334418157623568 4.415872286589685 6.7726005454059885
S 3.6095182027060684 1.716869099709051 5.355379343316355
S 0.9768198400774841 7.286762717742165 7.97825799593171
S 2.462105549067232 5.915451382417979 7.523367923952066
S 5.721853623761218 2.088520757600202 2.4422929847467003
S 5.948203271029924 6.525521138546577 9.42968134640376
S 0.9116354432526025 8.566324511905087 6.352336403541375
S 3.4597679081751886 9.568387896662399 2.7984956208131964
S 0.7654583484476806 3.176038205951613 6.370845731177436
S 5.21268961225044 3.947213651420286 11.497128094219784
S 9.090234521415429 7.574295413532042 2.1698107760836662
S 11.074467311342175 7.762699594001146 2.7757621696933317
S 7.211397431413469 6.044664290438336 7.863294993450563
S 11.321786353772094 6.661524005023966 4.468555269785732
S 2.169884547826064 1.6392260566143442 6.780976729929522
S 7.4469507340442265 2.8361456967154632 6.920561612880738
S 10.485253885789046 3.4260165857490317 4.727058438178753
S 10.084367427273593 3.2329393076345307 9.840570984994654
S 2.2095459811142693 2.2822167906232025 2.4096937653454322
S 4.334769671623833 2.9131801017371273 1.3705938227894674
S 6.208722995352128 10.690551738214799 1.1627933725579345
S 8.09557622566627 2.9041475318122636 10.313930792914137
S 2.8135110556542227 0.831942636907643 3.583504680950683
S 7.958114261624881 8.843676010143012 3.332016440636128
S 4.215605692841992 8.505619595707742 4.410583722420479
S 7.852382731431694 10.693316164246617 2.409863901512099
S 1.8269047511307843 4.840865008553304 5.871323271518123
