36
Energy = -142.66933118 eV
S 8.957311189255805 0.7976257942624354 3.6376548475797903
S 9.102076817259826 3.2841159481353315 6.992016101970052
S 7.889564498415853 0.053826772202445285 5.451858711315812
S 7.617316123109349 1.2502688115718714 2.278071294248539
S 7.237721326610349 10.750407505754232 1.217632975903498
S 8.49314051254586 5.103304798096956 6.7303758760423475
S 5.983286376407447 0.6018657388838194 5.223809203987178
S 6.0016606335684575 2.9502073195374394 7.632933041891966
S 5.51450387426501 10.94036725725182 0.23638769945556565
S 8.173688237217883 5.671266204404147 4.890013674859382
S 3.88576205722269 10.30722814660908 1.4909043469453658
S 3.954195286625773 4.131585299705968 11.192614574585841
S 5.742136967903108 2.638814476398427 5.533747107487424
S 4.899063861788723 4.62267238291292 1.4509541790695828
S 5.849497358512553 6.648129680621986 10.307164522407136
S 5.925812876243383 4.870393271883634 7.815708777077077
S 2.0984882550109036 5.326760651509985 11.07898797676508
S 2.4750890024600785 0.34733846872952534 1.2385613895394982
S 1.9570108841590659 3.2709873438323958 8.110289643212187
S 6.197648377747002 6.40874159721631 0.7853442790106905
S 0.7021538011369738 5.506756113586843 6.009762761947273
S 5.2429982505522865 8.247964634179244 5.9109473217599255
S 2.6928036256253307 1.8614478709716153 2.7424021835204013
S 2.4364679329979224 5.8371619459689414 8.817023961261622
S 2.5383883403306817 5.111126617434253 6.217664240277099
S 5.323142245463129 9.367968975928742 7.489287451457282
S 0.593740624952786 6.244631121795902 8.648408405770969
S 4.314596429323675 9.669303602311887 4.252045771305323
S 1.163474834357007 5.211148293883542 1.4351048966825113
S 0.1103218994148531 3.645005505609521 7.935174374531168
S 3.928464268187653 8.579507848166728 2.7292718158988847
S 1.2537269410275897 1.6606200186565723 4.07731446459647
S 0.06138243087039912 3.2909506353540534 1.3347932854312878
S 10.896803138881893 2.838296615495723 3.151961086071727
S 3.1481875758306965 10.307228146609082 7.388175906603261
S 2.5168263638665627 9.419178342568836 5.787348035700304
