36
Energy = -137.35364002 eV
S 8.548141396901721 6.499491432259816 10.021179190667784
S 9.13338907715326 4.047175462841843 5.099997181213046
S 9.125644472618221 4.78405286437197 9.33417624356689
S 8.056361926400765 1.6281190273378785 7.139007239706302
S 7.3227093856462115 7.523500971392909 8.55677806190945
S 5.539183538293824 5.061625418871411 6.929934640974069
S 6.079987034684394 1.7406981287684542 7.779784063784213
S 8.036481566519843 2.5465919670483417 3.954326366061363
S 5.413325475529322 7.42536728422291 9.220577155991469
S 8.339131082749192 0.947353048029237 5.214486402873346
S 4.496755524708659 5.5888354274060354 8.691954069267391
S 9.224975421282817 5.709500794868744 4.058708243044052
S 7.386668989058907 6.907192264128734 4.341053250212948
S 4.998600065707439 3.1059943143001174 6.66877719389318
S 4.8569914014774 3.8588159525805774 2.610588388556698
S 7.998168401949578 8.408297373276469 3.1152499053219773
S 4.226151398334768 5.54675135259249 1.5417004445773026
S 7.594572554465433 7.848769008042136 1.1746035932100594
S 4.492976671140383 2.3822921703401123 1.2901501685783077
S 4.671119211044451 10.485477895789884 5.1254540469469205
S 2.4679920683489813 4.583966415730014 10.994044364257421
S 2.0086592793939246 5.988978473450854 6.928655353347975
S 8.973184979014622 10.110401933131605 0.5845895190888603
S 2.577261417202026 6.466660677265211 10.483791556627919
S 2.0519580064636327 3.4441877621672567 9.191111818062357
S 3.506350743932004 9.49516056549991 3.708677403189936
S 6.258612170903386 10.979657358905275 1.1771785087479902
S 4.226575540435124 8.462197032487763 5.355441703994736
S 2.9699944300148142 0.22107494491886415 6.319047535478855
S 0.829062806564434 4.568989796953118 8.0526856861797
S 6.039709347392294 9.245037252358443 0.34698176381066587
S 2.7310373150386393 5.216166831955588 5.2939352759644605
S 2.3230333286779463 0.4787301621727371 3.0856373546078664
S 2.269529888672347 4.796172480578864 1.4681994236727054
S 2.5821433866050003 3.1437978059588514 0.3729049833173656
S 1.9956329001946054 1.0780787823586455 4.890481911995547
