36
Energy = -142.0609825 eV
S 2.57498257815564 3.086494601252847 6.128029393209717
S 10.104302634008143 3.3823512650920855 8.832593099660485
S 4.518318870984828 6.196217549200946 3.0767104770215776
S 10.495131327747297 4.604593251740304 10.240997659821508
S 6.778700819008931 1.2248922043624817 3.0787867370743887
S 3.334911869927361 4.394118927624544 2.150227615753883
S 6.93179726632051 3.2066366043140344 3.5766829178609787
S 2.977286981772575 9.568858459055985 7.264083920149817
S 3.848559522430209 4.394310030573329 0.30789651032096527
S 0.5135152179500664 8.066921127894538 4.20863711409763
S 6.464984435175044 10.937764371867114 6.071548834044284
S 7.059962956947481 10.937764371867118 7.413646527748994
S 8.1830754058103 8.269364055549769 9.005993933808233
S 0.7887442841488495 2.3032174388627182 9.023812198692825
S 4.7763860995062135 11.716579415222256 6.615629506634208
S 2.9623840154556844 9.20877741310391 2.1843157318277213
S 2.2832091263033782 1.8744026492795582 7.928999222398304
S 8.328147619883664 0.12595265938908695 3.930717888574609
S 8.41996349282265 5.609017378017925 6.807786872617066
S 1.0936500254599693 8.032787569140714 2.3256873471538406
S 5.396532815036235 6.934657718940419 1.5140556872936353
S 0.9215874363337445 6.9135942580192875 7.178354648058111
S 4.54215149980859 9.096312039078885 5.871815989314207
S 1.309676244346023 6.310637086275782 5.3022469912339245
S 8.129708178546059 4.135134805543769 2.1286386341660624
S 3.956847964449149 8.461992938651393 0.6571826034737296
S 5.759247994681131 10.696780139626267 5.775169810970558
S 6.409707432267921 7.411210546962169 8.860611178278349
S 9.896009655707982 4.556487985441036 3.0149219444895214
S 7.9095104083783765 6.506948412444069 4.857994767357584
S 6.71678261417257 5.45437855320704 7.767615828942096
S 9.621219577560327 6.531885501500792 3.8563210512264425
S 8.524434426206732 9.519916043523155 7.315346360759973
S 7.973532940030361 12.461542974344342 5.933455234094573
S 3.8479343178246332 3.3847386456839783 7.76003289911792
S 2.633565347635162 7.764245094446694 8.106949307181878
