36
Energy = -140.16535018 eV
S 3.0456719426729344 11.871241255686252 1.8901484867828329
S 3.644174960899948 6.3624359060194475 7.878245034419198
S 8.984981875212538 5.9114143264312515 2.453737117840901
S 3.5002638236950645 1.8859150350456473 8.797913485679809
S 7.345242989216947 6.517212502406749 8.16589875034725
S 4.659946214193008 7.86036607228932 0.8058261026963318
S 5.042014401985507 8.818096870133337 11.75069201186062
S 4.483143479272986 9.46492536716032 7.033413915703904
S 5.314894567272538 2.4061446289132924 9.01877493554782
S 3.271495657664383 1.6548364530758264 11.581467973531787
S 2.6218772464740283 7.998524554583275 1.569607465849086
S 12.373737105636263 3.2841909397201587 4.651960347798876
S 1.0618761729110495 2.3002973208997632 3.5420128302759495
S 4.798572380931304 4.0916111044111965 2.8275416050869784
S 8.296713875865382 2.939414918865652 7.015504346278014
S 6.531637044806174 9.440942426058571 6.833238816630617
S 1.8278185828785534 6.665653086509402 8.829472252325559
S 10.359479956949412 8.892575416052793 2.115047919706633
S 3.7390153767167202 7.678536205303677 6.288871798299839
S 0.504708852005489 5.234754479800237 8.175373748308395
S 4.614713805014051 0.6402919038854306 2.353365453733695
S 7.102316316176992 6.429237994621637 3.251947172628056
S 6.366901554392321 4.5370941701111285 3.882758057960415
S 9.808415278940036 3.0132261464084658 8.18311781268231
S 7.345236149025532 8.538499809575292 8.516041136230461
S 10.380787961158681 6.942285648659754 3.391451778752148
S 4.132201005737999 9.056757101371474 2.55383340498045
S 8.967260382971492 8.657776234383995 0.8310232912716317
S 5.454298600084037 0.07262836444484587 3.994641872543934
S 3.350862791518574 1.7745003151716239 12.241385482629488
S 5.085951952512665 2.1802799080538198 11.75069201186062
S 0.5297397081606513 5.333555076638436 4.850706282415233
S 2.3067894958338813 0.20338314193460263 0.13578300890862893
S 12.04543947158898 5.941517511578309 6.485856934100294
S 9.136388000771557 6.076314797200117 7.111638721673774
S 10.41003685839778 5.221755420942784 8.36256026612676
