36
Energy = -129.51704509 eV
S 8.547251635583775 9.569119891606917 4.587515808118667
S 4.101830767780727 5.711568578036606 3.71258273680803
S 6.895456553631819 5.376514308898308 6.283837317085698
S 5.326004043236306 5.043172036461951 12.449742132975253
S 12.07322989344178 2.233444840101316 6.6060525990047765
S 4.593348662538357 2.2131017587236026 4.661299511165083
S 2.161225509699892 6.054000632796977 3.758907435220447
S 3.285206038476486 8.227497927701236 6.08176497061963
S 5.05305101171189 4.66827874194057 7.333072121377396
S 7.994517601355601 5.893247700638787 2.7953940256031795
S 6.920755060080739 9.790860160042447 5.617184139508158
S 9.298454986721236 7.574790368635003 5.561212728297675
S 1.816737961401886 6.52937075949476 5.638315984581189
S 7.269104866550619 8.486618172658101 8.835880749664787
S 3.5241273022190533 5.080938632112781 0.5896038512089582
S 5.5964095802479665 5.734749380478306 0.5851050389645895
S 6.413971245212883 4.681269757805829 10.978423576795327
S 9.947271011663329 7.563111226835558 7.88696865308321
S 5.46271132229301 7.733297660204507 8.087946984175563
S 4.402988522886308 9.206609452464509 9.308517384421421
S 3.7860170942986313 10.289683164219758 5.287042394062868
S 3.1094052559715015 2.946219864388061 7.646651578902836
S 7.393383710699172 10.302214762110744 8.058396665164537
S 10.370657531601392 3.1186297143037347 6.414920000971812
S 10.589856608402922 5.00583952519846 7.328714173405353
S 5.393159487669912 1.319596789152721 7.671348646143971
S 2.1123284577820067 7.918322727194477 8.408922053778698
S 6.48355621501235 4.55897209476592 2.431518217145713
S 2.6156746590126776 2.483618886561947 5.741596840255744
S 4.890830519682615 9.10805143983837 4.120051357990983
S 10.505009276014055 6.484848503101875 4.385185440939798
S 8.56199629304047 4.3788330776340985 4.012873393540442
S 5.802228672552921 2.5046852179406676 6.2803352021791925
S 3.2380771924073963 6.516011239003307 9.30152669903498
S 8.398245268305784 5.08065470323008 7.623388613485663
S 4.5647557473464415 7.416518874140712 1.2372915153699338
