36
Energy = -142.21636743 eV
S 2.046148273390087 2.4331454952279175 6.235446751617562
S 5.5439876054530295 1.9933296968997118 1.9816249491466018
S 6.588051562298029 0.28104012859967814 6.488285617960436
S 7.462007099168183 6.010591454927287 7.858529482374531
S 0.05389211450212248 6.8139134156802434 1.7251907944978224
S 8.650700928309163 10.010670292018588 8.259225686491996
S 9.050428157315705 3.4576772136001526 4.550472188188039
S 1.188406993664801 5.18567124247703 1.2954303167983627
S 8.346827598646703 9.904355931363309 6.358066789176155
S 1.988324901744123 9.570329600357796 2.425699478838915
S 2.414286103863544 5.257295054708644 8.171957288212418
S 3.5129055489023355 2.351777775427468 10.249616858214608
S 2.1122529997687214 5.779434334251576 11.589483284887951
S 4.240149297763507 6.63333138885968 7.7483780494932155
S 9.412614214861236 1.9863616104413342 5.976415502108065
S 0.9323900390292396 7.978891833108136 3.2105244630858585
S 5.740047989071979 4.960728594902654 7.901807497509989
S 3.765041373819024 0.5395893961859364 10.85433149345173
S 5.34465352360779 11.775588873958894 10.26255685705895
S 7.8947366688489895 1.7943783265263291 7.306855492129788
S 4.152977466806242 0.7276960048811741 1.045825063680273
S 9.649854842411322 5.2548622952221 5.384215147295324
S 3.01309784445175 4.241140683680541 10.854331493451726
S 6.566346200132531 10.227075879677564 5.701627593174699
S 1.8888532296156701 4.576255453344459 6.378974013353224
S 6.647790738596552 6.020600389663755 1.8188575626055394
S 4.311465678212302 3.704359209289723 2.3510164897858234
S 5.5054319096602065 5.013018985587488 3.286349033400684
S 2.427631182869722 0.7004041958856688 1.9359122553393386
S 3.991290014153932 9.303342216632885 2.9035331264622393
S 3.700199902120651 1.6706315325148715 5.389441385583831
S 4.137686213922594 7.2590821036516 5.940062715188209
S 4.724831198198029 0.6761867703706002 7.049166570274508
S 5.294437244745947 7.036951668215745 0.6618880488619148
S 7.992165215597451 6.368236516167674 5.84991661344312
S 5.166255824592291 9.025174615283689 1.2326238662190423
