36
Energy = -141.95551525 eV
S 2.6933622703244278 6.701752726918413 5.958647783406222
S 6.439088631346991 6.534686140957602 1.1102303470736103
S 5.241496679531131 2.0281255755261607 7.831449892856131
S 3.9578553571112804 2.2020664796157647 0.8651163635594094
S 5.944371974791222 9.274545244264017 5.691956647689994
S 3.6485440709336654 5.177815399175974 12.625956820605825
S 9.850800060713679 2.050401727654161 2.817456718434307
S 7.744261450055767 7.81017936535103 0.5512755869069371
S 12.66986181785019 1.4470578580472375 1.0411747651912742
S 4.282838425226143 6.254962690970667 8.865271477468324
S 4.252933517439072 6.842398678982509 4.403418087432161
S 3.293299616063402 5.3093154342786475 7.274581559114393
S 12.367092085228556 4.531491605424135 2.9970162136487297
S 9.022116199577205 5.014701245556943 12.627802308825444
S 7.274102704204686 1.041222505127126 4.674225923276749
S 3.685808898767118 3.3712048389542186 12.017402568181037
S 1.207765062139195 3.5923120596256077 9.669640051488416
S 6.809893485694095 4.361127245657309 9.896434016018041
S 11.403519471532181 1.5082585098543193 2.4848294958200445
S 4.838587191204107 10.134553335673745 4.3946262534118326
S 6.886247094505089 2.9806199093191688 5.518921204318105
S 7.350235194950681 4.470735858860166 0.4415811947025845
S 6.30410488665212 5.852224652541799 8.637325453623607
S 10.60130777164041 4.936827292726766 1.2858531784957252
S 3.6774136817476024 8.387152900164141 3.358950839812302
S 0.44309804635673367 0.9571858801697936 6.158963092801425
S 4.054812451023826 3.5305438354180536 2.2345671764249637
S 0.6323758752282156 6.84581598579799 9.571586639006672
S 12.937119316020981 5.041465499508565 9.536506790476114
S 7.893268227062002 1.4359934848895175 2.7654364235226625
S 8.242550573909115 3.3045069034416557 6.876335714454019
S 10.601307771640409 3.493057287034492 2.790113999723683
S 6.85766582225913 2.4232075658032692 8.77521068640662
S 9.711208062866177 4.189570620417731 2.880067522498185
S 12.953813462062188 3.9190631131334173 4.841615436757283
S 0.4082885337703237 1.8321945739431984 4.451308275111977
