36
Energy = -142.42578838 eV
S 0.8592731795533062 5.263457867030633 8.210562983722937
S 9.776016749087653 5.687380161825994 5.703313081755163
S 0.3443434904526838 5.705334415112431 4.914359907503915
S 1.2604841788091476 1.1409907054124506 1.7983188283446028
S 4.519613848699238 10.458394143436674 0.8751737389120335
S 3.158911596918154 7.908599593104913 6.5069584137312075
S 7.202486099421476 9.470516822657398 4.201256309676142
S 9.702106327702651 0.665474322256421 6.509941748073417
S 6.1178693888616715 8.465647496833096 2.8141710684839816
S 6.2168650563059495 4.925395062311265 1.031895356644486
S 1.0609235142043891 2.5717681490169606 7.907951831400623
S 10.144283465301939 5.1638930864614485 7.965443795038659
S 6.16023068849696 1.279437423484731 3.061809746381364
S 8.039573015990404 1.2445474569136494 3.689332437593752
S 7.218082981630977 6.566071308426844 5.923968526243016
S 1.9175020746475768 4.3762457610828704 1.3940977170018307
S 8.013919842346057 4.276761492700041 1.2644088709929446
S 4.09324250781014 5.815516030198316 9.83299970337358
S 8.378351319730294 8.029145634386332 5.247149470884521
S 4.223356843453642 9.48265467242042 6.472380383036048
S 3.375548271146117 2.506000181818846 10.150164358875989
S 4.520453697872944 6.309400395371389 7.709778200966764
S 2.3939538205185857 4.129113115522629 10.04468562678417
S 2.4140924826068875 2.749958672672472 6.094460053700733
S 4.3185349738794905 9.525802456498562 4.119267121688162
S 4.185913882072129 2.5116375140643714 6.80924738207265
S 5.8090943760250395 10.365087436794896 2.2839776896615427
S 7.9030862631493335 0.7291335996240794 5.824817207850285
S 2.804660338343131 2.718533987942147 1.8502743664706853
S 5.692730972340514 4.72272076427519 10.055287322046105
S 10.380344318838144 2.408397701582979 7.44582420691555
S 6.212006941667155 7.273729621890499 7.7471957758359276
S 2.6955013847147224 9.482654672420416 3.0508361076895705
S 3.3733520748607013 6.9964397750438065 4.292726336787677
S 1.494905292110997 0.09559551310158051 3.481319912217255
S 4.055053666416896 8.58576171465562 3.344058456941532
