36
Energy = -141.9286365 eV
S 8.18532034334996 7.622567343043696 8.715497425655967
S 6.292512702567448 10.661508828488916 0.05506459798550404
S 5.715158022597787 2.648276613057958 1.8774610030936638
S 5.7441499843475965 5.226359742372229 6.655265417912814
S 8.32320163289944 10.938808367475936 6.448114135879754
S 2.7255530682247486 9.018617261978708 6.981587237839635
S 10.965408333314194 9.319835867066054 7.664232965382197
S 4.319736437061732 3.842086859690898 0.6393545928608164
S 7.396638226747254 1.32563392585689 7.091747432069854
S 8.802352803255811 0.8342406442837936 8.338772801865082
S 1.2654610186559037 4.350402630782792 7.635061305244198
S 5.464343901085346 8.213644142074646 5.119068557399665
S 4.344461644012786 2.815442955482285 9.576466353547291
S 1.3326286523236603 1.7618076193363166 5.71996705087457
S 7.297337069985816 8.225388035707702 2.1349138696642433
S 9.517622845390543 9.244397847391085 6.295423281176487
S 5.519087448376659 6.172691036940175 4.825875653978628
S 3.4546178347938725 8.715409821653836 5.054727915620026
S 2.79309183442863 4.214356408078533 1.7519758966101344
S 7.981610951388293 5.143892700195733 2.1405196787280225
S 8.65478601410444 10.844762103510513 9.701445653047903
S 0.8240905519293321 6.25629217243558 7.291087341082786
S 3.085052686521323 3.9014866643488184 10.561233431545192
S 7.326682200399751 10.561313466544988 8.291771588044192
S 9.614992234426058 8.568614599493388 9.525040459859781
S 2.4050651777620033 0.26051641924742575 6.654905388441198
S 7.7349802029415295 4.685139530521006 6.843794916227166
S 2.5793561783428554 7.294536872332781 8.017772046967512
S 8.74212918545027 3.788510881812374 1.0133702009366177
S 8.017951359492246 2.942034875145986 5.797814992847948
S 7.184192105827335 2.1452216897004615 0.6868260333682172
S 8.222602972111472 9.745433681730523 1.4542835189459318
S 3.8387190525215837 0.7098994563381692 9.615705356352422
S 5.053206058898475 9.289863102897668 0.48351276800745396
S 2.0525747178073517 0.3995177319611614 8.709703298529364
S 2.29060691433848 3.5240366216465966 5.914849000195488
