36
Energy = -141.40596835 eV
S 3.0949971577747495 2.8287735657648088 11.425228238901074
S 4.433664678480347 4.296671983256757 11.112080670655342
S 1.2840029009128335 3.7095601932984765 0.2738899813134345
S 0.8732926815796994 5.832712580867485 3.5584558932635555
S 5.6572165306956945 0.30821649976908644 2.290237539734225
S 5.760292785701441 4.344996482282857 1.0055894390995137
S 2.4532230636904897 6.834724719105895 2.5795855609405303
S 7.389654540778088 11.482691017684212 2.7919334262612385
S 7.405540512171533 5.147027492958317 0.3947212636390931
S 4.827188270335636 4.054424420476921 4.441743244531847
S 2.7259843880947265 9.643171508174321 4.031477598420893
S 0.6744520962530646 2.8857587512689666 2.0215038807866748
S 10.843365684801684 5.418787422186183 4.374828570864286
S 8.379109805670948 7.778110710742255 4.644157346556586
S 4.097821565872975 11.39028310414971 3.6148105610623884
S 1.492200381184389 3.8904996281866686 3.6774474459111457
S 6.499276815679234 4.998722400751442 4.6657172688496225
S 9.60928201176086 4.454852506230506 5.668916829626699
S 10.273790146417316 7.543772453104347 4.4077196042998
S 3.6488815885369967 7.663178472590958 3.9709273753264447
S 8.09891793415084 3.5321637700318544 4.657625986948199
S 1.9229098564265596 11.11794980012814 6.600130821924329
S 2.7997977197538546 0.7897094524916844 7.374258442502384
S 4.900535259483716 0.8884111830554049 6.543208955866927
S 3.932632637519278 10.917437740314229 4.969623475417272
S 5.002928528261469 11.07087859596349 5.429669532463492
S 6.624488285439631 5.2581308865243646 8.367727413546795
S 7.696363863755955 7.09563037383471 9.006691129508683
S 6.937640848495009 3.847424180336999 9.63317788418244
S 3.1923345001178545 5.327186377576469 8.210255017049871
S 4.845085067931002 11.038556268222617 8.277465222081258
S 6.865846771337417 8.491046397018561 7.862430194389657
S 3.2455067125613004 11.07087859596349 6.994664412863543
S 2.695066137871562 7.194062211717424 8.198576284689915
S 2.8868020571793176 4.2971086147214015 9.816542512467814
S 5.179439659789457 9.177193534177379 9.042099644750383
