37
Energy = -145.83492774 eV
S 7.217109816988061 3.715488088106516 7.736601630878242
S 3.7341701099417968 2.9293542625353712 1.7432740137906795
S 3.765400086033488 7.901811490318311 4.197299864521495
S 2.8698743414353554 7.722383668425694 8.16091137864628
S 10.630691512373284 7.1032838211760545 6.387619837395516
S 2.7094680844046803 1.276762495023639 2.6883996976480966
S 4.728455135535157 11.263161990331303 5.882031015493814
S 9.360217123724855 4.6447228034197074 3.663119337472899
S 4.288584340683626 3.6862681848710093 9.340142332196107
S 8.548360990726769 3.06097720711592 2.7795166962860773
S 5.365459483709705 8.305332544951442 0.0698443177790394
S 5.418081634147126 9.9282793466276 7.123486510388334
S 6.742274766932693 6.711045747308902 0.4648868684050136
S 4.140232685871679 9.534337274024546 8.688371293585716
S 6.264423852581177 5.337652737022546 7.515419536844193
S 1.7880392226114732 3.767409541495183 6.649228347559662
S 7.971839881571699 5.9801146624347075 10.077514607585977
S 7.507946232276473 6.133451072053937 3.7113828807653526
S 8.112159340631296 1.6145037868730283 4.189666349800758
S 6.002093077425315 5.110662547994272 3.16024768164151
S 9.398661990217532 7.545083313267829 9.452079438518437
S 1.9125786776362241 7.373080345219644 9.783979620217783
S 3.5170919915439356 8.003558812885744 0.8796022045303177
S 1.9619470757698365 7.313514297572564 5.06408427931992
S 8.141308912113864 7.321465568376012 1.706769658381241
S 2.288945767477626 3.235746011976047 8.516679870190334
S 11.651838742670101 6.02890220756585 7.589997315844829
S 3.382827612453747 9.15401227623923 2.609915200745957
S 1.1103196864015799 2.0794354758222617 3.7094038800026436
S 1.3110257394737252 1.8656480352558948 5.71725572133649
S 4.952457120649029 2.1228508406661786 0.48266259435304276
S 6.010821433716031 1.805558928815809 4.665290787701073
S 5.668823293858599 0.4589800622596285 6.006221804246018
S 1.534652392728335 8.600606879549854 6.556239876372192
S 8.62242181686887 4.184370715217717 9.68842727224417
S 9.047261004830732 8.194612766759839 7.6266732227324345
S 5.691641894242951 2.355074639530218 9.085257330585016
