37
Energy = -100.25729914 eV
S 2.4160437444193827 5.324123379672144 7.957595018856549
S 3.9941700013484467 3.685407847452697 8.069990266563881
S 0.8566444012722992 3.8698039881468946 6.464135366648584
S 2.6673911202726655 2.871178601782245 6.61670184698056
S 1.9754447304039706 1.087841911914923 5.989021714926519
S 0.915249997607692 5.929462882476705 5.881788977962655
S 5.028919198986701 2.3758283122471306 5.769642377359755
S 0.7505601002702585 1.2700789163668076 4.344690714934436
S 3.988006566460622 0.528674115252682 5.247146668058607
S 3.150997381916637 6.459940401689844 6.0419105922409955
S 5.632756059383704 4.356889670528782 6.670912202736114
S 3.3014188329051084 3.493149969368208 4.332813171811131
S 6.046548514176877 1.5913676602755804 4.045243418721149
S 6.673661122358344 5.254612469135387 3.0968346663660684
S 4.579587553553089 5.3094079547387265 5.042108185508919
S 0.7722285177949392 6.309042319962477 3.8774645515404513
S 7.316587555003388 3.4825204397222844 4.01590524816978
S 3.573161749337105 0.26692430136423045 3.2001149799673128
S 3.099556086774267 7.676349229274041 2.7699329881788373
S 2.8364774949830553 5.3418100408153615 3.819882847372163
S 4.573616525249206 4.437915432012066 3.053857520493491
S 4.5192275857885935 2.318304298229807 2.7263117052423294
S 0.03693996965398319 3.1353379564662003 4.826875135094069
S 8.257251644384363 4.451329315763977 3.281152318296231
S 7.822166875372087 2.280251119250812 1.9389180921275706
S 5.106028091875518 6.731620121143155 2.0181939328776775
S 4.985443418107775 0.32225915791213045 1.4841842917601018
S 1.7285094591287349 1.2721194736136168 2.4870530001638356
S 7.431313458635764 4.683625235864101 0.9047227528206957
S 4.1160778372441245 4.823779263467309 0.612122034767896
S 5.537374270152599 3.314570553996989 1.269261926381037
S 2.7458015156602498 3.202518315479912 2.8352371571249044
S 6.137919852238333 1.7349140841676358 8.069990266563881
S 3.602136943791298 1.55993728212484 8.248311288611793
S 2.808107215272541 3.139715040292428 0.3976450333399047
S 2.0656269263647618 5.664554074080193 1.3402832994355907
S 0.8671337484551813 3.939809148294008 1.5872422888560442
