37
Energy = -146.33841734 eV
S 10.477879407231868 7.133115630019307 5.516625979545591
S 2.8997417040523 4.486548068666287 9.02058377011956
S 7.646824946751082 5.614447820526831 4.5121356724312385
S 4.612231319680717 9.610342947964014 2.0684033784166975
S 6.3432444416997535 0.2996585266565895 4.654143112438488
S 9.850067181331179 3.693843400761643 8.160786772435198
S 8.380396696854639 7.454928700278341 5.096761475325103
S 6.114414071271974 1.6286721755115314 3.308259978407206
S 4.417418439132918 3.354411551676817 8.257787531899755
S 6.471638160451898 10.037344947910453 1.5134532577417452
S 5.25641344138832 6.7310811742587395 9.96719752796536
S 4.455130007883922 8.719580963065987 9.211877876348128
S 4.5772297231281724 6.177786196185967 2.251932821913238
S 0.2829360405988074 5.921228135110798 4.3714778611062
S 10.005355936171634 3.513942916669596 4.8117532868528805
S 3.338904825332309 0.11070425270975821 3.934840169395759
S 7.003479527383972 4.584625269835451 6.078364132978883
S 7.995105142546586 2.0512337715112325 10.403772843859027
S 4.6823012474118375 7.920630609798054 3.3312283532665927
S 2.064136098912752 4.979820050835586 3.9712363838832814
S 0.9185907555719508 8.571841654135882 6.49550771355842
S 7.2923839366398715 11.145851239473886 3.3250168926845913
S 11.104557539904404 8.7654887315207 6.3336108068125805
S 8.456623802469716 3.984219825420125 9.53283679270321
S 3.696650858489625 5.653891165564603 10.597372177191575
S 4.157147583178109 7.923132551567253 7.107557526135853
S 4.7598349371246576 1.6797516498688132 9.426459397194973
S 9.69494660760471 5.3203576022988415 1.2448980886703498
S 2.6238629909860522 5.557004975077862 2.0341296008751457
S 8.823295411075414 3.019222755024506 6.2328402264641385
S 2.8730998990993375 9.29146856188693 6.366005379932681
S 3.993822922134962 1.4948976299661816 2.7992210938032707
S 0.43258198693748945 7.9709105336126544 4.577287425164872
S 5.915245168111282 9.95866890287601 9.263152719079153
S 5.958133173480504 11.10355647318893 4.697418644834266
S 6.06127214668583 2.2592264666105306 10.957032154954279
S 8.304721111027492 4.233598629323259 0.5357148269835775
