37
Energy = -145.81906196 eV
S 10.110591864838858 2.1307057637856293 5.87765008869761
S 1.66252207309235 6.952138693213455 1.4832620822454403
S 4.266111986223168 0.8775218496048597 4.1238312501583545
S 8.13322106614831 6.410652034098711 3.6492263304013943
S 1.7248064775424339 7.9214257197341515 4.689715476780574
S 7.2470733405111565 9.436986316596823 2.4634944319622587
S 2.5157791515559285 7.192907396366866 7.842816954244021
S 9.44732552632105 7.914329708583661 7.441751562703609
S 3.595128877261512 7.1917211655735604 1.1628136492841359
S 7.729559024945747 4.885023504149315 9.765562913541203
S 0.9889093102112686 7.709122119700321 6.629377571241057
S 4.066981656782652 9.245002950324372 1.4238142064589643
S 11.070307560906754 3.6679323807272866 6.9066384792079605
S 4.352195463243744 2.455205248353891 2.5688294192415744
S 4.526347091424144 4.236193698127892 10.056978470662179
S 2.5926435516697954 4.732587603069872 4.7022111632633266
S 2.975212137679229 9.01748869922002 9.100272730919116
S 6.016030176354889 10.748203726618751 3.78196909353138
S 7.899643338037345 7.540439061829855 1.94210241556312
S 10.063749416877995 6.579205100521909 4.384893181425678
S 6.6623518439427585 9.508164670678138 6.524690472095443
S 5.729597048350087 10.63909723782163 8.10272213337982
S 3.416818805474809 2.7384202410939698 9.307450467151162
S 1.8172738425465866 2.950278779484284 4.489340928502994
S 7.37530490470666 7.749653276697431 7.2452985095034395
S 4.540753880805665 8.537814406766065 10.080167070700462
S 1.2476324619885748 6.077988395041772 3.836294180642302
S 7.503946088581205 1.0651851553434315 4.537695577343667
S 10.154901392110135 8.288010514438751 5.539050834133945
S 9.146159144746944 3.084611031067597 7.467328487691391
S 5.2738366166735995 9.336791730909345 3.0800369452183247
S 6.162880512231942 2.0197679547235716 1.7019875295003506
S 4.615572750733124 2.4364789860227836 7.603552849265611
S 3.8378394638555977 10.748203726618751 7.608659567403638
S 7.614607350858074 2.6459339290430357 2.976897370800241
S 6.224734005733046 1.7448471972592834 8.59866778752139
S 6.625125632640819 3.3810925716396594 10.236422655221746
