37
Energy = -145.80886428 eV
S 12.889616473167617 6.728968413860844 8.002923614390316
S 12.446010797848123 9.718699506237067 2.7380280143853732
S 12.215726812071795 5.8396043349317 8.10193082389457
S 5.154705159612939 2.5210314673040535 9.47542018328183
S 5.329919973510706 5.517578152606658 7.987728922612001
S 7.010746952426022 10.649914906515873 4.020566687193867
S 9.26136104758194 8.844899203202615 6.51301633584167
S 1.0501189075852653 2.7120630424799366 8.400761454269087
S 12.228655913085783 5.472510466088391 10.31579760184105
S 8.006606852554858 1.633282462829354 10.754980822790953
S 5.921048381277316 9.111105905490847 6.862599553265091
S 3.769237117943588 9.852262457344597 1.7631987313215483
S 2.8021070165021373 6.6026377616904135 2.0647239894596794
S 3.587183792990532 7.7200493073354455 3.9256757278765493
S 7.443719274729191 5.345088713348361 2.4524896249987473
S 7.801413515088386 7.817763777366697 7.330413364918403
S 2.1545096533605452 3.307013050280785 6.787946566454759
S 6.738887756759779 1.299557145382151 12.144747771303576
S 12.869526831198137 5.344778566369679 9.766162601715049
S 2.961535186611543 9.60662670466179 3.6831394865384404
S 1.0617985869242113 4.734612184195797 5.795710166972729
S 10.016271265083907 6.994198880425172 1.1579552541024072
S 12.552600523775206 9.004964760653634 5.9569620457958825
S 8.979126858182674 5.367970799786538 1.2792920222619821
S 6.598110134176542 10.812139948787767 6.227130006149675
S 5.4469389306897265 4.71160181892511 9.734534160295638
S 4.67321065522927 1.8751444457226025 11.259267731652029
S 1.2930381067099617 6.457116634392638 7.053799954400163
S 9.35727920217039 4.881023080734568 9.102878303839857
S 10.785101954377781 4.097030277687818 10.448490699442699
S 10.75579658970274 4.58449744883412 7.560239983776915
S 12.869526831198137 10.2752071497403 4.5339901944375045
S 9.414099943616064 8.384799042173379 4.422359047314695
S 7.4641584081293475 8.71930711733976 3.7785843682765057
S 2.5226992286832854 8.534913841376888 0.8618119213898041
S 1.2690840471593396 4.351917588757316 9.757956612527964
S 4.276866246063227 5.455588928627675 1.6144600690592383
