5
Energy = -19.07758488 eV
S 5.243544451153353 6.930844279977638 8.04518627446683
S 6.761797358395202 5.9433296322828735 5.15761376441919
S 5.56623035913686 5.472864560017292 6.847042018030462
S 4.942521048989138 5.373802290632738 4.2319241079181795
S 5.043162032853258 3.7621925046864164 3.1979642288326064
