5
Energy = -19.74245132 eV
S 6.346120976611293 4.745508523159314 6.514830791362448
S 5.2641644662138996 6.249510862815532 3.8477326164565926
S 6.606390735102595 4.594180488042467 4.54001939020387
S 4.5568240453022355 6.878459250132238 5.616033836918793
S 4.261299426562367 5.059498811030197 6.619177139139757
