5
Energy = -17.40265024 eV
S 7.039776553635219 4.889893697588844 6.865426483029499
S 4.94421477904103 4.470138406674659 6.699293394345684
S 5.795927923016763 6.1141270916393635 5.619770209377621
S 5.3624319591466465 7.831472607147703 6.335721647615386
S 6.0413284425852005 5.843874363198903 3.746475793193847
