5
Energy = -18.85675997 eV
S 6.051652476253832 2.4951271274940154 2.4244444710833193
S 4.10448433669313 4.0816989202606795 4.508789027243364
S 5.834885062335802 4.209083384478083 3.2777840168484134
S 2.3783165944283304 5.868331234470991 6.64593516364862
S 4.068249326489303 5.833099187565276 5.714598404372949
