5
Energy = -18.47235681 eV
S 6.369280729780624 9.067231204897645 6.458635773323561
S 5.912763107385384 7.218394399298727 6.654804475127024
S 5.197140007324297 5.497723837316109 5.021418964377797
S 7.182146332790433 5.225750914228402 7.445414478174849
S 6.656890498766723 4.309120320306573 5.737946985043955
