5
Energy = -17.96580206 eV
S 3.9639597362115695 6.429642182288388 6.775413797548668
S 5.060922266986302 5.8057024515662725 4.304115026394999
S 6.433423376287139 4.687598623643368 5.322341563785489
S 6.778746784888623 5.292015702848994 3.2191546422420547
S 4.905022296456186 4.927115500482681 7.521049430858356
