6
Energy = -22.81916436 eV
S 0.9611166379562021 3.370672880976656 0.5397246845603935
S 2.2811100002376343 1.8840371754024918 4.603966638600989
S 2.3071155035988804 0.6192213415839771 1.6491623252478842
S 3.3341620408335912 0.9377921163878832 3.47700007264175
S 1.2656445394321 3.594698961216517 2.4584530481971147
S 2.5583900396731662 2.3011162861643246 4.60396663860099
