6
Energy = -21.84344668 eV
S 5.670324626603675 5.069320943340599 4.86473543278549
S 3.787540514194864 4.751399261310573 4.532944930400644
S 5.994872150090812 7.197410447364959 5.569395004955965
S 5.209000929471591 6.052451624184893 8.610480331110232
S 7.072301457824088 4.539347062310944 3.6385314130190918
S 6.630672865950389 6.761150015939215 7.496279099312252
