6
Energy = -22.95559422 eV
S 7.776551033352639 6.697865516571575 5.591963650091186
S 5.722452144601517 7.1972320618592915 5.980634219374405
S 3.6623809784727017 6.69383433657619 5.5918652374631455
S 3.652058269591537 4.748989048817227 5.839839003904197
S 5.722530742151487 4.239403631062916 5.480156353323613
S 7.7886085390549 4.7471287915474525 5.840123243067985
