6
Energy = -23.17975117 eV
S 6.612274938984593 8.14688677091648 7.315375687065481
S 6.15034035253182 4.389532101102202 4.088117816305705
S 4.3172658119969185 3.441145868036622 5.127471988611535
S 5.949270737160931 6.279677536984539 4.550438063183453
S 3.3272048234674374 4.889799305553772 5.8863390502204025
S 7.028009538398291 6.454418555246702 6.5059056860247955
