6
Energy = -22.43997885 eV
S 6.573446506113887 4.473374315282891 7.0005884907818805
S 7.1527369976582005 5.956188203819871 5.910211833447164
S 4.865143560540894 3.664118636392703 6.587509733052105
S 5.312219515151918 4.626952996372267 3.2766434660982355
S 3.8102739302746444 6.740426249463236 5.350331128277827
S 4.011319406956399 6.0308431354443695 3.5613532080810146
