7
Energy = -17.73041974 eV
S 5.857221922208246 5.585347127149308 4.045663934839417
S 4.191058304682765 3.7845373719767554 3.3426670764982234
S 3.3388835919569777 5.992195088061883 4.064048689069094
S 6.074024560360483 3.1690287437789872 4.822727622577984
S 4.024841050859631 4.294247126407991 5.84264485840991
S 4.697604345606735 6.748425357099922 5.992699236365624
S 6.390454368155545 5.000307329355659 6.4636367260700025
