7
Energy = -27.09648835 eV
S 3.8392776480128106 3.6833618960075007 4.9194386856091015
S 3.7942461891536596 5.803067084132518 4.514437402512115
S 7.573073413788198 6.279213501334015 6.716512119944667
S 6.521588441880025 7.566423669829784 5.310760152623675
S 5.118348834965591 3.162794248451841 6.263478175128089
S 5.691541260095407 6.356967671146233 3.9133187332014603
S 7.719482435499466 7.270264494016077 8.367628483488796
