7
Energy = -25.68145906 eV
S 4.211351994523561 7.194215253806353 5.034625061874091
S 6.064963979066865 6.060893517145362 6.0572418379526995
S 7.908697171719466 5.032279506154373 4.942907128616275
S 7.92727353799681 7.09933887150705 7.192548269544933
S 9.236229553044128 6.062935176103021 6.061176295995765
S 4.208507089800805 4.939599450739601 7.100928423564928
S 2.8935583019711224 6.061319852666992 6.06115461057391
