7
Energy = -27.45209951 eV
S 6.439308466429855 4.5650281607792715 7.071417490929149
S 4.7608664446053375 6.6077910714591965 4.913502115089847
S 5.254899165863373 5.304855020215333 3.5290558302023425
S 4.032539099222467 6.9517726967972235 8.10727914405903
S 7.398196588711808 4.8611302567930945 3.9421383391728293
S 7.550763828344965 5.672255583828476 5.805956574160223
S 4.2937368753736465 5.508281096283034 6.871124421910188
