7
Energy = -28.39678664 eV
S 6.500060373827482 6.416877143507221 8.888097099260703
S 5.693393203612022 4.499679617038129 6.326982174457591
S 4.9790706456669005 5.316291687133139 8.060973766349917
S 8.163084683040456 7.991858470659142 6.488997086701459
S 5.700048675648947 6.181886248000158 4.9988313563219196
S 7.5770805687136376 6.727815058729297 4.730593711915641
S 6.568132052371588 8.158029619940597 7.646756455818865
