7
Energy = -25.70444244 eV
S 5.255142677609688 3.6068845086833914 8.810466119671707
S 6.626075618052471 5.715639235357638 4.288120747684616
S 6.469342764162669 4.263916029503447 7.25038062651423
S 4.896186684395564 5.448197930653297 7.897434441287301
S 7.879102595797426 6.546611499619307 5.523893392325212
S 4.77099439114622 6.971094889238126 4.2278232802353815
S 4.974815341383766 8.302462591523588 2.8373902589258098
