7
Energy = -27.62210125 eV
S 4.415307952580795 4.396078745651602 4.542453816246907
S 5.0611705132596105 5.97697852384897 5.419156481769882
S 7.2002590932379995 6.195274593488069 4.755001798646613
S 5.444227668280289 5.353309588934684 7.5423666755564645
S 7.782043845229631 7.8777572929519355 5.740412760366593
S 8.07860169461289 7.27906228608425 7.710371811854846
S 6.124170737482946 7.080054810235952 8.380108249805533
