7
Energy = -26.7307996 eV
S 4.801567827770099 7.160508167489374 7.641037155720685
S 5.874548238726019 5.348191619064939 3.4078688921485667
S 5.7428736299624195 3.475668428017985 2.9626623827271588
S 7.596185371427891 6.036956047480171 3.9274465111434003
S 5.584320209813296 5.124414410340364 7.816398464334702
S 3.5701442688819327 7.060623728248703 6.192462513999283
S 4.663508251851485 4.167955757981694 6.449169079365262
