8
Energy = -31.85264825 eV
S 3.630839631288442 7.650232523574493 6.433822017755359
S 6.271078057109784 7.580093988064096 4.458611526152849
S 5.148361168145656 4.6674177321132255 6.870829052104613
S 3.386385450737393 5.406364384960561 6.517493722941722
S 7.555694587839798 2.8127422336717673 5.296185677110336
S 5.571713232625552 7.9515452738767065 6.497366424729108
S 7.519471755807034 6.04399985583265 4.633687440370821
S 6.288434405791369 4.173752920296125 4.82159380159182
