8
Energy = -30.11186584 eV
S 2.5225529815755947 6.1548209656173105 7.152887847231594
S 7.310859185459196 4.6268123527075335 5.133524160074576
S 7.560544941361629 6.820470173306672 2.6051195436195504
S 4.8692503163487295 2.4490211283998806 5.727001407865196
S 5.443396560243444 7.719593289671566 6.982854236923716
S 4.417192599441518 6.1732462133443065 7.51932969898916
S 5.184585101282181 4.2124227652663055 5.028910631515597
S 7.446246737754242 6.620432689560421 4.534993522271911
