8
Energy = -29.67725993 eV
S 5.677460844539869 7.540054360625229 5.062196077998861
S 6.1760112726157095 3.1612693954961912 4.031463344436253
S 4.733572876600516 9.168881235986978 5.541818895607477
S 8.087437412114797 3.6537758959728035 4.674263561935702
S 5.896976213411364 6.26541560942236 6.715267495143287
S 3.824927412080353 5.9308214385449105 7.2162813642662655
S 7.175079346208957 4.769263214196895 3.1799444550236324
S 3.7233770825288883 5.308034554745985 9.03421996082287
