8
Energy = -31.28579816 eV
S 2.978617883936504 5.552310353042749 5.615626804362443
S 5.240221098745517 6.929336907634133 7.621846446208949
S 5.844993030667543 6.779519640939711 4.173763056488598
S 8.856451606405948 4.046830294705743 5.747989672569797
S 3.9068341120982626 7.216942816994932 5.786608719800211
S 7.066802153760283 4.398762088414778 6.353922972418182
S 5.665186937497729 4.879740802913118 4.299065892255887
S 7.074599557500283 6.5113895982173755 6.9589833287115646
