8
Energy = -29.67680128 eV
S 6.765603075111446 6.419250244977688 3.497391416825273
S 6.1815870783214475 2.5400635505598403 6.4769626404077165
S 6.407758322570912 4.41672190319414 6.102686651899522
S 3.5625070718379344 7.367727526642637 6.2343000258235595
S 3.3032883103983357 5.462377459401425 7.019321476793437
S 4.473957567876988 6.848268112706954 8.0282041278085
S 7.61851532829494 7.983018338463917 4.281022318971352
S 7.518416565602397 4.62566214668577 4.238679226205006
