8
Energy = -29.59084452 eV
S 8.170582327271637 4.198498393467844 5.622724335532556
S 7.384521729889968 5.383966571472668 7.285534644067204
S 8.44598192841033 6.272419122142246 5.596347488589242
S 5.217954529696895 5.373354552930367 3.3586414668114957
S 5.501990571121757 5.641090948937684 7.34538134914842
S 3.3231767702778754 5.300457403673606 3.483410917721857
S 2.4754737798770146 4.401510222671603 5.297238591579628
S 2.385892967592467 6.4804469711126735 5.069007684754825
