8
Energy = -32.29161788 eV
S 7.5824645937509665 6.483232139014552 7.580043483126469
S 7.4204899325290885 4.494631392263626 6.473859450981737
S 6.922147659543793 5.6543066464555505 4.065679122401605
S 5.718738984865696 7.087473209455873 7.7433565762043886
S 5.216906879294333 7.984109674109891 5.803079206764711
S 5.6332390617656305 3.8527795123761144 6.607321416847885
S 5.101220301577884 5.092811157069606 4.132443241303505
S 3.8654878714153122 6.7912138897769205 5.027480449754248
