8
Energy = -31.25496823 eV
S 4.045549875504348 7.864173451417409 4.68202265410896
S 4.9718468979694785 8.568288880846085 3.1443412040362544
S 7.971958752699183 4.993666393717553 5.170715040672934
S 8.245622781637719 3.6005126402321093 6.450317590380299
S 6.232283329318816 3.1428530115320426 7.389409543072913
S 4.9391614227493434 4.240716420683909 6.3663904896533445
S 5.501148437371202 7.540580540176901 6.257637904360369
S 4.609893962446273 6.117957197944012 7.363771230710787
