8
Energy = -30.12264495 eV
S 3.4840520141819034 2.2144502564177917 7.533346955271243
S 5.728358209510184 5.341637245579304 6.757319584301682
S 3.808052510817773 5.1326780620462555 5.815314733827541
S 5.930364267521637 7.173740211605242 7.310705814493384
S 3.4089478007456777 3.0668043701531036 5.796726335048914
S 6.867568427925382 7.589623999306001 3.5043296057856903
S 6.4606228621029596 5.733492146116296 3.1822420382375465
S 8.571534444249345 8.02264796753553 4.296535256458865
