8
Energy = -30.99726725 eV
S 6.6611792896312325 6.284797477537124 7.819149490872264
S 2.3082678804803005 3.3370278011992416 4.599185224175747
S 4.199613923837217 3.2939697812628177 4.953216587153817
S 7.863877128416258 6.258102257424579 4.979874913395038
S 4.918979308369019 5.003347770726451 6.016499833672551
S 6.191396906736987 8.018455968486506 7.111502999063533
S 7.217887403715011 8.12907670373291 5.108527414747225
S 6.120903730306668 5.178154262444184 4.337959086376366
