8
Energy = -29.06437508 eV
S 6.563586738681071 6.398389363734868 7.944008952013036
S 6.339801667305565 5.4799851188091235 9.70407639556546
S 4.715931469327948 7.127251571233829 7.9847399331684885
S 6.668444430319792 4.486710137616608 6.660273742798146
S 4.680331252795809 7.274452682908929 4.34996811922001
S 7.262174560819122 4.989111773339899 4.848814266979783
S 5.751746721151333 6.00360157841302 1.9711459660855588
S 5.237377150513301 5.442163729734335 3.811752211238327
