8
Energy = -31.23057192 eV
S 4.813775075360977 4.9901132049813075 6.2632542445677615
S 3.279237043281148 9.063132698031398 8.341574205870343
S 4.6590495088961585 8.195030949449643 7.306113600493656
S 4.802127716304465 6.100233951495109 7.93826254957418
S 6.874529622362816 4.703723493184492 5.719796173722043
S 7.199223925542075 5.689037622006067 4.033481261475062
S 6.772174956072647 2.406439225447704 3.254273783627639
S 6.857343566174221 4.117852724832577 2.4128956390609666
