9
Energy = -34.92293737 eV
S 7.573654900966771 6.062401080539988 2.756018425095395
S 9.17039409637694 6.098213116592891 3.7978465556957226
S 5.046087905655481 4.105357529579033 4.674195338586533
S 3.3133626246299257 4.52182752702759 5.509792989919889
S 3.095054327536638 6.625705586767806 5.547745857111312
S 6.310591040767248 6.9028518309352735 6.232973863821367
S 6.370788820544482 4.485280594341546 6.7192671955983325
S 4.526175743006024 7.191577301507284 7.004063045892161
S 5.04585503542348 4.336428085540464 8.06404676462587
