9
Energy = -35.82337959 eV
S 4.646132091467256 2.9305072620172474 6.032810018619763
S 7.580397609322223 4.935086163099375 4.701133300315148
S 4.619167561238238 4.711736248638584 7.232124766607401
S 6.988640112202695 6.864986132528335 5.723101885168088
S 6.322172271936211 4.445517763679857 3.29901594481246
S 3.216988092640077 6.075234742425703 6.615609255848051
S 5.586156951716883 7.825099307512865 4.69613091780207
S 4.460869874037168 3.382362494956025 4.122144132644071
S 3.780055967343004 6.697727046128075 4.73564257082034
