9
Energy = -34.91945801 eV
S 7.852569088703945 5.346857478130353 6.615209927635583
S 8.003037079448976 4.497360239115184 4.8088192640253915
S 6.71600646744583 2.6850746420067115 5.1364336892886815
S 6.182565480891368 2.9854157245258772 7.038428689156569
S 4.808979218556075 5.181750547613214 2.804965502764627
S 5.805651373663693 5.055954228911788 7.038964592701808
S 3.231984252783774 5.3529905011359435 3.8929116234348546
S 2.510172814977611 7.347208667127783 3.8087228687809964
S 0.8950442911054034 7.561543850700073 4.838582827669776
