9
Energy = -35.39905759 eV
S 4.191711366367457 5.278439436930795 4.067333085975319
S 5.957369532156459 6.136567178004878 9.394005030697274
S 6.881568399766623 3.4382188338516912 4.8045686037994235
S 5.372196909027329 7.9504749594863755 9.244233781485294
S 4.294096549091916 6.911908430158987 5.397148477668604
S 5.457557362119589 5.571151724395783 2.5656714560182334
S 6.240669929205018 6.93738118092132 6.135362161396878
S 6.557451094947966 5.369324660217446 7.31890615746182
S 7.334905289927921 4.506067024217376 3.2891005478100026
