9
Energy = -33.7235739 eV
S 7.961215660294964 7.122311070208711 7.007629074057728
S 6.149036195466088 6.49682831785976 3.488044496817833
S 7.045358312310631 5.433482692035989 7.259867355229894
S 3.9881811550748423 8.022778830063269 6.1720017432031655
S 6.264028334905635 3.1186232456488363 4.323250366077238
S 5.763069541453517 4.7234528481922995 2.930725431661399
S 5.186970816489842 5.641301401723967 8.252060303990154
S 3.763929543438787 6.198823181141501 6.776291691283928
S 4.249591861009297 3.610851380215916 4.06290473112427
