9
Energy = -33.77889667 eV
S 9.12845734438414 7.80343147794796 7.004310892976576
S 9.369747685254703 5.964278280449527 7.5247948662706285
S 7.8289398015632825 4.972601685247418 8.118160823356774
S 6.2787833670222115 6.531346687151125 5.142529986237833
S 5.7327035686646655 4.70063451144348 4.9098041292244075
S 3.4583058765282018 5.274718080931695 2.56429790115541
S 4.644635464658653 3.9484784053310533 6.316075848334391
S 2.1541520041547497 5.253010848910876 3.9912637627518066
S 2.3790342953677204 6.548920306527677 5.401845585539757
