9
Energy = -33.18596313 eV
S 6.121888656818044 2.69632070141981 4.095453618127101
S 8.593072101301688 5.05066740535326 3.4700770763954942
S 6.743280121059878 6.049105831710285 3.4802589154370978
S 6.9781780155623085 4.277698335831985 4.716518520133948
S 7.1284411403107315 7.003565875463094 8.173244786908914
S 3.5706270050965996 5.562549840683029 5.795445095982943
S 4.460638267558252 7.197649969354628 5.398020170982905
S 5.924160607451111 7.81120154536806 9.447397932378284
S 4.051321833829856 7.92109762835262 9.010696543198305
