9
Energy = -35.0959032 eV
S 5.417679127352391 5.274769504843082 3.2870136621123036
S 7.189600792868332 4.853701361073487 7.092639827754799
S 7.2643760610339525 5.058731462961256 2.8326580070226393
S 7.2773516737546595 7.519494278733239 4.861127131119423
S 5.3704472702889845 7.1423666795129614 4.70011195448183
S 8.006382202130094 6.639640408725264 6.759007482940866
S 5.278437010073934 5.122888495418411 7.9672619784393985
S 4.838409802802804 8.175797296850979 9.103481329001022
S 5.638257340589843 6.464013954409176 9.557854745012166
