17
Energy = -65.94985043 eV
Sb 12.204642473251686 6.83035705469679 12.632726746784877
Sb 12.070568043698588 9.6698251251829 12.33674675736575
Sb 9.680878696268936 8.115639517301998 12.203169723689786
Sb 11.495318730064604 7.771725737330019 10.012195861523745
Sb 6.256196199559438 11.640122788416074 8.785903296361903
Sb 6.397082863808054 12.16872954336529 5.942202469631597
Sb 9.363434384992667 9.34743722544907 7.263171327092994
Sb 4.118496314153763 10.907630834823777 7.1351332062943325
Sb 7.212289189812262 8.768761499969482 9.057389346584072
Sb 7.994417637223238 10.026423314742685 4.853103277945247
Sb 10.15821609839176 5.32941262669801 8.628913594055426
Sb 10.121824948948358 6.814175503137288 6.194167970098026
Sb 7.542145984371077 5.722665365508119 9.590838347839876
Sb 4.975867643805978 8.015794792366128 7.443859065870783
Sb 6.001363060474172 8.000841540292798 4.753548335371295
Sb 6.016734140997322 5.074558423095836 7.365357545553384
Sb 7.702689586314308 5.695018876767997 5.084114252086528
