19
Energy = -74.19562188 eV
Sb 11.633548273676247 4.793151655534541 5.927128955359279
Sb 9.779172292724136 3.2276795026458442 4.314082282410708
Sb 10.329082439101715 5.9910952351806674 8.166094372860334
Sb 8.334336755185232 7.235549892589315 4.5307951536183895
Sb 7.711196950673352 4.857036595713868 3.1229957030527
Sb 10.71223387626737 3.1679980614887073 8.176040415711219
Sb 7.681363072912951 6.621001058535684 7.25021213815876
Sb 8.493783828740444 2.1157633200664003 6.630750619647456
Sb 5.760631353310089 8.216308042263401 3.7129512503797617
Sb 5.470937373317426 3.8407181832706723 4.630489927051719
Sb 6.044564178024851 9.745565416471559 8.29590628270698
Sb 6.490943464438097 4.02698506077399 7.290765125075792
Sb 3.8501777822037173 6.226048226560205 4.476506296005288
Sb 5.1413051479421 10.275045867515235 5.621222663293034
Sb 4.890941193473236 7.253028163175213 9.151969537482481
Sb 2.4528866476204003 9.542262829776934 6.282098386886734
Sb 3.3714486021893166 10.937280110413313 8.67841364909114
Sb 2.856475901309425 6.814486719636453 7.187957295074452
Sb 2.4949708668914936 8.61299605838913 10.053619946135381
