16
Energy = -62.61849522 eV
Sb 2.8207464818992642 9.842496142167397 7.61848418263466
Sb 3.9544098507887955 6.200550436417565 5.940489228340542
Sb 4.753964741643559 10.313004322991935 5.562889059047387
Sb 5.50418508005672 10.784125520933003 8.290453491550265
Sb 5.925304135596085 7.8343037691860244 4.6800778699780095
Sb 3.4537936323324296 7.174362717381851 8.55772137424637
Sb 5.17110636676671 3.7990259010260723 6.916057219171214
Sb 6.076004621899951 3.0038066194323667 4.3182803625829544
Sb 7.935698862651588 4.748025223623266 3.0466016969917677
Sb 5.834371814107808 8.287336835328167 9.71809437645813
Sb 7.552318120369759 4.3076543386512 8.442936017734338
Sb 8.355432432194938 8.268241991404738 6.113631063446148
Sb 9.764037340863611 6.092082067551671 4.862818035030307
Sb 8.832971672214025 2.3418472216699233 4.497148804005529
Sb 8.253435097146914 7.079620807396885 8.694985348979538
Sb 9.812219749467907 3.9235160848383046 6.739331869802448
