13
Energy = -50.22039046 eV
Sb 10.070857381722671 10.925149842890185 10.168755583561683
Sb 9.817956475194736 6.430225912619938 9.008123048782027
Sb 9.372890402712056 8.321860355815234 11.108323350636091
Sb 7.379203730520899 10.705368463221754 7.121406675335937
Sb 13.241263148393603 8.02729480354803 8.851083763318268
Sb 10.283746554504809 10.674818913180308 7.3575276826244345
Sb 12.135567845306195 9.205773474335306 11.195027324201618
Sb 11.096732059794771 7.972162029000102 6.995832714621361
Sb 7.151912440700624 6.158579339011801 7.887674511594791
Sb 6.121772067829501 10.217521587423084 9.649429909567699
Sb 6.510074162513002 8.23288080040189 6.001195141858502
Sb 5.653179367104023 7.412942086377977 9.957617944063129
Sb 4.296767203002202 8.847686651681595 7.8302666093427105
