18
Energy = -70.76367767 eV
Sb 6.753912370625377 1.5976325099016253 10.572857259049075
Sb 9.207630808346526 1.9399591211046137 9.0938385952535
Sb 8.778483308954376 3.440800176298372 11.508223988961616
Sb 5.508182899871126 3.7714556992337083 8.967715651345607
Sb 6.873525580805488 5.4635409717761165 10.830649113758387
Sb 7.630075378490151 3.268870454569599 7.107144885726975
Sb 9.167370606028303 5.664163412500753 6.901920994913346
Sb 8.45705026764599 7.222931473181699 9.23405795516577
Sb 5.03783092349926 6.530357012986911 6.593104677151548
Sb 6.1740720730124625 8.637700610314074 8.22799196820762
Sb 7.368192790803362 6.745253191874472 4.9101645480689475
Sb 7.717866673238067 9.431790558960982 5.914580550965715
Sb 3.418861095305589 8.491068826453718 5.19418089799407
Sb 5.31824470313839 10.611437343358107 4.8497961682480994
Sb 3.519754030449735 7.103814890708985 2.693722208202252
Sb 6.110138600533334 7.5395705465519605 1.5471095083168795
Sb 6.099754556170168 10.352079326462684 2.1105276394477035
Sb 3.8590533330804475 9.187573873759598 0.7424133892217102
