19
Energy = -73.84582324 eV
Sb 4.29037940297378 4.2200413876228975 8.599657688797707
Sb 3.12667273825062 6.252823552058257 10.349575642675406
Sb 6.672046628949953 4.346036288202942 10.237432538425423
Sb 3.6669013498107343 6.835334964840886 7.619878088785404
Sb 8.738555440500823 4.945084843739558 8.3411784207145
Sb 5.702753907636271 6.67023159460081 11.647960012243079
Sb 6.071857490605302 8.620127487265181 7.4281399919330635
Sb 7.437964043967667 6.401238065260091 6.266814800682549
Sb 10.074321852083841 7.0233536123968605 5.289737982852016
Sb 10.11830205980318 9.478537234605371 3.8243608742968926
Sb 6.3344197523277925 9.052495319615105 10.25753407232585
Sb 11.841062025358235 7.4629849327424695 7.530308363906415
Sb 7.546755829569958 11.37149612469272 7.367546200947066
Sb 10.41029730434284 6.697125876335383 9.873946177833353
Sb 8.921941898747544 11.880262616713287 4.954014291533943
Sb 11.731192805146472 11.342028442540206 5.299457500972981
Sb 9.105332077227178 9.068942325257925 10.961689554473079
Sb 12.070742332235943 10.281819527047439 7.938828836514638
Sb 9.707233337176064 11.254700509161246 9.208050078603968
