11
Energy = -42.21058106 eV
Sb 11.095920142381363 10.381264491667103 5.913399155714007
Sb 8.425888358281906 9.569787072564331 5.230529150846687
Sb 11.035780852475078 9.064035516019622 8.465410961954433
Sb 8.308315354868279 6.767905021366538 5.74983763025186
Sb 10.070143020108272 6.426558505562289 7.970987948727568
Sb 8.916803174049749 10.880442394043229 7.748577040035213
Sb 5.753538013608253 7.038643832070601 7.067365690851672
Sb 8.242107331998088 6.594986977958056 10.198082547340762
Sb 6.135055203985536 4.960738424108653 9.055592094182556
Sb 6.469367228241708 8.70873015183858 9.320762108233561
Sb 4.590025910180417 6.861705171513193 10.551571333238186
