16
Energy = -63.02568669 eV
Sb 7.936736913679014 8.86128880815218 13.562215840601981
Sb 5.4867583087833225 9.211451096601417 10.623083132530821
Sb 7.113141425097073 7.008444181903946 11.481724420745099
Sb 7.119561961225527 11.172900501819397 11.920850359758317
Sb 6.077437078446962 9.800786380027464 7.884685099103502
Sb 9.80108811902637 7.986308359606841 11.520389832393393
Sb 6.102694672924245 7.092853711718581 6.970909946785188
Sb 9.629394203564742 10.69888801198533 10.617955835213444
Sb 6.74228500450563 7.982443524244902 4.356411176355485
Sb 8.848167053014734 10.643481747375237 7.855873940452556
Sb 8.63888108391576 6.180292828523217 7.897178622126261
Sb 7.492384793298958 5.3322913316317075 3.4810484746547967
Sb 10.355060691948502 8.325513877721454 7.125336825937898
Sb 9.530272700491636 8.754456275430798 4.444311999986997
Sb 9.184547805588522 4.466294254976336 5.631700934743044
Sb 10.296376013135886 6.110812153067829 3.5626546670692116
