18
Energy = -69.78925799 eV
Sb 14.050507422902625 8.278365502466933 6.905246770909193
Sb 13.966452729819567 7.9626132912032785 9.726541496717951
Sb 11.896711100715907 6.715988666967882 8.088003606838031
Sb 13.109800627401615 10.439842337984782 8.560153821342135
Sb 5.063495918926716 4.374012221191956 5.571436807027554
Sb 6.349231433882225 3.87320924950536 8.019123954483259
Sb 3.6866695401548615 4.950073432217752 8.02728854704397
Sb 10.46339147182546 9.191853899277422 8.272876421933749
Sb 8.5706455899919 9.306307146473477 6.137263132940245
Sb 8.024055528100673 6.313838812211396 7.534193404591229
Sb 6.149388963947727 7.291686003277658 5.654280996668069
Sb 9.099086759514178 9.373380368515333 10.789623175044769
Sb 7.272978349648545 7.2304137838174585 10.142948220512599
Sb 3.877220230108177 7.754770566472663 7.34753407472038
Sb 8.06054018070724 11.926718690320822 9.960471676949751
Sb 4.861844298454434 8.726776371798902 9.83037831485461
Sb 7.523569151156363 11.777814282937646 7.117897487356583
Sb 5.402931837140061 11.43856905243558 9.031865043628567
