12
Energy = -45.93023429 eV
Sb 5.461115574884729 9.848859438827015 9.792909234527315
Sb 3.981275575199504 8.169829811966848 7.96927628534924
Sb 7.0461515094716045 7.555228015279913 10.459048526160126
Sb 6.929923059699322 6.1130279579164535 7.966226789322291
Sb 10.382009029137272 8.38287543180722 6.097007643940414
Sb 9.768748616218247 5.902721740989958 7.376390161705165
Sb 6.7841137425457285 10.64646918450126 7.370465857768273
Sb 9.62415250270751 10.438961091300513 7.959917479062268
Sb 6.173735200955526 8.1634617445127 6.0961832912227205
Sb 9.50737990926218 9.003761255916237 10.456958037454601
Sb 12.569821480801956 8.386603024458996 7.975837354165348
Sb 11.089411820659208 6.706039324065795 9.797958781073588
