10
Energy = -38.44386069 eV
Sb 8.453472703062255 4.2660129092905406 7.2963912611751915
Sb 8.730068057826701 5.434463381738394 4.684510051272758
Sb 9.404295165603408 6.964733076457171 7.0201968711901435
Sb 6.500757676732087 6.690694995391344 3.4407401184061066
Sb 5.948260641537315 4.388444404616867 8.649449357011449
Sb 5.340814509182706 7.142609966741393 9.186351709716977
Sb 3.6933427850159295 5.6365362940230055 7.37826246378396
Sb 3.9691861357576688 6.810253344677328 4.799863620199415
Sb 7.143866702767702 8.664983571590271 7.5376958070263615
Sb 5.815935622514426 9.00126805547375 5.006538740217298
