17
Energy = -64.70966112 eV
Sb 7.491279340145211 6.774370779030323 10.29484009035423
Sb 8.665707060966444 5.073117139535327 7.475084286836991
Sb 9.103938064568542 7.849313222188202 6.9898527622356825
Sb 5.663822705453959 3.0280434094127187 8.737072764261244
Sb 6.331950934737163 7.872779745205476 7.904779759551797
Sb 5.4350099439943325 5.010852519030516 10.966470998279416
Sb 8.862461453355952 7.974684537083487 4.135957512493749
Sb 5.4716120102090295 10.059149218812868 4.114222141966364
Sb 10.822348949346292 5.956919392264557 3.4465972791973356
Sb 3.391403761445716 8.96671728384092 5.7405211695288205
Sb 2.924116439470434 2.54521261591109 8.867519704681401
Sb 3.693602194002022 5.286942881652283 8.680976760215662
Sb 5.915090139020415 5.299978962694758 6.548925148772211
Sb 9.525105345345944 3.8771030782424645 4.943433569173979
Sb 8.03511173178616 5.445043676620853 3.0451725502582456
Sb 2.7910347287015225 9.912673142260093 3.098761531704825
Sb 4.336412977399102 7.527349770310709 3.455627023260845
