19
Energy = -73.33507684 eV
Sb 9.049599882927941 8.765438761229511 8.215617605273355
Sb 9.482547187641657 4.311169322311669 9.367403323283321
Sb 7.478522175244056 8.351112250730273 10.557807072373729
Sb 7.330776648312728 5.492120659407442 10.840139285326085
Sb 8.849664237567994 6.0296829058891515 7.080009581550015
Sb 6.736820392065978 9.839834265697565 6.930273154053281
Sb 6.793744720038691 4.400763184900137 8.24174182336042
Sb 5.035061636306847 9.15349487759206 9.204057553750603
Sb 10.189718323602337 4.459936546439454 4.893108833110072
Sb 4.888717926035606 6.962147019934598 7.335306569710183
Sb 3.260749694934397 4.104765632628971 4.919342872477443
Sb 7.78001682467439 8.100369792116826 4.534282977519415
Sb 9.45993779979288 6.270067292904267 2.844521373148456
Sb 2.4492205319738805 5.244452410277472 7.408775256094009
Sb 3.7450601586515933 8.599221616586421 5.209565551530787
Sb 7.941010727095099 3.8848824659186305 3.196510426803238
Sb 5.982069574122216 5.42961381584501 4.751620482226348
Sb 5.360982553059238 7.623513744163158 3.038378130268692
Sb 1.685779005953541 6.477413435429063 4.931538128141767
