14
Energy = -54.63931041 eV
Sb 9.360200663535538 7.22269645100312 3.6852720914640043
Sb 7.894841776613656 4.941304597333816 4.64176758596091
Sb 9.868281933579166 8.99274808372694 5.8979089749671205
Sb 7.69235503028905 9.564135428817897 4.095486368338124
Sb 8.721894746886122 5.044783191007261 7.371001235077659
Sb 5.38270761152812 6.1198793493474195 4.0319930758246505
Sb 8.715961906794265 7.759170184413479 8.224110940515526
Sb 5.237789283761324 8.664539216737504 5.289087740516196
Sb 3.4471796549277376 4.524194672234025 5.426612853592941
Sb 4.403442231723296 3.020113009488173 7.655079483675663
Sb 6.076683068906685 8.800530179220033 8.012750261099447
Sb 6.558534827203318 4.306451113051383 9.104813816144636
Sb 4.902808434736 6.654057748083243 9.507310797401459
Sb 2.7373188295149204 5.385396775534619 8.05680477542086
