18
Energy = -70.85763973 eV
Sb 11.962054132467768 5.980328034649255 9.249514948654063
Sb 10.06031888110669 5.433038812660065 11.326641855931
Sb 11.27588960665924 3.2595931813694037 9.80758340528263
Sb 10.41017035147935 6.697968252170543 6.943008153133486
Sb 7.878234522940851 7.286941578960264 8.140758310509417
Sb 8.790121392784988 2.903670065649609 8.363002459272492
Sb 7.583392498636328 5.048493017003645 9.879203667563482
Sb 9.509798730312706 4.186351226729675 5.925183203856414
Sb 7.187629469378961 7.710281791029997 4.0708599019194525
Sb 3.4555841514829244 5.47436834652477 4.5532659406285845
Sb 6.915157999333088 5.590814335592153 5.980494742720229
Sb 4.841159360960679 6.89378809276972 2.507867628837016
Sb 3.8947540123215076 7.125270167913352 6.850431538534193
Sb 5.4525816597697645 9.286209323418536 5.799904520439177
Sb 4.2338053207828 9.59391826629027 3.219753571289303
Sb 0.8415333652377415 6.693593644218601 4.113324724507094
Sb 1.2786987639769478 8.361750464141886 6.448395809184977
Sb 1.4291157803664976 9.473621398906404 3.820805617735135
