18
Energy = -69.70724579 eV
Sb 8.382520064540142 6.988300994910573 12.694185376828393
Sb 10.238401804767168 7.7710349210230625 10.659967966431745
Sb 7.110025400140915 9.49185408326601 13.321123209030905
Sb 9.599196365827144 5.519381553588145 8.995011806734073
Sb 5.784582817582919 7.584314200478169 11.636303348480007
Sb 8.471117304478977 11.295774497659217 11.534541822057813
Sb 9.340237368112836 6.9122138440041985 6.4955227992521225
Sb 8.829107603235238 9.75083356606521 9.154855808008968
Sb 6.980902450538211 6.075771896801909 7.909705977453987
Sb 8.282053239013598 14.761632686933108 9.656234274221378
Sb 6.223953756065411 8.627366153166012 9.019439655631697
Sb 9.397743581718338 4.384796427229284 5.103461819517483
Sb 6.300966043262063 12.81892361642816 10.373625568412331
Sb 7.697779828962994 12.842650326833514 7.873448136145533
Sb 10.151044502171306 5.4973457226508815 2.516575199720606
Sb 6.764969810303201 4.746871514589813 3.9444073660918946
Sb 7.641248854743835 6.906166865734557 2.2380427722955014
Sb 7.863699455112892 4.225073012529622 1.3066182236413282
