11
Energy = -42.15211688 eV
Sb 5.642688347924662 9.83250791694835 10.96896046632878
Sb 7.302474334711514 7.441126719096152 10.460699224345435
Sb 7.230579819662638 11.386074065634169 9.118274026316955
Sb 4.904073230618476 9.973817572041792 8.176963601368028
Sb 9.211795935130652 9.372662855475033 9.548313108724729
Sb 5.662990866264487 7.2192481453882875 8.123153024892924
Sb 11.074936983500727 6.224856784554313 7.461665835001136
Sb 9.772554362195788 8.746335826336745 6.822402063408666
Sb 8.735161104485169 4.778845363146639 6.564726240798974
Sb 7.4336786426518575 7.290114125051192 5.886429934358507
Sb 10.776680812978924 5.505926089356449 4.735056039221371
