14
Energy = -54.35267967 eV
Sb 10.568209516415415 8.087320752164207 7.545175940446126
Sb 10.102954314672148 5.760573460258273 5.959357247401167
Sb 11.558764877688532 7.973334427746182 4.85645974613053
Sb 7.13253164891248 6.131035932649263 8.93216444993903
Sb 8.742272245064035 8.197556639887985 5.350036840295264
Sb 6.626635882214396 4.125920442275348 6.953307837469518
Sb 6.209592817726361 8.684581150853655 8.103372290024142
Sb 4.615393422916486 7.046952440550643 9.94927330278202
Sb 3.780545967303698 3.846598829614877 6.990121464800261
Sb 6.614620667424963 5.072346585426878 4.227504527084545
Sb 3.9597344576629454 8.37469296895049 6.293461337009819
Sb 2.7280272905217346 6.340585866085616 7.857615398030339
Sb 3.7651130435622364 4.3190005434577765 4.127413027011459
Sb 4.595603847914837 7.039499960078765 3.854736591575737
