10
Energy = -38.40129123 eV
Sb 7.7431712917675535 8.111211330774083 6.341891173841918
Sb 7.676893579771355 9.574103975143094 8.803792943789809
Sb 7.485277932546151 5.573044355083988 7.72171307193081
Sb 9.764407224957774 7.915240633503422 9.94319906175334
Sb 11.22028598474325 10.333683490547058 10.639674381069339
Sb 4.8580067410814 7.765405577463739 6.145932521105124
Sb 11.803514468734546 9.000545629538385 8.196979697495253
Sb 5.227434371760392 4.911768280783248 6.014493543534264
Sb 9.983795355665432 11.249856637317786 8.204829481608096
Sb 4.764741103658097 6.139441240052595 8.538034853044447
