10
Energy = -38.78750425 eV
Sb 10.230584526580454 5.808696134332903 5.247173369934454
Sb 8.855061762648122 8.205828962513323 6.02186940831494
Sb 8.928919483193063 5.9677006552848 7.818171178933014
Sb 6.265751877309945 8.12329043313031 4.799190803575884
Sb 7.980341486824105 4.128100351282544 5.8247150477769365
Sb 5.704470127968523 5.354756072240502 4.582721659891434
Sb 5.049407208346256 8.860416460979337 7.285095507887898
Sb 5.136124599461758 6.534935178465796 8.964234691594541
Sb 4.1326561267338375 4.800839951181881 6.907920044939796
Sb 2.71668280093339 7.2154358005882075 7.548908287150549
