15
Energy = -58.46122652 eV
Sb 10.097272930063125 8.862269100486584 3.531455043270825
Sb 7.625003541494978 10.351289563147933 3.708605219242921
Sb 6.953849148282101 6.383561983466504 3.857920661875089
Sb 9.528880600777505 6.4824579942468885 5.147562339274891
Sb 9.700501748963857 10.802526956589034 5.585038498119345
Sb 6.142536303184937 8.592359265945563 5.539881226499597
Sb 5.726300551879859 4.085421013578219 5.172406125875991
Sb 3.446760512145831 5.504572381050102 6.03703476547979
Sb 8.486847516363927 8.24678086063636 7.177704292956147
Sb 2.6416711098708094 3.33776430994586 7.791197775639217
Sb 7.23068285693144 3.8626284957776735 7.574289661742223
Sb 4.32183177642775 7.077426919537521 8.278068377173057
Sb 6.968936429438518 6.340285574376167 8.926512429675077
Sb 5.101594709603214 2.6747907125281745 9.11114094913806
Sb 3.52733026457153 4.895864868686953 10.061182634037756
