16
Energy = -61.75395843 eV
Sb 9.066964307312077 2.5050548216943462 4.424944895092262
Sb 9.622442918007776 5.037390745966695 5.708509897090907
Sb 3.480942496666132 8.107488290381426 2.9897023990331317
Sb 9.711317362836219 2.5703495167258072 7.213834343505688
Sb 7.179102522146499 1.4729989985318113 6.343419713101719
Sb 6.151132155970106 9.009769423074763 2.7511651783078195
Sb 4.860631876923571 5.094842589885283 4.844459690367792
Sb 4.126259408976359 10.672070726150375 3.995693740290227
Sb 3.153875067885789 7.108123869628044 5.931001016240574
Sb 7.20209467178559 8.996092769467916 5.458411198423079
Sb 4.748656493388515 2.961661641657522 6.785073221903643
Sb 7.075686541108273 6.227634832587764 6.206556230579916
Sb 4.678845398423848 9.455085377486492 6.681665955630376
Sb 3.7886090670418415 6.629517898009381 8.962522678242765
Sb 6.61517328902644 6.622985609270578 9.013968838925793
Sb 5.168803457265117 4.162306382486872 9.355283594604098
