10
Energy = -37.82156742 eV
Sb 9.822916777635617 8.482427584611282 5.747037069235294
Sb 5.078247734048281 8.52161806199026 6.154028763815979
Sb 7.530493892619046 6.709836531412634 6.260631993695637
Sb 10.436546648373842 5.9539576867216875 6.888969374389253
Sb 9.757777310070468 10.373685261335522 7.803609292955851
Sb 3.985477325305009 7.065807017149449 8.289949444665424
Sb 5.48250560086243 9.436061757134278 8.803833998511603
Sb 7.020529882266501 6.96266130171937 9.073476851042855
Sb 10.052616721808935 6.237418022240714 9.602926856906802
Sb 9.542518492438047 8.966157161112722 10.085166740209724
