15
Energy = -58.17233484 eV
Sb 2.7990764997631814 8.552632814636986 7.505929101461539
Sb 4.140535848694484 7.613298514816332 9.862329575072767
Sb 6.117963940323995 9.570519629527142 10.5142523545969
Sb 6.463528076156343 10.962842853691082 8.041364862739234
Sb 4.918439129638051 6.591035370341324 7.2988880705353925
Sb 5.248053381021073 9.198104939924448 6.133773892566233
Sb 8.398256926373907 7.830062370817862 10.678914526593744
Sb 8.526791852983658 6.132916887356397 8.364784724469974
Sb 10.134299088126937 9.92691966409261 9.892041896120633
Sb 9.215961568826975 10.458699982594135 7.226940498815665
Sb 8.766788292338072 7.88256152005505 6.108258095862437
Sb 12.356504452219644 8.089340697927483 9.868446748598743
Sb 11.230238296408602 5.522264210812369 9.160821027659377
Sb 11.473204025770613 7.957514419663374 5.272411165405149
Sb 13.011715354716609 6.849049665280007 7.334085697260855
