17
Energy = -66.55400003 eV
Sb 5.2730271262951485 6.838740339148761 11.454827300485826
Sb 2.6191537243940255 6.8180736907235255 10.348669665112944
Sb 6.9720665719204655 6.9208703394274105 9.091308719163719
Sb 4.1011343810679675 4.357809817099726 10.492825936985383
Sb 5.417909078637796 9.025361623486036 7.966912618279188
Sb 11.08117290286746 5.084043557165423 4.850945941852805
Sb 5.81180066859829 4.480091881583568 8.139815387617077
Sb 9.51216226104872 6.836259221849706 6.539288321584765
Sb 2.8900331434352218 7.7454131662120895 7.647057151247751
Sb 8.398418519532436 4.346164833528868 5.6604824098675035
Sb 10.784821875360784 6.156391299174402 2.260901280996699
Sb 5.753660160570798 9.058943780486358 5.115581169889237
Sb 3.6129626839712756 5.237852642987887 6.498128809175437
Sb 8.588085792837205 8.801294376377612 4.672272339287815
Sb 4.6260525245613415 6.55054260277025 4.1537110974007545
Sb 6.875150758101114 4.9617388883872735 3.315396110246475
Sb 8.182387826799044 7.280407939590821 2.2918757408060273
