17
Energy = -65.67234088 eV
Sb 11.196694805884455 8.485116078634402 9.952097165337046
Sb 9.496607015119137 9.718974258551388 5.776560429783527
Sb 9.579808943877172 10.822009812218633 10.31292763634764
Sb 9.894881062133749 4.206779129523601 10.01250542879959
Sb 9.578914677108582 8.749249592887796 12.2945957676513
Sb 10.28319491694354 6.40913132082239 8.170987789667876
Sb 8.881023624312396 10.147608832190306 2.995750580625025
Sb 8.249741640003077 7.628285271357741 4.246006020598938
Sb 7.462257620895128 11.528516257110624 6.692509640775703
Sb 7.5138837244348835 6.353976878579409 7.4692643490866
Sb 7.176819243066425 3.901580794000255 9.013814439677333
Sb 6.860909855664512 10.673277943296736 9.389404448203889
Sb 7.646982832261664 4.730594824948313 11.707347828974166
Sb 6.990087483595183 7.507041303288765 11.890131844401127
Sb 5.9760746553922495 7.962785317788213 9.266037857649653
Sb 6.120803406205385 9.315463486448817 3.2796564289107897
Sb 5.109256050289449 10.363634655623887 5.696805697306712
