11
Energy = -41.94141604 eV
Sb 9.601403950789877 7.456813600221512 9.461574319379665
Sb 8.574600766177939 5.179655258430574 8.078289544461073
Sb 2.8809169571519573 7.420918023134474 7.364812411677248
Sb 8.585781133662453 9.739897412807991 8.078483372863285
Sb 5.710619703905987 9.584739844362078 7.703424770421663
Sb 5.694256188558838 5.336076681502699 7.700398784872835
Sb 4.821128252615295 7.462830882138702 9.477442740933173
Sb 11.534681614990383 7.446606078590901 7.240249650636193
Sb 5.279147785532384 7.463830020785434 5.7706884129147
Sb 9.665291287311732 8.887983800280683 5.564061849456556
Sb 9.653424078274943 6.022241536926122 5.562167281564213
