10
Energy = -37.93510225 eV
Sb 9.152601546008375 9.603199278908283 5.70423137277785
Sb 6.498653668060405 8.513255247157964 5.753786710088912
Sb 8.45810779803065 11.367493398974956 7.802025492631702
Sb 10.182685100120427 7.126989080192314 7.321076061934477
Sb 7.476184505545864 6.0488327266564665 7.408929344556489
Sb 5.79232124534799 10.259639794206704 7.853102965120683
Sb 9.517019736253514 9.008977212352091 9.450612275716107
Sb 9.43782516571285 5.258460296315985 9.663320130448671
Sb 6.796320372829538 7.910236943804158 9.54995238183272
Sb 8.814635545012656 7.029270704353452 11.61931794781479
