12
Energy = -46.96352931 eV
Sb 7.710279522108274 9.838762467040752 5.814386843435756
Sb 7.0467326419711 8.341321998024725 3.4285980870630355
Sb 8.350310350357894 7.937951814649122 7.854584605734412
Sb 4.939255782854466 9.446692937360039 5.076796442588099
Sb 9.061391457639168 5.675689133851649 6.267709803320742
Sb 5.755087693502794 7.437590406030268 8.926680113350752
Sb 8.055945664563925 3.5384268468474445 7.894632306200878
Sb 7.244622470408084 5.559299340417414 4.077850113265578
Sb 3.9377960961882863 7.330666978366732 6.72855498167271
Sb 5.983567796912984 4.656868971091196 9.579956096394305
Sb 5.2684854191013635 3.1680628235208195 7.202507756177092
Sb 4.646525104390872 5.068666282799045 5.147742850795994
