18
Energy = -69.87034854 eV
Sb 2.7436766852604793 5.586799312491178 4.638580478539967
Sb 4.782777062710713 7.742756727579164 9.173487631424125
Sb 2.747818887171647 8.672809276189476 7.406378455653076
Sb 5.014311671477709 2.0832166551227784 5.38796225728628
Sb 3.296013400586173 8.370362620276302 4.6121810852323835
Sb 6.1540749902715035 1.2350064219450632 7.934769276218517
Sb 4.731121908257104 4.738268248478409 6.513693981307103
Sb 3.896847567311654 5.035073017846957 2.0294500913768134
Sb 4.670589811039821 10.54263562524121 8.360488662965746
Sb 6.8751162327683675 10.230270152301403 6.493632582360607
Sb 7.347419789878902 7.804219917548548 7.821238968083587
Sb 6.136114087960322 8.305756194561724 4.268897802592372
Sb 7.141923097575706 5.870415460915425 5.421553107933507
Sb 5.723676070927047 7.197981592574193 1.4693253624543778
Sb 8.658608398750975 2.5902128368953 7.429945170521385
Sb 6.6937036074342995 4.80368445501079 2.537964759076144
Sb 7.8389825221498795 2.055288154394601 4.6972919381688225
Sb 8.31986753889125 10.54263562524121 6.57293476260307
