16
Energy = -62.94891948 eV
Sb 8.871978297419258 7.914167892940338 7.813774963355818
Sb 6.327585420291111 7.9480935978937675 9.2008004608813
Sb 8.614117108202985 4.410130946940579 10.310926825941607
Sb 5.879851766750697 5.230587630236773 9.995849855766192
Sb 9.715062099035572 5.176443029555378 7.77829865239642
Sb 8.258309297529427 8.388634106930969 5.051216397654958
Sb 7.706884783448626 2.0482653287738373 8.813550540842524
Sb 6.104698069118039 10.099093115818357 5.791224671867712
Sb 5.436562474039346 3.5239015042066706 7.72795425107426
Sb 7.933030846735701 3.486734833866031 6.286842161470825
Sb 4.349073903517048 8.323568330300828 7.16109360225332
Sb 6.880797902293609 6.098186367449965 4.077893235415379
Sb 4.727488533130015 10.015357889549232 3.2707620008653193
Sb 5.679804203991172 7.661585283766205 1.930537696701706
Sb 4.37592064729802 6.0496248841917515 5.453073686292017
Sb 3.138834647198498 7.625625257579054 3.3362009972200695
