13
Energy = -49.18990958 eV
Sb 5.363397981471302 6.787253146567026 4.30241903642168
Sb 8.138453731096032 7.568681302713774 4.4607995527974555
Sb 6.968605476128745 10.073184642873938 3.797197533034856
Sb 7.8738787341800744 4.37198230676449 7.3274172587449415
Sb 3.277834869199592 7.972976224308937 5.897769868391308
Sb 8.475973502015306 9.803808464351311 6.2014943366075945
Sb 6.8243096995429715 9.433216426338616 8.51356988498337
Sb 9.960566798063173 3.911310653228418 9.241780788366107
Sb 4.386509463267097 5.427929319467614 6.663287838661344
Sb 7.494346571164316 5.17961287661424 10.06820628743244
Sb 8.837306539891058 7.733655636902356 9.751895223991198
Sb 4.581656703873877 7.676861859619422 8.447278138145748
Sb 10.03416693897903 6.2765341491229565 7.543891261294651
