14
Energy = -54.55803469 eV
Sb 8.817080269896199 8.144936325575895 6.595871484486413
Sb 6.049188468288947 9.000624615946883 6.324082620502299
Sb 7.071613458311334 8.817462439396214 3.6394170334638147
Sb 9.335165734915538 6.252538911998983 8.7116699041633
Sb 8.527701225834981 6.431788324186386 4.281944441354968
Sb 7.603679135100368 7.200320385294265 10.8223123021219
Sb 4.854741290857829 7.792384810794924 2.1300710317194667
Sb 7.305912149453804 4.421739198512777 11.549369425157423
Sb 4.610076032312304 6.556137092310011 6.462781002769572
Sb 4.759676601397013 4.9935268045059304 2.734023800138413
Sb 2.9742902625942316 6.847110319691354 4.062180716534849
Sb 5.30973516096112 5.684392723629095 9.903653414396715
Sb 6.3929101087440205 4.7465276532629535 5.142747775931755
Sb 7.38823010133317 4.110510394895499 8.63987504726013
