15
Energy = -58.57138527 eV
Sb 7.013085464969165 7.5710307638282135 3.8372074337563205
Sb 6.740249435697548 4.803340517356923 4.638162231843531
Sb 4.283648764165491 10.91533512413582 4.601001804915635
Sb 4.216753649173127 8.122606402717034 3.9021861133377413
Sb 7.052046965281635 11.392644992577466 5.115145832336248
Sb 8.01628463707354 8.93259356503087 6.129568847041088
Sb 9.164050043467974 4.604809823988077 6.079818381576623
Sb 8.475581537224967 1.8987541176015335 6.8197223959990625
Sb 3.569642379507535 8.933276449442197 6.567669638687495
Sb 5.973975893415537 8.9257629585042 8.107301640590006
Sb 4.801581653883578 4.731371362705525 6.720761477658499
Sb 7.940805200796756 2.7999351324810355 9.532290989584455
Sb 8.62195156334985 5.506203627455161 8.775352897020175
Sb 5.7613447635418025 2.215428418685046 7.7336718809133425
Sb 5.868998048452451 6.146906743491855 8.940138434741055
