16
Energy = -62.54979102 eV
Sb 9.726194365959598 6.8021681803835 3.582091719757876
Sb 9.156749856195535 4.821697840373688 1.5417129175913822
Sb 6.912144543423665 7.487613098984518 3.6917492754789225
Sb 6.516501051589889 8.854692925780192 7.0705466893555675
Sb 9.267633311299079 5.039528956817129 5.827523727974903
Sb 6.537041976108011 6.0046014485427195 1.1673300577293249
Sb 8.895229237257007 7.242447171486678 7.6532263939593985
Sb 6.823413347354343 3.5150306172655776 2.5837174153812246
Sb 6.491642598320817 4.977732716230868 5.080664570739544
Sb 6.773458792579789 8.794541267522433 9.960690780968923
Sb 4.3604295714636 6.9791213548670346 6.838808553401388
Sb 7.506244887871658 6.0241964236426355 9.887952088359265
Sb 5.181930557604328 4.921507449689288 8.64161047258242
Sb 4.119668282957101 8.632382909570193 11.029186935079041
Sb 2.44117681000229 7.987707517885472 8.806847403080246
Sb 3.290540810012728 5.915030120957692 10.636340998560028
