18
Energy = -69.83361751 eV
Sb 11.491977680082869 8.521803312648913 12.29623635115602
Sb 11.01186483332332 6.882742957761734 10.016456993930147
Sb 10.128691153039522 9.577218098481488 9.923493116891992
Sb 9.316264703819986 8.173082593805692 5.985426628381854
Sb 8.964154914726738 8.64106460476053 13.746905763447405
Sb 8.960832292699335 5.196826895722871 10.999737402478095
Sb 8.934132742944772 9.932863778395706 3.3884141005488417
Sb 7.618056535599374 9.640427777217308 11.346837458843073
Sb 9.31230360951403 5.301148315168479 6.674740149286364
Sb 8.123810315469253 12.290131929774082 4.4498734238801845
Sb 7.17065040415581 6.983943309326174 12.281789064164979
Sb 7.321831482782989 4.768382964364508 8.630896434183104
Sb 7.7088127047941475 6.298653869307463 4.520135055384834
Sb 7.364903959324525 9.373225099366516 7.727873327381283
Sb 6.123134034689532 10.57532106859538 3.4210334738482744
Sb 5.71109054134095 7.1263749951112425 8.44861792414205
Sb 5.083623548999693 9.55144452783965 5.930951815233654
Sb 5.080263911502083 6.678956542261175 5.687819211228183
