10
Energy = -38.82638302 eV
Sb 8.872691624628299 6.531084743487899 5.5226625045333835
Sb 6.5358500013661365 7.217550419488948 4.043467594366691
Sb 8.54165408511317 8.758108318681884 7.349370132564837
Sb 6.490731013176298 9.728120233817904 5.5211348672386285
Sb 8.221250957092236 3.9810669785675055 6.636345059005159
Sb 5.562951719259686 3.3277245837601526 5.836327746043252
Sb 5.8278735141763915 8.957284763574009 8.18535237043986
Sb 6.146876288713942 4.142719568655741 8.572308241716767
Sb 4.334111110919448 5.90928970124849 5.268440228244143
Sb 4.466009685555023 6.447050688717825 8.064591255847633
