15
Energy = -58.16884958 eV
Sb 12.914125799941505 6.646869170109695 9.57797951316756
Sb 12.26760192091503 9.373510644875235 10.177078533652066
Sb 9.79984498732658 8.198742369708034 10.990805072870014
Sb 11.848447740296207 9.755607945941033 7.336731362612027
Sb 10.342870453651084 7.3970331780598215 6.624340222524422
Sb 10.115761065667588 6.0359968347145765 9.135540103012689
Sb 8.988831325172931 9.898494412957602 6.961128538938597
Sb 6.736468445049024 6.434943808563844 5.876547912146906
Sb 8.167350762256623 10.129766082134655 9.696964620438115
Sb 6.414476962644768 6.102927016592566 8.673208766579615
Sb 5.730798828421122 9.099841475738529 5.302832319041828
Sb 5.73419650079907 8.593372437847542 9.851592075304088
Sb 4.18012436933165 5.573076658951051 6.962168190375245
Sb 4.594133130841347 10.076846319640108 7.719790593717068
Sb 3.106341641048517 8.180839609965796 6.219205617398912
