15
Energy = -56.49742459 eV
Sb 10.404753884156236 6.486178131484867 6.310818357499971
Sb 6.203930360921988 9.32505092389403 5.510272483752857
Sb 8.480992398415985 9.726440476452698 7.322618728850101
Sb 5.290626610242467 7.553678323424696 7.249490385586459
Sb 11.431977925730633 9.227678111471693 7.750120884206411
Sb 8.409649765084588 12.409229160395384 8.500036708431896
Sb 8.166920446285491 5.322012971328125 7.581298941019229
Sb 10.816185841450325 4.934713027292155 8.637956198157706
Sb 11.199639053383962 11.932768288941816 9.075482020472924
Sb 7.608366638248162 7.76167619435841 9.2435735925565
Sb 10.614652300695399 7.627882677717964 9.898063947330675
Sb 7.882979704756189 12.19043425313007 11.348574287757431
Sb 10.71190640042144 11.7845859705821 11.919109770022837
Sb 7.369208906338084 9.40586545587754 11.861495007805804
Sb 10.10929556212036 9.012891831900644 12.492174484800396
