17
Energy = -65.02221838 eV
Sb 3.7954231766531557 10.462884213657535 7.622610630766413
Sb 3.6314966591849815 7.713398061863958 8.506839779015387
Sb 4.4089137614076925 9.279553739260765 5.056044754832332
Sb 6.7764351257875 6.416759253489985 10.009551272618143
Sb 7.9342860965911015 7.385711500751399 7.3686931199227645
Sb 4.893397797100916 4.381345680090339 9.16177069073047
Sb 8.076561503390908 8.993885442107628 4.783720270832477
Sb 5.28947805816432 6.79456465310298 6.303109793174922
Sb 10.258717215275304 7.234041602175735 4.547751206209471
Sb 1.8951489862785598 8.737126724052443 6.405141162669933
Sb 8.94758279388806 4.641099560484163 9.666673739278908
Sb 9.127303911517503 6.22850088965933 2.1238560559987487
Sb 6.57224716282351 7.408947732844916 2.850459475646657
Sb 6.259295322229736 3.287829437194368 6.86814470355102
Sb 8.781760314776907 4.777999511614685 6.43285804527509
Sb 7.061939608236071 2.4902748185045334 9.538583870030502
Sb 7.275214674614835 4.761440388759243 3.7532579207011483
