15
Energy = -56.29655559 eV
Sb 10.161586870969593 6.835749008245843 4.2876644621626525
Sb 8.928497248395963 4.889249231839318 5.956014208750023
Sb 9.252648950213718 9.32048401905942 5.277456225009141
Sb 11.637993858897296 5.4839469196795525 6.9200713450959075
Sb 11.584181366921694 8.45634489736475 6.8633168260865345
Sb 6.545429705823472 8.320379442982539 5.8316771595224495
Sb 4.912796193009324 9.841083114926922 7.550096640610964
Sb 4.199657847664519 7.900346954748122 9.39526674056076
Sb 6.345504850900733 11.382365542566678 10.297484219059376
Sb 7.804312097186117 6.767135828184898 7.848099075282651
Sb 10.770106392910806 7.057257792438678 9.142029642091506
Sb 8.646603660292307 9.780068525772517 9.647328184656773
Sb 5.677828686949726 5.590685038560101 9.267987838647297
Sb 6.981807551957 9.092944711614276 11.852185195118166
Sb 8.695372506645013 11.426286760753804 12.007650026083212
