17
Energy = -66.50149118 eV
Sb 6.5159589534402595 11.416476815036546 5.242073714660091
Sb 4.3563986617622925 11.142662633993933 7.108777754223467
Sb 7.087266680663571 11.473332837371157 8.054031833347983
Sb 7.590271477671095 8.956026464457954 4.235244611358061
Sb 4.4134167327308065 8.502540191506665 8.243221008704523
Sb 7.240927119800753 8.633877334496171 8.790749491734683
Sb 8.977411114664344 8.232186063724061 6.596341285729873
Sb 3.581184121349721 6.912913590890962 6.015745591327723
Sb 5.4015646139903835 7.140913574073368 3.786094115517976
Sb 8.689290708637708 5.2159619196421065 6.380131955853017
Sb 5.090532228644765 3.185236108342874 4.874661850421591
Sb 7.17602506303884 4.903154014824196 3.9664630875994047
Sb 6.828879744158345 4.986913429597784 8.529659330537427
Sb 4.311940300618218 4.445718213015162 7.299306735004005
Sb 9.223267877947047 2.144771587711803 6.498635485707249
Sb 7.41317029026978 2.1250189744525056 8.719852248353625
Sb 6.60249431061177 1.0822962468624544 6.159009899918998
