12
Energy = -46.44004448 eV
Sb 11.170180134759788 5.750332025260023 9.30628888143356
Sb 10.062202728734547 5.573387205722048 6.687705959793281
Sb 9.607679845250521 9.790402556685745 8.086499622140478
Sb 8.927142710048956 8.089263076031969 5.8916027363649555
Sb 9.917100852996393 8.132027208255034 10.384698565670496
Sb 8.57384435560927 4.474658325452365 8.86567504444538
Sb 7.471870503013581 6.607551898864853 10.494106211455485
Sb 5.468768702107389 9.824672939701008 5.060123326009098
Sb 6.192573982370038 7.348035119938527 6.301379148229114
Sb 7.053985660974109 10.57956327281886 9.149568123605906
Sb 6.061941280417915 11.801145813541357 6.7582860753668506
Sb 5.583294054592468 8.142680955258287 8.949391394114983
