11
Energy = -41.63332464 eV
Sb 7.946199359719445 6.773881737683548 9.459945784798498
Sb 8.337925846041278 8.90968008880653 7.582255850684797
Sb 7.867970252113167 4.5017075406068345 4.838494994345631
Sb 4.413210871187192 7.860577843735109 7.520642151354761
Sb 10.335150598020842 6.842270166880449 7.888612201954641
Sb 5.001242435646752 4.450276565782452 4.500448955959867
Sb 6.513730089760976 6.7096333076854595 3.608227092787738
Sb 8.54095437673799 4.611490537756658 7.623114649485529
Sb 6.274851587732514 8.776817241910795 5.5553509496528735
Sb 3.9604773797310973 5.0712226023828535 7.102803025622935
Sb 2.3082872033089386 6.992442366768907 5.820104343352325
