10
Energy = -36.93990341 eV
Sb 12.305131901977035 5.498437257875193 6.77166683548347
Sb 6.8752058308193345 10.32966978309741 9.198753190100234
Sb 11.42292138248682 7.891244833753637 7.997564619929365
Sb 8.899662599795606 6.5504366082828405 8.773028823019946
Sb 8.986472824949518 7.886431047131731 6.298833653923277
Sb 4.027188182172637 10.324667673566621 9.080341361440292
Sb 5.4298082776752965 7.932522045169836 9.930983512569595
Sb 5.765584523301649 6.962492029950026 7.230361143197591
Sb 9.499500714892239 5.028363967318423 6.370984896377947
Sb 5.561405491708701 9.789220803404248 6.677929123526198
