11
Energy = -42.01436794 eV
Sb 5.936125681414184 4.505065638925721 6.843456833335333
Sb 6.174918429557818 6.0639675895049105 4.686992989656118
Sb 8.161436058964979 8.024968276265573 5.2824712989794405
Sb 9.784704991052667 6.543113015684301 7.087889017022266
Sb 7.768269219925918 5.494330141731884 8.795915903913086
Sb 6.569257899552327 9.554016050760882 7.112501717248023
Sb 10.541608416938262 8.775974236919103 8.796768192008274
Sb 6.299085093262776 7.874443539354667 9.431033327084354
Sb 9.018327584604132 10.951674363437736 7.6457189375177235
Sb 8.62749691353417 8.564120433313287 10.959431961628622
Sb 8.69750191510403 11.38472847275587 10.459831526509284
