16
Energy = -62.01662315 eV
Sb 6.03854018983644 10.131288217997287 7.136633472968794
Sb 6.25306060834866 9.403030297015778 9.946095185308499
Sb 9.358203837695136 8.037217657186217 4.663702579396963
Sb 3.866259448943225 8.808645425160947 8.502634382925063
Sb 7.800463249705668 6.591400083222306 7.74903631650766
Sb 6.5863297709838715 7.789465852410626 5.51858010620556
Sb 5.500642835298993 6.628938227256049 9.520629798925693
Sb 10.393052143311262 5.413149579701517 5.34479875734167
Sb 9.238897322661266 5.923746535303876 2.7401504764241325
Sb 3.6933767548282668 6.154682627423563 5.809730618810329
Sb 4.4376422680470045 3.8212689515771734 7.310316704924312
Sb 7.17562091165146 4.100979497314214 3.6388647751255223
Sb 8.025942370603614 4.034841894335552 6.386934788797604
Sb 4.492155763058099 5.017045858057256 3.2567195556306423
Sb 1.7736482617739664 3.9674203420271983 6.250636111230087
Sb 3.787431151033342 2.6123917173291273 4.71848184734147
