12
Energy = -45.48949437 eV
Sb 8.38520586594071 6.680183859631374 6.427753366286555
Sb 11.271763220077199 6.5958107120044955 7.082238679709654
Sb 10.439352639805362 7.763321372097914 9.643527703621638
Sb 7.924956863731052 9.528056640579262 6.16439552281106
Sb 6.516175562753543 5.669250409856783 4.442094805707758
Sb 10.821606302470043 9.352016458688876 7.333704932898298
Sb 8.481151289468123 10.200622429512435 10.844820302249257
Sb 6.671572360306565 8.742148786005673 12.317968383978931
Sb 5.264135537232091 7.9946690771290445 5.493895804662136
Sb 5.573776789234343 5.758952171520641 7.1525765088274555
Sb 6.542863243301705 9.982223661172139 8.72739407565686
Sb 7.35533739395003 7.496479604075229 9.80833455809511
