10
Energy = -38.07471579 eV
Sb 9.386864681649504 6.222920839281166 4.470306179720787
Sb 8.517374344741024 8.722882548660516 5.65755173730144
Sb 6.021593021300029 3.9839959033030263 6.384902546257369
Sb 2.9018792412741363 6.718475995214276 8.871904599407554
Sb 3.685498740189775 5.924019039460355 6.374095628424153
Sb 7.226974938269023 5.438946054085083 8.495180285808836
Sb 5.701641099711624 8.118424713662833 5.204412062750519
Sb 5.4135973467293494 7.726708999701584 8.145386360944398
Sb 6.601810907708198 5.572686322391361 4.100784766567959
Sb 9.542765678426882 6.570939584239066 7.295475832816531
