18
Energy = -69.40336239 eV
Sb 2.6078778634672166 6.71639462885375 3.746448324379408
Sb 5.779637246523188 1.4134171013500343 3.8525246504065613
Sb 4.906403292786854 4.241027273193689 8.521946372716226
Sb 1.4736931809866889 6.466385357376331 6.369081732405069
Sb 7.442002550880006 6.679800616299864 6.85803604562071
Sb 7.403499683869178 3.1979600866885107 7.41394839636074
Sb 3.5039574221799747 6.789115670510666 8.336420439660198
Sb 3.308315217397077 2.5774736483530494 6.841780815970457
Sb 10.024708120646402 5.677584145660241 3.713000969145573
Sb 5.695681696337171 0.8843184347054277 6.683185430091196
Sb 6.239073097133828 5.498964332590913 4.469797389532794
Sb 8.089046706549205 3.3362772703718537 4.579944421476901
Sb 7.92491612337234 7.141071558927308 2.5620327431169327
Sb 4.334059913528576 8.91959568152388 4.462524965316659
Sb 3.9284366429011097 3.5309841238006356 4.188947525939092
Sb 9.14277975833514 8.112991273821152 4.960019299346353
Sb 5.32867298985067 8.631984133538731 7.12921721752431
Sb 1.5233725438925365 9.043811189295106 5.062826097896631
