15
Energy = -58.44969229 eV
Sb 10.96993339125405 4.702533535189694 5.70345474086905
Sb 10.74587162655163 5.5580046118007935 8.44800842020538
Sb 7.126080085543533 3.7603302060981396 7.378659309006031
Sb 8.2685712806075 4.220133076504144 4.804798148491476
Sb 10.970401868728445 7.475793782922252 6.337810860520697
Sb 7.913761713048181 6.123360227798629 8.752329796048341
Sb 4.385840385527388 4.417015318700855 6.65986245208765
Sb 4.816030389465342 5.7299567200037975 4.151261322537417
Sb 3.7654020896168965 6.440390609705986 8.59391877075239
Sb 7.441570222758078 6.892624377026807 4.261256158692673
Sb 7.8915266679476055 8.182025116771289 6.767877511095201
Sb 2.801680749279018 7.74282053542774 4.333678375695806
Sb 1.6713277027994224 7.6175313837987915 6.963705746139644
Sb 5.299440785393532 8.811740680029365 8.133833288583464
Sb 3.4325610414803838 9.825739818222251 6.209545099275628
