17
Energy = -65.71428877 eV
Sb 11.01095071525538 9.701589600486185 4.727928553722635
Sb 12.78721254502855 8.90756492266607 6.84917449932377
Sb 10.88744967109555 11.02229702730829 7.270834803487875
Sb 8.783854164334826 7.869247785998433 4.662903613484885
Sb 11.660961271368423 6.562795488332366 8.09372793984324
Sb 6.846588020216457 9.077629209492775 6.395537253866171
Sb 9.95234479645287 5.616071485669403 6.012784777949263
Sb 8.48636189022166 9.80363985199223 8.639789719106005
Sb 10.00222421141946 7.824923227875717 10.032016635566434
Sb 6.396494390474214 9.689927917869921 10.895891337154332
Sb 5.709439389879816 6.436811856029832 6.516061738403149
Sb 2.858280908890458 8.668616849290006 8.258290418644998
Sb 7.714956969656912 4.683011026593074 7.574056599192442
Sb 4.377275936759435 10.67423808314454 9.23948183367568
Sb 8.290059343340214 5.558314315205866 10.279804338119531
Sb 4.141408851595983 6.217490069523277 8.904534667712356
Sb 5.84474297857361 6.895470584388908 11.096877530754995
