12
Energy = -46.53898617 eV
Sb 9.29448768626503 6.651273090403209 8.792319288815097
Sb 11.574382057792755 8.652752411582876 9.930507718806794
Sb 12.750535258816072 9.324420854760282 7.48747373885566
Sb 9.869065304316393 8.733985897516504 6.846539974198546
Sb 10.661697431909657 10.95508194206151 8.571044487150944
Sb 7.216652155911872 8.363602191019584 9.698726770576666
Sb 5.8950861226598965 9.246998710306848 7.265016757744166
Sb 5.265696759859594 6.250313192461357 10.039099197444939
Sb 7.394930097660636 8.085276231349876 5.1419858635765125
Sb 7.982821844362914 5.602973615592538 6.292764188882806
Sb 3.914026771987456 7.170253185862368 7.629164038219982
Sb 5.532605914546927 4.821253812835875 7.556627633417071
