11
Energy = -42.01949681 eV
Sb 8.986405310045978 10.7766126830539 8.71998013564247
Sb 8.312539749241935 8.97324150869625 5.7742078694495875
Sb 10.22650325489999 5.650547979034651 5.797742253176463
Sb 5.852282193745657 9.406337759114626 11.334831399244985
Sb 5.470573998356673 8.022539373363454 8.866579650431039
Sb 8.022416320935656 4.680363657953733 7.209108295912366
Sb 7.565587524443415 6.295863106874211 4.9017870103230345
Sb 8.685784729075888 9.241283521714035 11.038151977110305
Sb 7.92074057060417 6.668095477330472 9.523729272573465
Sb 9.94376294123906 7.948218873915095 7.869797230281809
Sb 6.422002314553234 10.333780549585166 7.4714609777296
