13
Energy = -48.99852635 eV
Sb 7.377785135527201 6.956747828368288 4.591870030675631
Sb 4.385081373285161 9.435079936919752 5.298336917070725
Sb 9.607595408095134 5.215893424819118 5.508795739063369
Sb 7.0303551236096204 9.125097372654677 6.494075620316112
Sb 6.862774635558729 4.6113723347696265 6.124366947337112
Sb 10.519062288713306 7.3841352911866975 7.1974056211839885
Sb 4.214513369629343 11.84026801981207 6.846564746499598
Sb 9.56529441858195 3.6736011687137315 8.4897959555929
Sb 8.5164691738327 7.579275706069269 9.218287294651585
Sb 4.7085753439976665 7.980273287704091 7.77036494077247
Sb 4.516652164698823 10.48861253467748 9.172209422627084
Sb 7.086331403014883 5.096833817138803 8.937793554524497
Sb 10.917131459755298 5.920430575466643 9.657754507985322
