16
Energy = -61.22032603 eV
Sb 10.43290304080505 6.232139923554454 4.697231153446527
Sb 6.065893862664774 2.9772806234246185 5.264178186781978
Sb 6.968584860602916 6.135702509104752 7.497761529858515
Sb 9.843385765040534 6.136310188837873 7.483107769977104
Sb 10.660971992740748 9.042566386822415 4.128627880995131
Sb 5.440577564904583 4.952534846775283 9.493314414910094
Sb 3.475994860559186 2.2588921933536716 6.047052718466379
Sb 8.398573296320052 8.5838082786844 7.966758628050996
Sb 5.628473450196053 6.01438495310935 4.928543617635937
Sb 5.575618053445074 2.4836872016627956 8.067964599181845
Sb 8.134841930676037 9.707352976211155 5.347709771453951
Sb 8.23903717570156 7.576180999055981 3.437207851182901
Sb 4.177063939015522 8.561757619282934 6.225139662081656
Sb 3.0562368454156195 5.219285308150854 5.969685002246387
Sb 2.9931704860218526 6.952913598946337 8.256185958813285
Sb 1.5370367717444824 7.776489190364544 5.742478267023358
