14
Energy = -54.68419548 eV
Sb 10.43611077097632 4.368076612403693 6.891608402826606
Sb 10.025096615650005 1.9848786008563006 5.348935812911974
Sb 10.291236642914651 4.523788198321576 4.0301310907830254
Sb 7.849269095728379 4.884151392000828 7.981214809463152
Sb 7.819108071695954 3.0836182572366395 3.875261627732953
Sb 7.923602675461457 7.67826608593093 7.2388376220383925
Sb 5.865000543606733 8.188325175918365 9.144294774393341
Sb 6.085651987009054 4.333476711871122 5.781805017878732
Sb 6.530998216958355 6.999352157045889 4.78007735288242
Sb 4.938580652381117 10.76801873183256 8.3141736884714
Sb 3.547448230931725 6.843000983951249 8.129441344244965
Sb 3.588866695805291 10.317069354569345 5.826822299566519
Sb 3.7807322185934042 7.496401730396813 5.353161577486725
Sb 2.318297582288145 9.5315760076659 8.304234579321163
