13
Energy = -50.06016449 eV
Sb 9.590771704676676 7.278047355440252 11.09265936322406
Sb 10.291249745169665 7.535306286495212 7.526748149455862
Sb 9.584384857216964 9.620509443302396 9.428645815361362
Sb 8.631672233500522 5.612570786222803 8.95097013236549
Sb 6.8204693226140005 9.702771163522126 8.71376177137924
Sb 6.147763385703773 6.910514465533645 8.409107581891698
Sb 9.507723389868332 6.729560769719163 2.5391199054211713
Sb 9.0390642657787 8.766406874214846 4.521497297307882
Sb 6.956056878917627 6.894570040084615 3.829482908710139
Sb 5.04212389420476 6.860751607176291 11.109050543999464
Sb 5.706765488495163 9.67887758343137 11.4096831269117
Sb 7.236457380030241 7.6728644270119055 12.719932225348899
Sb 7.718306856082783 8.89351015068181 1.9094628552427184
