16
Energy = -62.42483015 eV
Sb 11.04819288531574 4.161112091939429 9.007775814574744
Sb 10.884078636221222 8.195577543651366 7.5309557421466895
Sb 10.833921042123738 4.217201116484777 6.149662510015914
Sb 9.372111230222911 6.678644005170499 5.6935712017930005
Sb 10.44437400099328 6.8019684470669715 9.983244005795855
Sb 8.885630814791005 10.309949815486302 7.2530138244734
Sb 8.613929704570685 3.2490222976524845 7.735606338681189
Sb 8.515180053938106 10.87779816845191 10.040044000072397
Sb 7.147321243836241 5.743199233192002 7.264844884437376
Sb 6.786191448509282 8.746108513088659 10.949058893424128
Sb 7.695473581687042 6.149057575660768 10.023374589496223
Sb 6.44429165731112 11.758073300597344 5.518817418844695
Sb 5.85301807619994 12.049611222014708 9.892566254370251
Sb 6.334962555888206 9.107387881947481 6.632417338171494
Sb 4.8003236478718385 9.516389898980576 9.016086156841334
Sb 6.2133254905850785 13.544811926295939 7.5173771710056485
