12
Energy = -44.75581087 eV
Sb 3.516892543857211 8.936425609285642 7.113180127569415
Sb 4.321805976045896 6.726541842678942 5.456948055861081
Sb 4.8017521668579795 7.656510075875806 9.433097361937248
Sb 5.487491067589856 5.341828477678193 7.784102929027127
Sb 6.302888123254211 9.595312168541605 7.736347153578712
Sb 7.189080885480677 7.231802546373396 6.263450874699127
Sb 11.038994999400392 7.278960107500465 6.417553348280054
Sb 9.052666422938682 6.567845796762337 8.759073843999552
Sb 10.587607169009903 9.992040130210428 7.33157170917887
Sb 8.873715835817752 9.28651698767205 9.70255444857418
Sb 11.948713050715073 6.606475169445386 9.116890437993689
Sb 11.7585291006161 9.373462606981692 9.92660276880635
