11
Energy = -42.64636813 eV
Sb 10.08698576126851 11.112809665832211 7.86389246125435
Sb 9.829217780422647 9.848280907962353 5.248886317366214
Sb 7.533271305994538 10.986528612298198 6.551212228730243
Sb 10.267742878177165 8.501580576519281 9.090939044481889
Sb 10.011065227580335 7.250929630786255 6.504647312109795
Sb 6.081624347573999 8.79966869123099 7.754205859883534
Sb 7.243456686961234 6.764247208358347 6.148416271267
Sb 7.638062133365988 8.684023531968519 10.12797770610389
Sb 7.17025118729835 4.612427689955187 8.048829366968553
Sb 7.427080072905185 5.867456177127847 10.64868372300402
Sb 4.880183480349289 5.5322394493051155 9.446278172390862
