12
Energy = -46.40898272 eV
Sb 11.579236235594006 8.767736173412073 7.3822912314529265
Sb 11.923024199947005 6.445706504714151 8.993525343992477
Sb 8.448918429595691 8.674232618684037 10.640956414051896
Sb 9.23870099396832 6.002903065558379 9.99331809318953
Sb 9.207204492608227 10.055424334417202 8.347815818594873
Sb 10.916079246343122 6.210411755389266 6.2567565700084335
Sb 7.254155612380439 8.330691784568796 7.003172131365138
Sb 8.278500424738409 5.660345642789151 7.300860973504156
Sb 5.516899887059983 8.4822416484601 9.24032926380556
Sb 4.816181734609446 8.72480948115309 5.293076898452939
Sb 3.2735551785224697 7.539767995313153 7.329076891719604
Sb 3.8842689758956896 10.285846295769224 7.504961760502105
