11
Energy = -42.34933206 eV
Sb 10.87053656793081 7.334209836667442 9.476141502736738
Sb 9.497351186036676 9.888444341378015 9.283721713764802
Sb 9.014014928793147 7.327816193560826 5.4609603256491575
Sb 11.48626498206421 6.781422323014772 6.759879322353937
Sb 8.699244386326264 9.946873765950768 6.52643783519458
Sb 7.368041266492859 8.558136492857539 10.712894236493502
Sb 8.32567140607604 5.977644880290164 9.835125099179642
Sb 5.827828892457048 9.953345652174262 6.569278228105578
Sb 5.009313752857239 9.041712904308984 9.168140606762138
Sb 7.424017249780601 5.659515105559765 7.129159492101419
Sb 5.008956783384761 7.203352734806634 6.9598110220778935
