18
Energy = -70.117076 eV
Sb 11.81060353995448 7.607056370637013 8.72130788593583
Sb 9.245000397098934 9.31382107073621 11.53100455420572
Sb 9.90248294124255 11.426585627001955 9.773247296045758
Sb 10.976347739027382 10.034454415200614 7.446981200638817
Sb 11.59400798894514 5.9053769005205865 6.413038279640816
Sb 5.747241366687081 12.240286443961516 10.943671391830224
Sb 9.669018859475058 5.719880817276725 8.548926348288239
Sb 10.252602471142799 7.466572670942681 4.391418978320485
Sb 8.723687869543038 9.249595418882816 5.926476226642491
Sb 6.98114132559868 10.421975255142964 12.865580284397286
Sb 7.412273227034964 12.161960491340933 8.635849353042827
Sb 7.785503217819006 5.804476630129369 5.105144008684465
Sb 6.85089378460973 3.0781688342668123 5.665132742697787
Sb 7.37411265622062 7.204999176587856 7.642655501454573
Sb 5.521311584938139 10.071102585475385 9.00233293728176
Sb 6.6883733746692595 8.251160055557976 10.91785821290504
Sb 5.028094636716969 4.937500234371605 4.467827094987014
Sb 5.238233475582651 4.723124143839531 7.264062642787796
