12
Energy = -46.93309029 eV
Sb 9.957080850557652 5.771334638084758 3.4450603426906414
Sb 7.905095743743671 4.094630812572658 4.530926469938106
Sb 9.105188839767575 8.11215428366297 4.863405715423151
Sb 8.65705653761044 7.316093027840042 7.568613424534524
Sb 7.193386692154438 6.611595507742364 3.3054334647538917
Sb 7.928190396752963 4.557802339873859 7.34652550237778
Sb 6.216373740642895 8.77838082051209 7.259450715635146
Sb 5.089293597543802 4.558613029393323 6.99798641249909
Sb 4.602808296378924 7.041695362328177 5.66807660679081
Sb 4.723283499897083 8.251734241744277 9.654948770469238
Sb 4.004359171920247 5.482402555398783 9.489684635260351
Sb 2.6178826330297267 7.423563380845247 7.869887939626542
