18
Energy = -70.82393189 eV
Sb 8.933400334649685 11.125839570771234 9.489479795667243
Sb 9.335033861191054 8.371869052503612 8.651993607989516
Sb 8.468209879091315 8.891794201704148 5.97160299725607
Sb 6.412781062923746 11.857895061268051 8.332075843505365
Sb 6.420608160185786 10.48455752593309 10.836810926969179
Sb 7.701696057400989 6.229739031416816 5.063151646479558
Sb 7.150061576899572 7.735425974495559 10.399693765800361
Sb 5.894644150273673 10.10380132690203 6.131889705204554
Sb 7.388033384024778 4.962133797221646 7.596546871286084
Sb 5.182647442361104 6.286603489902617 8.872065938150353
Sb 7.511578939937865 3.196641639897891 2.4881846441967257
Sb 4.953516315797111 6.790124060430835 4.458777805005547
Sb 4.072131319389169 8.026115998213744 6.896143474364321
Sb 7.552828499361256 1.7201579424071445 4.947456335558581
Sb 5.637216244106551 2.8642744843906067 6.729654882836554
Sb 4.642076789930397 3.332281349632905 2.395306459957462
Sb 3.8058514755721626 4.226347704416922 4.980083777097722
Sb 5.937684506904434 0.7943977884916333 2.759081522676307
