17
Energy = -66.42369741 eV
Sb 3.768773451912047 8.133569112072674 4.255523889743727
Sb 4.762784815927608 7.06104729744648 6.743805671090638
Sb 10.295191999942832 8.055805673659988 8.278078331353177
Sb 7.0574074533227185 8.479656150981075 5.710299503697179
Sb 2.160461547014016 6.040833420000983 3.0681198522534756
Sb 9.942582788684085 6.150253125019156 10.40497312883661
Sb 9.302016125724936 6.699399633928395 5.916269806622646
Sb 8.174031677619938 4.3485391347711015 7.069388281752254
Sb 6.569956576946919 4.862616409964563 3.2839995413155303
Sb 7.384243514214011 5.087007641240255 9.701709118899265
Sb 5.448355615280431 4.434197121841461 5.874074986599209
Sb 2.7208435895662895 3.668779968194371 4.510210035147339
Sb 6.295463626841019 7.690146311834811 3.001745237618565
Sb 4.036610903474909 4.146150513058306 2.0125185008288025
Sb 6.127413001947569 7.6821123587104445 9.936878409157435
Sb 8.045069904739426 9.64066855251223 9.08072827890887
Sb 8.408793406842637 8.319217574764949 11.651677426176514
