16
Energy = -62.6291325 eV
Sb 12.070213167266935 10.092701862968338 4.768322612327178
Sb 10.946139074936973 11.307262335776327 7.1208716851565255
Sb 7.795479712840531 9.20086421184534 4.868371886272415
Sb 11.781797275082878 8.56295963557873 7.230105785600194
Sb 8.091641878692245 11.14664339430579 6.923096068296572
Sb 10.302107723422855 7.827516172560088 4.8758790265117815
Sb 6.456049415410322 6.800885367885766 5.7617543811785765
Sb 7.9971258535320855 9.890910589040562 9.499507113838959
Sb 9.307406433095265 7.356576080656999 9.405225305758872
Sb 4.400940443737391 7.310042669920899 7.7399405022716286
Sb 5.212007203687959 9.336736225399232 9.597429615289029
Sb 8.191976979072734 5.4169387115659955 7.614042054485814
Sb 5.559230805678886 4.8276501014333055 8.640026222863716
Sb 8.141739553277219 6.691851899199383 11.973296293826376
Sb 5.529829978197259 7.921237912407618 12.080059657137971
Sb 5.785284444000163 5.129420254803631 11.487958881601717
