14
Energy = -52.92429214 eV
Sb 7.6617593695712 7.2968329181360465 4.643630037404666
Sb 5.136223709716591 6.125921277888131 4.452277623831402
Sb 9.114112079548365 8.309298192105247 7.093377201961793
Sb 8.102415193346356 4.573181137940633 5.812555695960898
Sb 4.883791746618152 10.473988116197587 5.142962585979532
Sb 5.266508260333649 3.857819839831115 6.159759531407497
Sb 3.27303628186866 8.607251304925288 6.5360579794444575
Sb 6.563517835974264 5.717940065733972 7.946791333954416
Sb 11.274185731730771 6.518201531360972 7.689776623536981
Sb 3.3671737903649666 11.387048195918544 7.40748858200331
Sb 10.138473503943423 3.7988076507693345 7.8087697023183384
Sb 5.618910582197532 9.649854893806186 7.783971572020347
Sb 8.354179103882899 4.555290353708931 9.923039533411211
Sb 9.40718438801455 7.290036098789711 9.761013573876122
