14
Energy = -54.38961672 eV
Sb 6.386271485689786 4.920109987947794 8.145939731210294
Sb 7.272727686925845 7.729437899135054 8.854822290404977
Sb 3.895608642325696 2.8658247348617705 8.005609930031111
Sb 1.936522296070827 4.50295516356524 9.13254538120385
Sb 9.525865084829947 5.3027072991018525 5.588292631362716
Sb 9.790179885097348 7.4361808785219425 7.506248440291703
Sb 3.925410407015013 6.426084188763394 7.910712996474022
Sb 2.370757513953958 4.538286959421019 6.3096384014799245
Sb 6.705967736263767 5.046557770712155 5.289011678125973
Sb 5.428619745762713 9.012410891905215 7.203388798609121
Sb 10.178456776576482 7.200254704891188 3.4989171214577985
Sb 9.987062047516686 9.411535545545709 5.409092577355495
Sb 5.677748386620971 7.669874636564864 4.680615461749769
Sb 7.933456622603162 8.952433656315304 3.479818877495757
