14
Energy = -54.55170249 eV
Sb 9.638089535127435 7.785499426326443 13.396691935641911
Sb 9.672021004961541 9.626174198511155 9.292278886879693
Sb 10.309570901711766 7.840832183776396 7.09848831957441
Sb 7.368097147408909 6.831103334178746 11.911003555446841
Sb 9.92890082413342 5.56708537876316 11.589278978597266
Sb 9.317620468973349 9.616702597830361 5.067371880969559
Sb 11.274560011954884 8.044708009198533 11.05512807586259
Sb 7.712463719974018 7.801367490159727 3.551124149090439
Sb 7.0513820184513 11.05858779179428 6.052852698618723
Sb 7.082593500878843 8.37843886550912 9.525589390727541
Sb 8.036270123756735 6.219562069966161 7.867339442406195
Sb 5.724083512090136 9.966433831645615 3.7098951036078573
Sb 6.178958808662474 6.617951502611698 5.67604402393338
Sb 4.967299390526561 9.110200106860002 6.37949904450593
