19
Energy = -73.75234372 eV
Sb 10.97336732376446 7.65200341906947 12.789219600887476
Sb 8.610310728468786 6.9216483980191255 11.336923441808144
Sb 11.136516521505518 5.723690423703144 10.693131520903643
Sb 11.436511577852654 10.435385201485254 12.252121152134674
Sb 8.418788948920033 8.989073495829281 9.139484690414543
Sb 13.62354758028371 11.056819990207897 10.489519785463026
Sb 5.581689980046366 8.404264162381194 9.060594331448115
Sb 12.044285723541302 6.931217378497495 8.249752449137217
Sb 9.348299774074615 7.10560981410473 7.1765014284541255
Sb 10.896185406001173 11.499815270945346 9.641350489111478
Sb 12.602383009689326 9.73402574779363 8.126342261218914
Sb 9.173077120792916 9.787083634537394 6.176057129138847
Sb 4.999736418370985 10.096616551675366 6.851634279340592
Sb 5.689212021889296 5.845555442759597 7.8618217686571175
Sb 6.730148295544267 9.126122792078066 4.811233419006183
Sb 2.669050304808403 8.632184314236104 6.014842159568187
Sb 2.886133106971366 5.98607426955863 7.124920469297785
Sb 6.465093151988427 6.31776609245211 5.136860988016373
Sb 3.6597958136698447 6.492562899394709 4.369624556953791
