13
Energy = -50.70811537 eV
Sb 7.314537765257993 5.972635934685568 3.541838510647885
Sb 9.446597528806649 3.2519874191179143 5.783153224838715
Sb 7.330154660658145 3.0733425251941213 3.787747569790037
Sb 9.418475259843472 6.155407972720215 5.528433758317708
Sb 7.467701590195187 9.327239370583678 7.3934549838928
Sb 5.381132444414791 9.18261294656716 5.384803888525272
Sb 8.132846257733311 6.638700168589976 8.009914255155438
Sb 4.887261247041863 6.424836308730394 4.937863353141911
Sb 5.460600348129334 9.63057226135795 9.474992012155225
Sb 6.757661336659992 2.7035926868406204 6.554051440901215
Sb 5.626728474395087 5.394705516980741 7.486239888237972
Sb 3.3639440210273075 9.483060894233104 7.460086562049436
Sb 3.912359065836721 7.261305994398279 9.15742055234567
