18
Energy = -68.52440753 eV
Sb 9.03605088536641 6.427112594569961 9.744738294324629
Sb 7.6273381141208905 8.998595686629406 9.743798359771116
Sb 5.7107078973931875 7.5599689668403665 11.416168429356748
Sb 6.691245796109403 5.008994218265817 10.423813974016383
Sb 10.92715036778292 4.322369704214956 5.610006037514621
Sb 9.077524853811555 4.284100849927396 7.832204628827204
Sb 7.762998581843577 7.235589654048991 5.79294492080726
Sb 5.231109134906819 9.05330972031016 8.186572456621008
Sb 4.540995965337935 6.379459730746355 9.018721398919254
Sb 3.360452600566785 6.41694504995046 5.488969551803494
Sb 5.36236820988746 10.3348452451043 5.54352733067873
Sb 6.706495109792315 4.56750332287088 6.172753338139688
Sb 9.695259738826442 6.217811524929986 3.856378496000058
Sb 6.542253689209606 8.617133925357312 3.5450983897382744
Sb 8.577022875046909 3.581850480223337 4.092780246252446
Sb 3.678806691550929 8.759817037834404 3.8499067856903877
Sb 2.0680816869728393 4.701806113478584 3.5733866002530474
Sb 4.754401847099225 4.8776394129160145 3.5225384701849602
