19
Energy = -72.24939926 eV
Sb 7.5245101780193995 8.362789640788613 2.59016981005167
Sb 10.219636483265813 9.396872502948236 2.4306250922604518
Sb 4.167361205658253 8.456626310636556 5.340362807153781
Sb 8.367815891522943 6.602002069651219 4.732227890205248
Sb 10.057670386005471 8.885029101401285 5.2970864822214585
Sb 8.273268986991972 10.759696409267749 4.017311168759676
Sb 6.2589873924407815 7.070832871023009 6.672338654207362
Sb 3.9754159558644226 10.07058350579342 7.512588180405554
Sb 6.7520945291627275 9.598070670304418 7.946357229871899
Sb 9.810573462737109 8.079787465723895 9.374821002499253
Sb 9.802295997009871 11.093137503700259 10.285221294536665
Sb 7.063817418032396 8.223482688724532 10.472728145505476
Sb 12.228950844274127 8.468346885173466 11.011206143828867
Sb 9.733163199543005 5.557610485436956 11.036666339642952
Sb 7.519499891636413 10.613565295599686 11.975762005446569
Sb 11.385299687004547 10.599555425410873 12.677756663351625
Sb 9.45464617758072 6.521018069666889 13.740302128143933
Sb 12.071519632161667 6.099164111514837 12.643942401390023
Sb 9.152368920303774 9.360725226448782 14.061422799733004
