17
Energy = -66.56797073 eV
Sb 10.290441549871739 3.9804281994183834 3.869804031649799
Sb 8.016119725583641 2.661066190051992 2.708233474230897
Sb 7.350994174730307 6.848237350107816 3.319202568154764
Sb 9.062322427181014 6.101233938760478 5.4763916545113664
Sb 8.824917216255427 2.0068049230893306 5.386895547228943
Sb 5.810853693733141 4.483401179465882 2.970614259535212
Sb 7.106630926727125 7.446034812827826 8.057180623382884
Sb 5.082548764774428 8.235488878267162 4.4149546887722835
Sb 6.320236304986114 9.752483757105367 6.526283084803582
Sb 7.619739414909724 4.151231678401183 6.974854169427407
Sb 3.62054319369616 6.238954902398776 5.980022970987724
Sb 5.1251762263004155 3.8048995496877462 5.64500022770777
Sb 7.611299393399712 9.174946644525466 10.36557476419153
Sb 3.835042002519916 9.688264337395152 7.991455902817435
Sb 4.3383401565143975 6.94093810161105 8.71759049027677
Sb 5.30738676371244 8.250737920621871 11.733824882027974
Sb 5.177408065104386 10.734847636264144 10.362116660293276
