14
Energy = -55.12080525 eV
Sb 3.2670568050199953 6.5653718173810125 7.762582236384499
Sb 5.84345713705375 7.602220668774082 8.33659608487757
Sb 3.5390164895778478 4.4402804408800485 9.696378932366965
Sb 5.9711663962430945 9.22436871366165 5.98621440914678
Sb 8.63857349507584 10.000836620439985 6.667260335957973
Sb 7.529980290102012 5.45382658619383 7.540715788196418
Sb 6.179155365559399 3.455121170673536 9.116109509110244
Sb 3.9655026427837257 2.538050961569079 7.532023415073237
Sb 3.6393627990394815 4.675858282235946 5.615645010856854
Sb 10.304997443714766 7.725031015504911 6.149578888341713
Sb 10.151500101761805 9.88834652369585 4.234920464472125
Sb 6.406392503618881 4.778858341560944 5.009654461432454
Sb 6.358421836239759 7.377720665448526 3.812460928153883
Sb 9.205416694210152 7.274108191981546 3.5398595356297986
