18
Energy = -70.17750288 eV
Sb 10.899668446742432 5.898834215697486 8.803111058373812
Sb 7.715140870953263 4.499101458366943 7.243076114843453
Sb 6.491833924543071 10.233666783668193 11.11000271506938
Sb 10.262280758642829 5.113165802536811 6.10450004880686
Sb 8.152448769312407 7.915135604134467 11.385943573938873
Sb 6.0326523531650755 4.866032413169657 5.015834418345281
Sb 10.822561434007332 8.937431171894273 11.208265142673149
Sb 11.631141874619724 8.630898382038033 8.441371981701888
Sb 5.230548534926094 8.059468522924226 8.24317987682
Sb 8.054746169979374 7.052599109681855 8.606208013888448
Sb 3.924804354673277 6.42415261217632 6.36029055989317
Sb 10.42055196318056 11.757955686704411 10.967854288922316
Sb 9.115814541614936 9.300336062941867 7.174074261532623
Sb 7.955247924442337 12.137399080050375 9.539782478012976
Sb 9.765882826873442 7.696153946321028 4.903122178670035
Sb 7.080529302014306 7.304469625199929 3.8951293325052356
Sb 8.006561961014313 12.319621581140792 12.41908157779282
Sb 5.22368688390274 8.882274650036996 5.502687375169055
