18
Energy = -68.16613475 eV
Sb 7.642144910072507 6.822321082459077 7.962344813090894
Sb 8.334342045372967 11.3018675724755 8.48815722525466
Sb 3.963245425182409 6.185934740432447 10.02527835594332
Sb 13.971427893196116 8.03867684449025 6.279446233628002
Sb 11.07612647376713 7.8187944808937875 6.888144261330973
Sb 14.908130409229665 7.983860250010544 9.002490450874843
Sb 7.213016541574692 9.320999961921997 6.651758249126249
Sb 5.042326812020917 5.5420658716307685 7.452390052438035
Sb 6.964641495603675 7.314314663875569 10.68252071962173
Sb 11.066189304927539 10.579310127760518 7.726462895345986
Sb 3.037663373353793 8.692725959643337 9.083589543034316
Sb 11.826891613461719 8.526490237040223 9.54016821914554
Sb 14.70656963035879 5.659854890806108 7.62575626841841
Sb 4.578521818632065 9.879009787186755 5.441933032854064
Sb 7.765841698797452 10.077206483610128 11.02622246476494
Sb 9.774050813556343 8.116584864525082 11.533463912644756
Sb 5.017227823781394 10.644944520474356 8.189875476002682
Sb 3.1779227512673356 7.5613178120803735 6.466279002058289
