16
Energy = -63.17687393 eV
Sb 6.420338045488975 8.54294196810856 8.074670480642645
Sb 4.742210771683429 10.877682556722007 7.603220838338682
Sb 6.67844092729013 4.743405573007953 9.262319980122784
Sb 9.926497181925434 3.209177202923974 7.451845472869689
Sb 8.750959274806144 5.871768496579078 7.59634698700553
Sb 7.806469204267825 2.084466954155232 9.074549797091489
Sb 4.088078032870258 7.139024848482309 7.214363519016819
Sb 7.976865179574675 9.337712397228863 5.774543729092354
Sb 6.277475940640587 11.623574144041022 5.2608810160627355
Sb 7.802480281854343 1.6573480469140598 6.249388619760902
Sb 8.15345578143394 5.3658076511193356 4.850515880887118
Sb 3.7227975359020764 10.381526551326576 4.9411368863851814
Sb 4.57477696734802 4.271764184327917 7.450818025095861
Sb 6.924159284652473 7.74955436181871 3.700475388794626
Sb 4.168325095689408 7.59086844909938 4.416845035544956
Sb 5.9866704945725235 3.553376614145105 5.0780783432883725
