11
Energy = -42.03312944 eV
Sb 7.698562054510862 6.850846833018747 3.9575281453048947
Sb 6.238400748841674 4.794522810152784 5.246400367105956
Sb 10.207984452411612 7.060087390022965 5.308550136571259
Sb 10.0761554301648 5.6521627583950025 7.673900614939521
Sb 4.7300998332611135 8.995243239916158 6.5924984057480165
Sb 3.8620580276423855 6.365882568421721 5.745390275909551
Sb 7.673072048132898 8.914372776690918 5.916819026401933
Sb 4.8667907003649225 8.085149431099858 9.26579673796726
Sb 4.06010411321228 5.472663362450757 8.475324720881785
Sb 7.83318693941816 7.5361802115654655 8.454406943967765
Sb 7.279523790004673 4.79882679493674 7.889322776069737
