15
Energy = -58.28109984 eV
Sb 11.360031440990392 6.414307355800261 8.286546433298334
Sb 11.117994956405928 7.280329175333517 5.626412157058291
Sb 9.790753478215766 4.043353692220277 8.6223796573368
Sb 8.785600035621238 6.5694947540271205 9.604532208202968
Sb 8.30503513425021 3.6469481633562415 6.203921465861279
Sb 9.017206581907532 5.792645081174485 4.447670803917939
Sb 7.5086950877781655 8.05445571190076 5.311519403965434
Sb 6.5676830719196015 7.299456719072911 7.907545952124506
Sb 5.163285748212149 7.274987228609128 3.8379346879672185
Sb 5.889240935428342 4.578997601458121 7.433970396167108
Sb 2.9328757728509185 8.397129446809256 7.707369012063301
Sb 4.253984737894257 4.866392096220989 5.10275759089271
Sb 2.129771838504915 5.801210324695589 6.782622354050912
Sb 3.6272591700188963 9.329917864203905 5.0886856991335
Sb 1.0459644790756115 8.145757254191183 5.531514647033781
