17
Energy = -64.59356873 eV
Sb 9.891624534776883 8.507665205419814 9.720221748779547
Sb 3.9146543829527873 7.874653451689216 6.736646730271487
Sb 9.392766801233606 12.096849599415338 6.795761197600565
Sb 7.316415665365769 2.5700253217028908 8.567493253602908
Sb 7.288887776557527 5.506114241123215 8.995304497194562
Sb 8.750806280645445 2.4348321701120135 6.048293540324071
Sb 7.084782371751517 9.003911004374828 9.944191906376942
Sb 10.708318637473951 10.846860615604818 11.068217494053616
Sb 10.43726596381498 9.4245008489144 7.052512409375809
Sb 5.207307072982078 5.365881654980174 6.970667263022827
Sb 8.036614865583674 5.537605893169458 6.247471041858152
Sb 10.09615431432736 2.059359703556529 8.36327898425742
Sb 6.804903967448647 11.937050379764399 9.92495691526862
Sb 6.309647095041754 9.194718389235115 7.162251604776481
Sb 8.39878414442797 8.294022677336503 5.410421446029335
Sb 6.468502728299307 12.04994190762392 7.016755321303952
Sb 9.503792141349056 12.907236362850202 9.586782707095535
