19
Energy = -73.33807733 eV
Sb 10.598089021169127 7.084694545096257 8.849378830929147
Sb 3.5005961360756235 6.56149081347952 5.184030320013816
Sb 5.041016247982018 3.3159630650428777 3.149747866308186
Sb 5.2912796789571805 10.995764730571539 6.213643053120195
Sb 9.90421269873731 3.672397304025783 7.083137788970303
Sb 7.952370845442311 5.787455394166334 5.734117208975343
Sb 2.646469823488041 10.799833935817032 7.28659096580414
Sb 6.49780219610942 5.87310146157774 8.221774686356788
Sb 4.5578177553553685 6.130358716983465 2.5020734950684043
Sb 5.550303166306708 3.184170330307812 7.792934996867466
Sb 3.67227603963681 3.6901613712019588 5.657701125964225
Sb 8.89019415957489 4.800961220194776 9.472704353735594
Sb 7.742142497689812 3.539747831461443 3.9507475621244916
Sb 6.034518915892197 7.637341252008507 4.399981011085658
Sb 7.716404112514946 1.9551506391654936 6.337398486633822
Sb 4.650791057941002 12.273409248202404 8.69930292773478
Sb 4.819136956247351 9.409801815971718 8.54143968006161
Sb 8.458684579935008 8.906294197805169 8.270201876949393
Sb 9.975894110946337 7.8819021269218075 6.153093763298775
