14
Energy = -54.30472946 eV
Sb 5.49002283789646 7.479868190877506 8.128265005143955
Sb 2.9500444033072406 8.123456293613595 6.935018616596508
Sb 5.307833548315268 9.688483466021637 6.315456919785602
Sb 4.642087178173641 1.4820509035446452 6.864289897825942
Sb 3.0087994834791685 7.279559079418645 4.107115886530064
Sb 5.565874800052235 8.50404268786951 3.647517799522738
Sb 7.373945497874654 6.464186786507599 4.53188853535715
Sb 7.07766790245954 3.075135420998399 6.8176522351842275
Sb 5.383251925582828 5.329513782815169 6.181529019418407
Sb 2.8958658694795214 2.4136569011555182 4.772751789211863
Sb 4.9996781038365405 0.6092587093386375 4.104699640077069
Sb 3.541856186910098 4.602028896224012 3.016798404262907
Sb 6.393188594208859 4.603044800231586 2.539662362765543
Sb 7.3526523116429585 2.3284822441984625 4.020122531536633
