18
Energy = -69.81667144 eV
Sb 8.586449208197923 1.856839678179987 8.78682553413567
Sb 11.096665332467305 2.7459148350933438 8.636642964695628
Sb 7.175684129159013 5.865563109704625 8.956596887817312
Sb 6.989816478679147 3.601713814818208 7.199405927787849
Sb 9.891883097543117 6.849215480014278 8.715182141814225
Sb 11.113943099139615 4.983146614864868 6.877434155944853
Sb 8.865202151366434 4.395926828861833 5.204678319186333
Sb 6.167606122317324 11.298671004110398 12.081629574939736
Sb 5.78748149570492 7.130937171240931 6.803788619461086
Sb 7.894296261846898 7.121082224935021 4.82509494035953
Sb 8.099557569545922 10.115847101381824 10.57666890965349
Sb 10.05632527890019 8.349228275837355 6.261844364622268
Sb 9.109995047602508 12.175694127152981 8.816931790071955
Sb 4.948022426086171 13.13914274386191 10.335708696174366
Sb 8.497619742140877 10.77673899274197 6.346871829905228
Sb 6.54393997967753 9.650957939404217 8.05394789888593
Sb 6.784144855003464 13.79407287396416 8.240822237568386
Sb 4.704492934881116 11.84708399759476 7.755685336107999
