10
Energy = -37.85840812 eV
Sb 10.686859885727939 7.36142353032431 11.088539310291932
Sb 10.3759848856953 7.0882766976655605 8.069727345742388
Sb 10.238811030076288 10.10466181599809 11.42031474209468
Sb 7.405455049781321 10.138759179194155 7.467532199872748
Sb 10.104459389389962 9.959005294838247 8.30835059334646
Sb 7.459274269370375 10.384712756476649 11.613545253879938
Sb 9.495723019497236 10.460844826225195 5.332184489600653
Sb 8.370714570366184 7.99520718770846 5.815551578121534
Sb 8.300899104424026 6.321718192994107 9.944375685170067
Sb 6.3887024306131615 8.433856818504095 10.063606619017353
