19
Energy = -74.40879585 eV
Sb 13.353167036793455 10.16039848159614 6.587589988329893
Sb 12.434257214391591 11.033954993943924 9.158782316964347
Sb 13.37263518517639 8.314771371882026 8.791823844256601
Sb 10.979057994708707 9.554408821275167 5.090915635305098
Sb 9.10700280610374 10.997884689269439 6.689830536637902
Sb 10.626256276241893 7.33456381513781 8.901051500058827
Sb 9.708424460954209 10.015335637794522 9.294913023131725
Sb 10.6941404897214 6.904353822389388 6.078253160498564
Sb 6.45539835247429 4.988119600471728 6.23082744585494
Sb 8.077578626499692 6.980438558530924 4.905487454796578
Sb 7.02379741371439 7.557558504022352 9.801775656007608
Sb 6.881309799517978 9.483504841205246 5.6627240578338
Sb 6.780292482199379 4.804777286209638 9.12289292559596
Sb 5.170402080550732 8.788063116045038 8.018252957364675
Sb 4.06149230368414 6.571669225246124 6.578035135113337
Sb 3.945556732302815 4.632148251699906 8.68915711005977
Sb 5.021675732068099 7.657160181519123 11.947621705005357
Sb 2.988023186026783 8.801268766175735 10.282426192945069
Sb 2.8585557580505276 6.054112061027208 10.975225978051254
