14
Energy = -53.85684734 eV
Sb 5.579447250620141 8.23049888029252 9.43750064310468
Sb 4.914477076504869 4.013801422040428 1.2353656310927998
Sb 6.767522740636575 2.4928931354850916 2.7313032554705297
Sb 2.939543238961675 6.6647407086418315 3.5131223337611064
Sb 5.476692831225257 6.7985477284300755 2.1650546420387897
Sb 3.0893333311052733 3.743642396613291 3.4720671296345014
Sb 4.264582448764282 5.960707955521845 8.272040961586676
Sb 5.3981164073972225 3.1777597161554936 5.086076444937485
Sb 6.755669586732684 4.4470842280321365 8.312688022017769
Sb 4.262355356514856 7.681753722561907 5.953199307034329
Sb 6.212094675101114 5.980928406730505 4.797113464976944
Sb 7.6951928725412175 6.475046751186573 10.281846534191333
Sb 8.478474752988538 5.947819118447694 6.595275553949245
Sb 8.137571109217124 8.355849508170738 8.118419754514065
