13
Energy = -50.27382572 eV
Sb 6.336533195998691 6.175798174137788 3.1226851143695913
Sb 8.884734960425773 5.698280030071227 4.394732157093465
Sb 5.499491223400112 3.727714703199012 6.342930520556476
Sb 4.494320253270977 6.1832124480996855 5.301644724150264
Sb 6.500578073396104 8.994381496055707 2.837574595078078
Sb 8.20719290974776 4.419371220672914 6.900561568784578
Sb 7.3408169828727425 9.853297137577057 5.35354980822194
Sb 4.382439021321824 3.959365862621683 8.990648340001528
Sb 9.425309845702555 8.111768080018079 5.905056264517185
Sb 7.892302183007828 6.882190552918581 8.344067087614603
Sb 5.550417208034544 8.04271611877066 7.194143923239306
Sb 6.145202382646258 5.659787576622443 10.481277974278326
Sb 3.8406617601756787 6.792116599236157 9.331127922095947
