11
Energy = -41.59026994 eV
Sb 8.616914346837573 4.272454554265966 8.784251689452955
Sb 5.5611166486555685 5.405891183929773 6.5720110915421195
Sb 5.926416885075465 5.014949489459933 9.46684091469069
Sb 3.858393583602705 4.731376998149061 4.512481499142494
Sb 5.6635472824190245 9.269225138466005 4.869742404502956
Sb 4.832876778179299 8.034679459992637 7.298786212447049
Sb 4.8844498993546805 6.996087464723018 3.1686287224422265
Sb 7.656208871184139 7.52491341036864 3.7448137714063803
Sb 9.295719530892367 6.966672807048355 8.007993714741113
Sb 6.829309714043856 7.754871450242055 9.356590037593964
Sb 8.379684743807864 5.533516327406957 5.722498226090732
