19
Energy = -72.45866839 eV
Sb 2.3315996151777587 8.522757546114994 4.421155294203619
Sb 5.23359957676706 9.056481022873117 3.955627591725501
Sb 8.409406623226412 8.86089819700201 4.14762231324115
Sb 5.464021259544185 9.11163525399007 6.824962405451977
Sb 8.551046190819223 8.581237466719763 6.8833787418279355
Sb 6.415943803746053 4.503617909856737 7.301105095821708
Sb 8.390673340774425 6.242075162605672 3.0285106963966206
Sb 4.049718898511396 6.77327498024656 7.763436951935815
Sb 5.607145960977274 3.111118670247353 3.1380958753335513
Sb 2.46623638581075 9.187813357496095 7.130326621151772
Sb 3.0132741359874253 2.980383515519426 4.25950313267573
Sb 3.785883669310809 3.188921289160327 8.3466378989062
Sb 3.5385466437703754 5.865283151197516 5.026194690927541
Sb 5.475026772598715 6.165148022496765 2.9474881701468094
Sb 9.109186402088039 5.8291415546338365 7.466386909371229
Sb 6.297301847329597 2.759558466930692 9.57291471871121
Sb 7.137372314050966 2.359835526615899 5.463992489952191
Sb 4.314395973716669 1.3851899346150076 6.280588135325633
Sb 9.389233989028055 4.49524165430772 5.021685429927223
