13
Energy = -50.18494015 eV
Sb 9.993884324667393 5.269283013972387 4.769952311112669
Sb 3.860026481995037 7.905993736017415 5.801342115755359
Sb 5.827362435150238 10.007726779714687 5.433759336853357
Sb 8.135819345720414 8.473126468360153 6.214842326699693
Sb 7.255202327349091 6.1607018277161645 4.790596244289252
Sb 9.174632492771048 2.8981901647339257 6.169086425552421
Sb 6.562622505039366 4.206473420476586 6.804307529534659
Sb 5.595809964669443 10.910814253261371 8.128378078880578
Sb 10.6026293710776 4.976410697829249 7.572787327084218
Sb 4.6278844442165585 6.783808715976998 8.329533206957723
Sb 3.2063792305847203 9.341101529100015 8.25302990258385
Sb 7.174526546485973 7.998666085196108 8.876921284662092
Sb 8.107580791167608 5.192063568539275 8.979824170928465
