10
Energy = -38.60096371 eV
Sb 8.459566457801795 8.658543307761656 5.169217572566454
Sb 5.15821380501713 6.938672489819032 6.408291613015648
Sb 5.949680500637707 9.620492227155182 6.163982018760519
Sb 7.817350254255964 5.951564894676107 5.995775693432603
Sb 9.110280992580027 9.94313558690287 7.627434860200561
Sb 7.060083074880537 6.214111024328856 8.740854847579342
Sb 11.060249698577836 8.563333081149171 9.279286238884122
Sb 6.868447481878404 9.07094790956803 9.164117112460248
Sb 9.625647488532483 6.345040470174668 10.307286453719312
Sb 9.087019604545052 8.89069836717186 11.340292948088626
