12
Energy = -46.41134997 eV
Sb 11.809428694353615 10.573291440824322 11.092180686265669
Sb 10.712077194184069 10.71891547137391 8.44386708447398
Sb 7.921526837950781 10.074572082996937 8.690602303257364
Sb 12.170145024217021 8.389118300133067 9.256529340000201
Sb 10.60909810648651 8.01887643640123 11.630709079659425
Sb 7.864026958026846 8.195350571533949 10.811799129038743
Sb 5.296335773642434 8.266463361575669 5.122512476438221
Sb 5.361831900497646 7.084038706203167 7.771431948687013
Sb 8.21614704230155 7.280323717900061 8.108982843343258
Sb 3.593869206478649 6.075444397708689 4.279860614833313
Sb 6.4067262102044165 5.9251201093552845 3.8366284398836585
Sb 5.258282245096964 4.652538381230655 6.1662319964620345
