12
Energy = -44.5252581 eV
Sb 9.27085775156312 5.824608335640442 9.28457927555154
Sb 6.920101719164191 3.6140473244046123 6.784267668128539
Sb 10.445394179373611 8.415417478120252 9.197203806482248
Sb 10.004660550622814 9.181652751267364 6.471551959883593
Sb 4.784220676216262 5.553038420448324 7.542233046538144
Sb 3.8776608631562097 8.622900193957605 8.227610446558884
Sb 8.107883599662816 10.157906141548281 8.427419656432296
Sb 5.43805292212419 10.11058158176707 6.647470036012008
Sb 6.521284931384379 7.160438610564863 9.18438504717815
Sb 6.719739608468591 7.373394524167019 6.345865958872287
Sb 10.23976550826481 11.828679386485208 7.500380090721085
Sb 9.055565176683425 5.364845385797012 6.479127725204412
