19
Energy = -73.38578106 eV
Sb 9.82740870953646 5.2296463020829735 6.070487482944304
Sb 10.331417054610464 2.3890195759729123 5.936763093807759
Sb 8.701836483191508 5.432030650153325 8.67120353375187
Sb 8.678276753452895 9.405726871428602 6.658575773195528
Sb 8.17572013462173 8.199491915975774 4.109810956339097
Sb 8.384863963831977 1.209287796481788 7.740195078021122
Sb 6.770350863729722 3.3691835487339414 8.83487855311644
Sb 6.886738553549148 7.375223825400532 7.570126545971006
Sb 8.113991797554984 3.6378721595997545 4.468016520098902
Sb 6.2020976414957865 2.400845558805548 6.232131019063091
Sb 6.20245868078299 10.279815810966697 3.568770554996971
Sb 6.4133453109244645 11.22341844122001 6.29664242000655
Sb 5.840438373557883 6.222677504234398 5.045115839827698
Sb 5.125149432108737 8.318180195558549 9.595807824883096
Sb 4.236191088327168 8.210021710727258 3.5860621100438506
Sb 3.833145597817205 5.8296783980142575 9.133750192450401
Sb 4.080935573638119 10.215069271779676 7.691289416542446
Sb 3.1717720657347037 5.901802484159507 6.4372849409372055
Sb 2.5255160510772137 8.652662108247327 5.854742273545174
