10
Energy = -37.76766433 eV
Sb 8.69482362910679 10.47177778550043 10.121406959984485
Sb 10.301559500888663 8.196485282455379 9.32610972614294
Sb 6.709827092892832 5.831729729852748 6.841278395579574
Sb 6.222922470247867 9.053038585043527 9.557191668421954
Sb 9.398376206244732 8.435553049793276 12.032418185797187
Sb 6.480111266868811 8.686345687991503 6.655130170405745
Sb 7.896654679164107 6.787448557165333 10.150250547695402
Sb 8.998271450686897 7.317082610498515 5.959339072912791
Sb 5.577196305256437 6.520903713067812 4.274269264833376
Sb 7.959859708395719 7.394047294181055 3.2854684037546944
