10
Energy = -38.08851158 eV
Sb 8.06190099149632 11.079751816582613 8.495061447240253
Sb 10.50269026379014 9.588578883416446 8.917863241598079
Sb 10.544378324303315 7.407019598922334 7.063944928187501
Sb 6.603070713709139 9.81711820638047 6.379228613740835
Sb 5.854828430536031 9.359083686413987 9.102693211682078
Sb 8.276328680912673 7.734264196767839 5.3489969042012095
Sb 9.794551161660964 6.954804492396154 9.78789316055948
Sb 6.9518450274906405 6.9248171566419545 10.134512345743952
Sb 6.046371336369075 4.910329538516579 8.292846299341566
Sb 6.739300191996881 5.339612227388629 5.765078773868854
