13
Energy = -50.31930675 eV
Sb 9.141879034868438 2.6924886078974515 7.467652720425597
Sb 7.332969098892162 3.722905924376412 5.427755634736088
Sb 6.536849818464695 7.227695592030626 3.6783918752414717
Sb 8.647414961292359 6.289046279355414 5.4106170155469355
Sb 9.149188720511479 4.9384852881818695 9.274417927486496
Sb 7.200967568802513 2.8940408491751763 9.531265714437785
Sb 7.374060264728865 6.847051680105544 7.935599264025212
Sb 4.242029692132682 6.157349928704326 5.009220842239902
Sb 5.438136894115182 4.804989406986113 7.320039298730493
Sb 6.638331498629748 9.936406569296205 4.5908426270708675
Sb 3.293192369613948 8.361565611870596 6.562162640363419
Sb 3.9086975017763406 10.705792701044818 5.03024759895875
Sb 5.596282576171276 9.92218156097528 7.261786840736967
