19
Energy = -73.42580624 eV
Sb 8.647145246966899 2.9795367494422553 6.4667796973082154
Sb 10.243433056817521 5.06304368987153 7.725118097230043
Sb 7.576848433757328 4.277638797813593 4.096122353552551
Sb 8.890065605474636 5.226708961775103 10.31412568826473
Sb 6.059839067830301 4.696823027765644 10.166601810035525
Sb 5.116028204419831 3.1367104335430955 4.837867639288105
Sb 6.293762220989916 4.326585622819158 7.3134505112224035
Sb 9.590686876315432 7.361091063438257 6.21305432164641
Sb 8.188717753637187 7.998615158888229 10.590453295015708
Sb 3.2578312594813514 5.169647081060904 3.7950155475017113
Sb 6.689603136944945 6.8459257420317785 5.6579341003640184
Sb 5.344269551199468 7.535392693919905 9.9067928810484
Sb 9.085568924660958 9.314283364215138 8.18804405017215
Sb 6.746691566357769 8.285415318165334 3.1190030292296353
Sb 4.443129503240718 7.0505956538847485 1.949229808576672
Sb 3.6616388631079824 6.433079283036902 6.2957713859770115
Sb 6.0680655104737395 9.019093946178218 7.534719288119573
Sb 3.374853892138608 9.187054816602737 6.028098917868605
Sb 4.221821326184344 9.592758595546094 3.3018175775780714
