11
Energy = -42.03990531 eV
Sb 7.032529216533476 5.356506180417136 3.538085505155557
Sb 6.03924832992912 4.205823018341254 5.937399107841755
Sb 7.838462614074424 6.40496327828061 6.399224506017036
Sb 5.27284706922112 6.853871275327795 5.209843855296621
Sb 7.289854995680359 6.8185413660320116 9.360418967118227
Sb 6.331868029329279 9.460593044322378 9.087706238409584
Sb 8.38258382648232 11.067270467830069 7.9515103035033805
Sb 10.075836310719858 7.168203136812003 9.69400022094304
Sb 10.84102511172116 9.539879078555577 8.314358568082877
Sb 7.926851267726075 11.062137757502903 10.812630094851995
Sb 10.414943656674907 9.561240326833317 11.178113647845585
