19
Energy = -73.69861493 eV
Sb 8.140454728311012 3.0428171755715914 8.868657218843648
Sb 10.170688576679867 3.142102537622112 10.976052316153794
Sb 5.914391986079634 4.609173469706253 9.800974654876441
Sb 5.549809779940827 6.578880684292541 7.710279178686573
Sb 9.53068463767606 5.459394154478152 12.472128876845357
Sb 9.947471312824893 4.8570987584521665 7.633431390873239
Sb 6.7991802415303315 6.209031390437798 12.048545678985136
Sb 7.9644331902623975 6.292053769934633 6.183184881679906
Sb 11.137915454607864 5.787296221089608 10.124578645554557
Sb 7.903939724121472 8.4980242385867 10.80226057495976
Sb 9.380778187192375 8.730870240677854 5.648783037270104
Sb 5.436034732784993 8.871604114256348 9.482140598273833
Sb 7.424035663070798 9.70180072639973 3.8514054494993766
Sb 9.166931624587706 10.557976447039207 7.825922960383538
Sb 6.424251194986539 11.22703664061561 8.11277115071687
Sb 5.504606804878156 11.183946314025377 5.429421094600874
Sb 8.981187971248763 12.100100228315041 3.445321704244963
Sb 9.62123250856097 12.850852039765712 6.144924188806757
Sb 7.061919428592682 13.593509301579925 5.046184045114777
