18
Energy = -70.93850696 eV
Sb 12.824789204988065 6.377541120831722 7.143438121033782
Sb 12.076998678763438 8.044677145979204 4.894516174713885
Sb 12.214277590614891 9.147779895637607 7.523910248245219
Sb 9.101319531973054 6.494662233690526 9.27801024749611
Sb 9.459165881707731 6.758578839934671 4.820959654426989
Sb 9.502585901876989 9.200026035001091 8.466597307972624
Sb 10.199211954672384 5.108662981621852 7.056522258598776
Sb 7.9860319551535675 8.862661066479575 6.054368651443161
Sb 6.536317453434712 5.002792242411632 6.116158529951602
Sb 6.555350434321568 7.166778014815324 7.959866966779778
Sb 4.786877167834208 6.443995642166691 4.265959773483184
Sb 3.536336445204169 3.8665212311734205 4.471669299949423
Sb 4.211494615703152 3.578000447744203 7.229142568755956
Sb 3.338213125386342 7.867640575879871 6.256704844965642
Sb 2.9695191164676515 5.894104796420455 8.312194588468845
Sb 0.747042807683524 4.530218615431814 4.609830804384885
Sb 0.6645690896816819 7.31752846021031 5.227544408395355
Sb 0.28989904453247817 5.337830654570183 7.312605550934391
