17
Energy = -64.67475001 eV
Sb 8.07159949979352 5.470978624375598 7.822031480244584
Sb 6.170247219140912 4.102966898329116 3.6358635624481144
Sb 3.664191343519301 2.439091625823748 6.471140106505143
Sb 5.504205634135368 10.031662855073273 5.130933324896983
Sb 5.765256047334631 5.557671400683305 9.57905964054398
Sb 8.705334727739794 2.941112511612636 6.7057144469341035
Sb 5.579586224964002 8.160703588023505 8.07965995438253
Sb 8.73738897993991 7.491383413854059 4.432284021281474
Sb 3.15224722965759 4.058068349111906 4.06678691653218
Sb 9.090029924634862 4.650426178093112 4.336950290518596
Sb 3.6838751820721125 5.0309440872702895 7.630740055303025
Sb 5.887087954313645 5.935321622845315 5.988970324575141
Sb 5.819141797555979 7.609530194690524 3.5531142383065424
Sb 6.323750732082381 1.8549214529423488 5.403936420985097
Sb 7.917996079655697 9.21613332601141 6.6689770986161525
Sb 2.9279913560727486 6.912231829737377 4.193155853116286
Sb 3.1950549292742374 8.731837383813332 6.4956673668989895
