11
Energy = -41.83769272 eV
Sb 9.328159332521874 6.604097209019026 9.846623854110828
Sb 9.020932062926718 9.44098445352844 9.222326021823415
Sb 11.546579843931191 9.360013581606122 7.803556981593207
Sb 11.3870955170661 6.420318254342852 7.814568495378279
Sb 9.020970622761137 9.430155860568531 6.3841363123978105
Sb 2.8526037395511215 8.357932907585873 7.807836359867049
Sb 5.3658846056361105 9.764311336439036 7.8024205724029905
Sb 5.124368922743294 7.304903915163169 6.383624594685621
Sb 5.1252891122193 7.314189192572506 9.237576945572162
Sb 7.802451205653672 5.31702203142492 7.819056687517204
Sb 9.327852499968735 6.588600142938115 5.781484900257222
