15
Energy = -57.57234925 eV
Sb 7.892449675344118 6.2657079526241075 3.6089671871056384
Sb 4.610712652163227 7.8678300127516625 4.710491920460038
Sb 5.250409196000899 5.140475265059404 4.033858462345846
Sb 9.376177881640713 5.186942543769534 5.72328477544559
Sb 7.573104258985379 8.916384499402147 4.764321012621908
Sb 10.403208011664987 7.82863018524675 6.019771951765268
Sb 4.63252825545107 5.882282133150299 6.703609455753309
Sb 6.5546256145168345 8.947130634051858 7.488000703033974
Sb 8.145147919350498 10.684072764513255 9.128401459540482
Sb 7.431982386615703 6.311582455165268 8.033578030606021
Sb 10.29384556241733 6.93483690927396 8.680539051938593
Sb 10.249211142291022 9.169564078448351 10.389229158779758
Sb 6.267760940595099 6.818188431652346 10.73868613958717
Sb 6.381644334074412 9.664023179452503 11.204477336424675
Sb 8.422503354774426 7.867660141324793 12.258094540477972
