15
Energy = -58.32061872 eV
Sb 6.7483015090836345 8.598530213584025 9.669524517378655
Sb 8.829298985825996 7.197294087476587 8.19914910303215
Sb 7.789722715975468 4.554579247865151 7.883876669498193
Sb 8.123093659952138 8.39636224445417 5.7068265209331885
Sb 8.808013985162678 4.041100889764946 5.230066657291262
Sb 4.838957197808156 9.399032509546853 7.6921279429717275
Sb 4.916315656656341 6.721755396342471 10.920234723950168
Sb 5.424829876519767 7.4735904556881 5.488091259853526
Sb 2.8632761504444977 8.002113931442413 9.272103056929204
Sb 3.531616766885809 5.260285856573044 8.902308286237563
Sb 5.262498438912241 4.850095615515752 6.626686778701879
Sb 9.782615764036331 6.553241750753915 4.300561082200735
Sb 5.602739922146631 6.506054512803033 2.5946065670307807
Sb 8.288398698553369 6.005997369614065 1.8485399215479297
Sb 6.690320672037405 3.939965918576242 3.165296912443655
