13
Energy = -50.3856991 eV
Sb 9.483657195731393 6.962170007657683 7.283154905051288
Sb 8.523638469714946 8.194891854003155 4.84998488925966
Sb 10.72468204938269 4.8567709367079495 5.746428447455025
Sb 4.764090365614552 8.700896957445526 6.536722847809321
Sb 1.9502383126636267 8.411249037810604 9.239431657234238
Sb 9.763009530155232 6.102693233986805 3.293996005097899
Sb 2.335174574217392 7.121050101586747 6.738251617448716
Sb 5.925728056437044 7.144630154375209 4.430515210515178
Sb 8.489282103581628 3.746813242849656 4.328885011776594
Sb 5.744366573480866 7.462870012229863 9.01604652802692
Sb 3.296072450114826 5.910074416555956 9.176050762454343
Sb 6.116581765791961 4.6103682959748395 5.701998282085048
Sb 7.383478553113846 5.275521748815857 8.15853383578639
