11
Energy = -42.01646231 eV
Sb 9.49922844623025 9.443015395795623 10.334631857429347
Sb 7.105516152383027 7.723938450704749 10.046857434082836
Sb 8.05097155405038 11.400431055397508 8.861807698083615
Sb 11.051722085400318 8.781774545612066 7.995586688007692
Sb 10.082082200099137 11.276366114641473 6.914700772817233
Sb 5.186907575308421 5.360073647113406 8.838520346114562
Sb 6.6343729190801195 8.98728514734976 7.515540610928382
Sb 8.034460542900717 5.146940566983658 9.241094877645624
Sb 8.998828312795794 8.28828189021043 6.063263453295699
Sb 5.548783522169293 6.371025184796603 6.235233252544075
Sb 8.233977202220672 5.447056716285368 6.3728970767734126
