13
Energy = -49.99499761 eV
Sb 3.699944100313626 10.592222039675777 5.164832394262541
Sb 6.8825943656700534 5.530588358850966 4.867499019696545
Sb 5.557891850468499 7.879260727822435 3.789924100356037
Sb 6.527446659480099 10.168351079534238 5.288391321953729
Sb 5.141694192782253 4.718887450124304 6.916006786232724
Sb 8.708717516363182 7.116209191606984 6.604109942383032
Sb 6.791789444067067 8.894858374197872 7.84142678701034
Sb 10.253316697911092 3.4940201465120615 8.459108740910262
Sb 3.1895820034018416 7.767263386374544 5.396721716509716
Sb 7.798973350307052 5.050182948979856 8.426620238638394
Sb 4.3865380290467755 7.284602803837166 7.9439205647607976
Sb 9.790251955196469 5.2028702798988595 10.700831267113964
Sb 11.155885561116294 6.185308938708638 8.485232846295787
