16
Energy = -62.67674208 eV
Sb 10.22727980963208 9.380506973544371 7.550878554076763
Sb 12.390088245650231 11.051038736514863 8.552494375424395
Sb 10.549650188550146 12.279000419966392 10.433471990229368
Sb 8.403535521284487 10.598006288901837 9.41762248377608
Sb 4.6239579531561805 5.773842434318165 7.951203271014214
Sb 6.991905464824134 7.379687889089367 7.596408420936938
Sb 3.072009373282591 7.217851483100305 6.022496134329874
Sb 12.502228033180257 10.394634766454471 11.33204970268605
Sb 6.791149915719443 4.758860343782987 6.42448148874019
Sb 3.412065779508961 5.887666001164641 3.500545644985808
Sb 8.349064133804225 8.713836990489987 11.544680966606135
Sb 11.09487798527339 7.90611760686541 11.592905581708154
Sb 4.948926338010335 8.245791885289094 4.108602479625899
Sb 6.264216736613008 5.717805474448891 3.7732820735018886
Sb 8.33119567287954 6.30106731852424 9.892999399127039
Sb 10.983928738979415 6.983085825994544 8.887770758818831
