13
Energy = -49.26691891 eV
Sb 9.218116686611191 9.194645947189692 11.295756158127697
Sb 11.219655248826271 11.093899558041207 12.047943299081943
Sb 9.052688360215486 12.257206723348618 8.217576259116663
Sb 7.37237711936072 11.074263648072474 10.241752643030868
Sb 7.208616635728334 7.288670126489882 12.01184224026636
Sb 6.7446599572807875 6.790835982224366 9.305869459943562
Sb 6.191609269978308 9.438692054363862 8.18321900615574
Sb 8.208676602676757 10.279175196874617 6.308181400651983
Sb 11.685240633975976 11.638522103877444 9.351477244091887
Sb 12.239455797748972 9.011673293633956 8.18021546605382
Sb 11.060019365987843 7.334743806434696 10.205953026138541
Sb 10.222491904613252 8.206163687017883 6.2899474605653225
Sb 9.377335328878814 6.191767943896162 8.160867828449668
