14
Energy = -54.60315114 eV
Sb 7.010110079352449 4.824483991254583 10.559020230936147
Sb 7.505710830882703 7.652055351263304 10.464181482360047
Sb 8.949825606107117 6.014736330575285 6.908066153462164
Sb 7.246274730067297 8.232809283422148 7.501186899161755
Sb 7.350109288504582 3.863291870020567 7.8393723418381445
Sb 4.860472603440081 6.713906119022345 10.40256144652916
Sb 7.16875532598058 9.523969415016074 4.714361012734681
Sb 8.533360279103352 5.161549174319491 4.224967584188959
Sb 7.780743617806762 7.547078496438172 2.724523000728707
Sb 4.785408188535088 4.519400612506982 6.785653815916073
Sb 4.562928812439352 7.3015883464031175 7.419111489127339
Sb 4.473532389597841 8.699143646926718 4.64594329622306
Sb 5.779796235795439 4.269188877596006 4.124459725688179
Sb 4.99297201238675 6.676798485234449 2.686591521105126
