16
Energy = -62.45305669 eV
Sb 9.897979713985455 2.931835804426751 6.988532067336703
Sb 7.306324753205608 2.479341591630556 5.849616673387123
Sb 9.630135038820674 3.0333757806933956 9.848964006321468
Sb 5.642567010401418 2.8868995555851242 8.161990765177416
Sb 7.236377288609799 4.634329760992933 9.787843538863365
Sb 9.552664455774016 5.470894891110392 8.324425150784656
Sb 4.192536385076069 4.682169657745343 6.344927871097005
Sb 6.841326668904985 5.353733527518629 5.684296947821052
Sb 6.184477993702455 6.986426870761111 3.321997124979938
Sb 7.7864141867997425 8.693536508755184 4.924180135771438
Sb 6.46644874496699 8.496194934166166 7.500134641465697
Sb 3.5885921041135083 7.817612631553291 4.301214130690052
Sb 3.8193692766948004 7.459527146219978 7.127218999529983
Sb 6.651146225457749 11.281191467528622 4.362029990746754
Sb 5.347284692555514 11.130731907682973 6.959758333851417
Sb 3.8563554609297293 10.662197963628378 4.512869622174597
