13
Energy = -50.10597515 eV
Sb 11.031408131212403 7.813697544802286 7.994906070296886
Sb 10.289137659291372 11.498838064941953 10.243382436361783
Sb 10.021115071944823 9.766514955581416 6.172593712743293
Sb 9.205952571004156 5.628683415668833 7.331806118139339
Sb 9.899933353289695 8.73850712483739 10.447477718286711
Sb 10.437063651896166 12.155654762086739 7.637256262659505
Sb 7.715341873982875 5.9358598951080515 9.721323568307419
Sb 7.503975258343188 6.9954534366160495 5.463609738661312
Sb 7.208808829924857 9.496017281406132 6.767572546344723
Sb 6.987771777125809 8.718824510018559 9.523713322442221
Sb 5.241353618255312 4.761148872311587 8.826377402163432
Sb 4.967666814300836 5.870275691211356 6.1915430125371795
Sb 4.278248684847152 7.436766129264519 8.487197643123203
