11
Energy = -41.40637882 eV
Sb 9.289543900306349 5.830512327278333 7.250480571990978
Sb 8.766465533619161 5.030698370286559 4.532525166183339
Sb 5.064485519846384 6.005828559951128 6.590437440089373
Sb 4.267140522276041 5.02119700692206 4.026607086958915
Sb 7.561509844023508 7.967227750370154 8.010988881248528
Sb 6.609785844145042 6.566083361885961 3.4151393287491643
Sb 3.0242785870479065 6.995366327131311 8.39576119790297
Sb 7.185344733771209 8.766797219919573 5.2194525477120255
Sb 5.445137371888312 7.093965299075565 9.933231607147597
Sb 9.895492702570873 7.637795007520958 5.065298604905986
Sb 4.390815440505804 4.584528769659129 9.060077567111575
