14
Energy = -54.57784089 eV
Sb 11.339791970918034 6.070461782634624 8.149237322231674
Sb 9.367705546912273 4.824620587056757 9.822484614764921
Sb 8.26438803192345 7.088547559791853 5.375175123737206
Sb 10.313968343418297 8.411588583813684 6.882812534025946
Sb 7.339198801024375 9.660421214494324 4.503284474696466
Sb 6.153506649020429 6.18844115512741 7.066427204025207
Sb 11.28828828005115 6.625175667019146 10.965535663355059
Sb 6.888039935811815 6.233772052019799 9.86654571978894
Sb 4.4796089987544825 9.658236057758968 4.741708611504015
Sb 10.044107615538133 9.202656348182284 11.329829221948746
Sb 9.145191974567483 10.215829392291466 8.780303019249796
Sb 4.5028515160460785 8.510805661392547 7.368121646534385
Sb 6.122136332305721 10.8191981331109 6.829130359075774
Sb 7.293846432507146 8.97496486903012 10.569197958923867
