17
Energy = -66.50791527 eV
Sb 5.6674199237099305 6.653409548225526 1.2976151685482489
Sb 5.41395715762785 3.794327878997708 1.5105916747055375
Sb 3.1038035330040143 5.507193360619227 1.921358714954125
Sb 6.8058065831103525 7.58722472298536 3.7741834503068206
Sb 7.919027719721955 5.04129848373284 4.359919116913382
Sb 5.620784082514195 3.389210353651056 4.369272002844638
Sb 4.266013347211328 7.74364825988002 5.040450228380515
Sb 3.3168383312377263 5.091979064943815 4.777201508437819
Sb 4.806206354627224 7.726875806625143 7.893122669873896
Sb 8.473407325260004 5.095614959774243 7.212798731632629
Sb 5.92307049167284 5.172375283683835 8.468713761195241
Sb 7.093224049843616 9.41620731679581 8.108444105239846
Sb 9.412571720180479 7.752142466569644 7.661302647523828
Sb 6.542207976949727 8.979713054532581 10.892159140275398
Sb 7.088425462940786 6.129040408628462 10.984815669983853
Sb 9.85938099863468 6.612384683755502 10.258802632478218
Sb 9.18785494175578 8.807354346601217 11.969248776708167
