15
Energy = -58.32103777 eV
Sb 3.922760423269248 5.281816664120894 4.183989492408011
Sb 6.717209003393571 6.06146224092321 4.01356881652906
Sb 3.994864816962722 2.9725249219693666 5.920071712995111
Sb 7.688025471904543 4.2358038068805 5.980891270560511
Sb 9.6733951074761 5.6193424768147135 7.53232109360865
Sb 10.945676553832959 7.476298489627408 5.730559764454143
Sb 6.373750634301771 8.685526637733016 5.0936207513589125
Sb 9.103019759045377 9.540802923953324 4.977651613002663
Sb 1.517351415471638 4.277787094807933 6.583621666214319
Sb 5.684482234801357 3.986366440617941 8.003640858702035
Sb 2.693445734185821 6.871468621404874 6.257631534863264
Sb 10.191392330112418 9.573946235570324 7.627793048776112
Sb 6.113767747498085 8.700110134818633 7.933822815316531
Sb 8.511330631562279 7.726732218700158 9.104248547931158
Sb 4.369528136182706 6.490011092057978 8.556567013279961
