19
Energy = -74.25058444 eV
Sb 10.426379135435822 8.874376444663902 5.3012565513977545
Sb 8.800070650292811 6.847831451193814 4.057733405439702
Sb 8.387211746849115 10.58598780492538 6.459755626124892
Sb 10.29183583335115 4.474522403385944 4.780465056055885
Sb 12.717844459417478 5.474305971555568 5.963376879606793
Sb 8.694854154217701 9.866006795961257 9.21447719820213
Sb 11.675924345028974 7.620673632985289 7.548985371514629
Sb 5.983342343049361 9.159089359243623 5.618492926045671
Sb 6.8578027931637155 6.496451982055896 6.086525385921906
Sb 11.899061928175373 3.7847953295692567 8.223218095908594
Sb 9.137951038105149 3.7851755964675142 7.316673127444256
Sb 4.522564211983989 8.888074940315951 8.077203416684132
Sb 4.4562796573527725 11.52587740442688 9.115727592681724
Sb 7.145834544550394 12.126836869163709 9.982511195659153
Sb 10.032012223759303 5.836802345409184 9.100217917223345
Sb 6.751280053897329 7.787484146312248 9.462446168255106
Sb 3.817583197612267 10.505343193387247 11.749109924354732
Sb 6.513130907239916 11.1603609424685 12.63213730821831
Sb 5.779265284924447 8.431774499638987 12.121349321728465
