12
Energy = -43.97014141 eV
Sb 3.5046419554940504 8.166152033765487 6.621776934942031
Sb 7.464559454573462 10.145114209751014 7.820516122502589
Sb 5.955212816326453 7.027641602889728 5.539409454555963
Sb 2.151770396614722 5.729317274568588 5.990336984653675
Sb 9.262900949983813 8.072523155314705 6.477007298711926
Sb 11.718035058423347 5.580830128121445 8.106257711916703
Sb 4.716837388720281 4.532825910652405 6.385799915268645
Sb 9.803270723874519 11.314270481477148 8.499679469800034
Sb 5.350313526277286 6.647102853579227 8.28370741732609
Sb 11.362939176863689 8.636804181344198 8.466664424398635
Sb 9.119196302431646 5.190089376434727 7.479161016941659
Sb 8.667055205442116 7.687631580156408 9.180172947509016
