19
Energy = -72.52707758 eV
Sb 8.610310664411863 9.877478652058986 4.72538079253075
Sb 8.380513051433367 11.962402297323163 6.640859303740057
Sb 6.98872940283976 7.559839814496859 8.195171775234721
Sb 9.349600312742924 5.680544547693232 6.181756396500923
Sb 12.713517150354384 8.483107617132642 6.386656837579801
Sb 9.852198184945802 8.373333368531325 6.779739398036534
Sb 10.240706623903755 11.582981469430308 8.801855191262193
Sb 12.964069064707907 10.706799383718606 8.261805937469994
Sb 6.44692283245393 10.469142779567843 8.22579366349102
Sb 8.705300962185886 6.664321539619192 10.343653533545343
Sb 13.039596999270108 6.809056134131334 8.692999808599684
Sb 10.563668924475218 5.201392805707518 8.68604411034623
Sb 9.839167990744517 9.270155872839272 10.456335043732924
Sb 4.988252403108136 7.867727682250744 10.44184821146288
Sb 12.72506866818226 8.992788042998054 10.597124685201713
Sb 6.188694181990296 8.55835322545702 12.951176175086315
Sb 4.479934680373515 10.46690299566152 11.565322806750766
Sb 6.755451772031215 12.03633388504885 10.626219963700128
Sb 8.277493577597276 10.546535334084622 12.549453813479683
