12
Energy = -45.02012899 eV
Sb 9.788349094813258 9.246523866464742 5.658000806831647
Sb 8.665790157807548 9.144125034481275 9.498792860165105
Sb 10.175140924738672 6.924959829793662 4.136374329193132
Sb 7.99099951574541 5.926166651026837 7.349534652359606
Sb 5.438248874962322 10.577334423034971 9.735455253860321
Sb 7.581636310739671 7.640017373694266 4.796368708976687
Sb 10.433451889856883 7.1872583275619 7.702668863965306
Sb 6.210342655807501 7.651697149592802 9.272433452940389
Sb 7.734301360239502 11.674512359052377 8.428026374599987
Sb 7.696692062146715 11.277406703118439 11.282667952193236
Sb 9.134148740756443 5.3466795848393405 10.111986569350496
Sb 7.314002110931469 6.55207800682711 11.685369158477595
