14
Energy = -54.37137787 eV
Sb 4.315165522871448 8.970655004629878 9.155389871373773
Sb 3.424062871153261 6.325964867912636 8.544769570541307
Sb 5.573465002600856 4.64597745835675 9.398970188274534
Sb 7.620908924177006 6.3240407695242835 10.455394751389592
Sb 3.82431006149469 9.596757619334435 6.343620677988806
Sb 7.161262272165668 8.885303603782454 9.179490527133225
Sb 3.4166601591916432 6.7861333930194805 5.685911560044266
Sb 7.973210524504147 7.643846984051209 6.718887718257306
Sb 5.807187787013159 8.112478097990563 4.905349673437026
Sb 7.931621512771359 4.998149225243871 7.83629374905678
Sb 7.162614464292755 4.349325222452842 4.300022365691887
Sb 7.887258765998582 5.5568609964093065 1.8068473894973913
Sb 9.709380595949579 5.644579429378895 3.9996541759366737
Sb 9.192059520349892 3.1590953124471395 2.6685657659114903
