11
Energy = -42.13255825 eV
Sb 8.536832553677698 4.4729582457659225 9.329072048304045
Sb 7.8982239560230525 8.792521202928073 10.623311826398968
Sb 11.110008859341884 5.834877758162146 9.314047750175732
Sb 6.582071947085269 6.538239084664586 9.559516700722524
Sb 10.500270071024213 8.607284018953289 9.556156909633797
Sb 10.276683792747026 7.3915911381172 6.9936095160834535
Sb 7.71550433762903 6.017700160743792 7.002400412890029
Sb 6.838282816736549 10.898138161348571 8.694658800468698
Sb 5.728236709445377 9.24653833856067 6.6447988071431885
Sb 8.356441544998074 10.396467922127085 6.326697755639849
Sb 6.008565485006574 11.942216596712775 5.731790492751715
