17
Energy = -66.13966327 eV
Sb 5.140076958483866 10.313132898355999 5.2091158573817955
Sb 8.893999776132945 7.831218230066396 5.4371420430206
Sb 6.02148662610638 7.623285366345987 5.415377517812249
Sb 5.612523756590234 11.556126720807159 7.774987630544941
Sb 9.202191986174297 9.907976050655448 7.426329484805118
Sb 8.742146485315038 5.462838224110845 6.985215048630522
Sb 2.506341927467412 9.502723353381382 6.089893585797425
Sb 7.020707049808989 9.582610694688809 9.253490017205264
Sb 5.865211492565083 7.181730113039068 8.222676644312504
Sb 2.9776676905486936 10.777056735996569 8.666093815540837
Sb 11.175043271673806 8.983297934240474 9.32293136678558
Sb 11.488235257071146 4.8781401450067134 7.325793116877264
Sb 3.072863884775545 7.925802587074353 8.429599698231593
Sb 13.002324575389235 7.259313284579748 7.981531117194013
Sb 10.28906601121023 6.965363133629982 11.168605008966972
Sb 10.873759526024712 4.378263887757762 10.081767917395736
Sb 13.05339715236365 6.181950494644549 10.714536166168067
