17
Energy = -66.46822516 eV
Sb 10.958069972885518 5.775288209215276 3.519030373950294
Sb 9.023285011146395 4.0736715875072065 2.2544088091745587
Sb 8.369863427209868 3.9774233007270414 6.41221812052878
Sb 6.782023434100637 4.257236851122454 4.089760086664439
Sb 8.88015952368912 6.936072887531532 1.8789735404064023
Sb 10.106628687353009 6.236888979189614 6.232293853100207
Sb 6.153650731102812 4.741466765148859 8.125240755975325
Sb 6.596063585865585 7.103110501067179 3.729788080690595
Sb 4.516157814292818 6.299395162702141 6.3531436954125375
Sb 7.442094491868715 9.093303100029292 7.966557167691138
Sb 2.153322570288939 5.441707877743545 7.825169953703188
Sb 7.429999805151774 6.77271236684138 9.669059200808734
Sb 8.523884960019503 8.407695987103256 5.366479336591269
Sb 4.530751959956253 8.889924480822192 7.583588021455604
Sb 1.398981483619981 8.042400059581228 8.662391070320924
Sb 4.94207022678145 8.134423060090056 10.313969966473817
Sb 2.6929923146668955 6.317278823577504 10.51792796705162
