19
Energy = -73.54515293 eV
Sb 2.4537717726798216 6.299531726463456 8.098177222312092
Sb 2.87916887294854 6.90332660332321 5.2529444847805475
Sb 3.71120367750215 8.023652874426633 10.059741751122559
Sb 4.121678902560129 4.009739095177334 8.63787597007746
Sb 5.088005408287327 5.588091179222555 10.928138035426766
Sb 4.4839014200700085 9.29684142201916 4.973386328408821
Sb 4.548550369343552 4.659391135738002 4.721450426187207
Sb 6.220078835862117 5.359542165443717 7.11192854025664
Sb 6.378711746190384 9.034613774826644 9.605977282075953
Sb 6.065028444331272 5.69659162964196 2.5578025589775923
Sb 6.628675388943998 8.445273768284993 3.2354422697902288
Sb 7.541648259961035 6.417478242101432 9.621960925935364
Sb 6.592734890485378 10.026349760441809 6.875431003739798
Sb 8.27368704448145 3.534181074972392 6.237484345011167
Sb 7.7440518584964595 7.683930650803595 5.7505917007071226
Sb 8.432198372975845 4.218288372165718 3.4405667112678695
Sb 10.827484145212091 4.899243012999869 6.627816974655352
Sb 10.618755537854614 7.658164802558959 5.928809760344577
Sb 10.882582830745118 5.737686488319705 3.826391487854176
