13
Energy = -50.25025261 eV
Sb 7.384990340140677 3.4261959107988185 8.135502346763376
Sb 8.649590850766504 6.004113581851677 8.036411626023776
Sb 9.131922982081829 6.111139131123666 5.241775423312889
Sb 5.19510594682439 4.582290183471958 9.598109980796597
Sb 5.717986056848691 3.289823768835181 5.7377752410698415
Sb 6.425061167156906 7.706866434282658 8.633858871298306
Sb 6.688822062800574 5.3102045429410945 3.964478545928039
Sb 9.107835588833423 8.974539053765193 4.999652000722718
Sb 7.414398085595413 9.98769167977785 7.114813367698549
Sb 4.050989819170126 7.360556134549899 7.064510855571576
Sb 3.5403855689200534 4.54330936829052 7.239140665792877
Sb 4.780758217688939 7.421173254688388 4.325301323286163
Sb 6.412047012684247 9.781990655135289 4.408563451247201
