12
Energy = -46.48403025 eV
Sb 6.083270059477229 9.027097851266666 9.679633288456504
Sb 9.366421154505131 12.011058857185793 8.707713566260434
Sb 6.951943951441388 10.86857247929027 7.7213801195843415
Sb 10.32076496574719 10.168079869199651 10.742867268347515
Sb 5.348079071887424 7.101745685459853 7.611000718041494
Sb 8.490425515542768 7.984087132008393 10.724201151569513
Sb 9.424439141019658 9.905517115576371 6.6816102638533765
Sb 7.396136478280229 7.173909463145037 5.563388679201915
Sb 6.685488076676944 4.619336102558486 8.255484865363035
Sb 10.461649381765124 8.090757639907524 8.695996732976784
Sb 6.920050942354005 4.28473836050848 5.394096219600055
Sb 9.147775509968422 5.286949645897094 6.90606880758665
