15
Energy = -58.20132733 eV
Sb 9.28669801546987 3.660542420542173 11.753134046047926
Sb 11.544041989227154 5.390848319923611 11.567947744987261
Sb 10.093643832582506 9.722677529821235 9.210168808368621
Sb 9.503421003981929 7.87939485205667 11.34803128869646
Sb 10.507252787880446 4.16489594044108 9.21647880901574
Sb 8.184692144029817 5.707313286824293 9.988785976297656
Sb 9.61897585677959 8.527242590075266 6.648438814717548
Sb 7.197361588074789 7.048446095194852 6.8889541519005535
Sb 8.589591813096588 11.085956508996613 5.976669454786001
Sb 7.495907393503662 9.90543711292305 10.460188939831966
Sb 5.667926428775913 8.746218390700973 8.591527591247674
Sb 7.326237863817983 10.229811004137778 3.5115337119839665
Sb 5.9848811738267855 7.847868916199334 4.360683730691471
Sb 6.012530468140257 11.232546445347381 7.2767342816020815
Sb 4.726279460122841 10.377497845763811 4.811582053121668
