14
Energy = -55.06360575 eV
Sb 8.732877820262342 5.009679085286055 10.014360470864117
Sb 5.9480488679844985 4.936331583503682 10.726664585443464
Sb 6.664644955283902 3.7208113465595525 6.659105758733483
Sb 7.293023353546144 7.471360343653577 10.556487417957165
Sb 8.670561191181873 5.6512756274409375 7.191137084373657
Sb 4.5011121178418785 4.668660428451783 8.261405179922654
Sb 5.726590443439627 4.749783659550082 4.117464017267208
Sb 3.8578893432774803 6.798986118031555 4.855760296923018
Sb 4.457820848538202 7.425830004580142 7.587277782953625
Sb 8.098933088200951 6.228039903353146 3.4801313288745392
Sb 7.230277701735578 8.077274218493326 7.701364785937778
Sb 5.05335560827858 9.126082648200606 3.699704660534435
Sb 6.940638560386986 8.192123210286496 1.7366443772492555
Sb 7.824226100042049 8.943761822608678 4.412492252965686
