19
Energy = -73.70783629 eV
Sb 12.8173205296512 8.659207323384708 9.637647823931317
Sb 13.099849855095194 9.84760959514009 6.971733620800407
Sb 10.64773359417107 9.990542933653073 10.972001405309694
Sb 8.601180425767524 8.01058009101272 11.250719301864578
Sb 10.560520073815674 11.029116980478783 6.4897529251281245
Sb 11.60487077175818 6.569978384963968 8.110776113383867
Sb 9.768295672458171 11.953102880296711 9.082992819613438
Sb 9.214897506789471 5.800025473096573 9.49493069160524
Sb 10.868605170002132 8.254958775229701 5.876524621500732
Sb 7.022796596234531 11.493464267844365 8.575485472824035
Sb 7.900805626689307 5.7933837705353035 6.944167046381339
Sb 6.3192438403469104 9.677382272044124 10.626929699399282
Sb 5.744127989940202 4.2121393125393825 7.88344436259048
Sb 6.655827209706824 8.313400558957976 6.42916149125585
Sb 4.68872992197289 8.692528541754498 8.440281064648394
Sb 3.79614841488395 6.049158733616965 8.974351054089436
Sb 4.442430468202262 4.3257247054665 5.303972326771328
Sb 4.678778748711368 7.121186794987865 4.679804188351788
Sb 2.523004974767356 6.2302947036596 6.380197893007283
