20
Energy = -79.1273038 eV
Sb 10.061385953264107 2.51546116542193 10.05468987362849
Sb 7.84194443635727 2.4724630075955036 11.886666689067576
Sb 10.08033749890981 4.294751794638249 12.303843359070369
Sb 9.237444193721023 4.076781935057656 7.775319490780327
Sb 6.457095943912437 3.749524764977047 8.257052538590333
Sb 6.213041588662316 4.661769657462299 10.930405394038761
Sb 9.723903243691034 6.675342182945549 8.859985949714815
Sb 8.42574877621516 6.467552468605329 11.37145636814241
Sb 7.583509945937203 5.822296431058664 4.771949294858191
Sb 5.645939962110131 6.160132866013588 6.8997696759012435
Sb 5.831458331082341 5.9969085518757055 2.4562126057065847
Sb 3.4500466531360607 6.189312712555928 3.9700571052998117
Sb 7.452580243942732 8.195416805348826 7.969786664352183
Sb 8.340578218257885 8.589336236952033 5.243453086620403
Sb 1.9188797711602241 7.356271022689835 1.8016721958487545
Sb 6.302963116924666 8.742377429985895 1.8126124517761144
Sb 3.653657768067614 8.719413333358077 5.312187749130731
Sb 6.006430698211564 10.002028895807694 4.335707875121882
Sb 3.68618338974951 9.397934226253282 0.823768385838745
Sb 2.0868702666871544 9.914924511398887 3.1634032465137403
