23
Energy = -88.74727119 eV
Sb 8.530831365959255 12.614452738106545 12.200702757624837
Sb 10.187897157587164 10.221464092182842 12.175838056187768
Sb 10.718285794662192 10.742408312978469 9.218532223829959
Sb 6.878155900223103 12.243955437605297 9.861351532498642
Sb 10.630309996122026 10.401748950613072 6.084748544564401
Sb 11.45936097063652 7.691650275886039 6.4800991296127455
Sb 11.859188167043332 7.98002882303388 9.316140346384293
Sb 8.02752687549198 9.736198408410997 8.944513137290325
Sb 8.04423673324358 8.506020712379787 11.667117598237645
Sb 9.4089702816821 13.572579053690585 9.660807542081997
Sb 9.878841742061379 6.4641981996997755 10.780189934562767
Sb 6.969974387993957 7.852908042050581 4.94156185894305
Sb 7.818782236552845 10.309099040916424 5.948039196928887
Sb 11.235578423330491 2.705447609132217 6.877943910639349
Sb 8.885094622323084 6.398068676426813 6.353550338340668
Sb 7.95823204792568 5.463794803236378 8.925658015462036
Sb 9.633161741285683 4.016098151399078 4.902228430178648
Sb 9.197352413959228 2.881327487724312 8.918246497853557
Sb 4.450392207122823 9.091462653871522 9.021697836845233
Sb 4.140699935770104 11.081262838577906 6.979064614249186
Sb 8.582608978907075 1.7619671628944367 6.344044657699206
Sb 3.732954388808566 8.324000966419169 6.376832777264616
Sb 1.8307023597382948 9.784737602771186 8.065317800994842
