29
Energy = -113.50206919 eV
Sb 10.587488539994313 5.209336546627033 10.309971321314555
Sb 8.271889414858112 5.130893525910614 11.939535067173109
Sb 9.859590636841656 6.550216153636014 7.8621701629267395
Sb 8.698122325332633 2.0372849610860113 8.043451923931348
Sb 6.856003739131303 3.28789382767026 9.968725744062159
Sb 7.114401487208333 7.6994763774664055 11.509779792903284
Sb 6.219887438248707 1.654808165049174 6.556509280272098
Sb 11.212626728280494 8.00441768912255 9.975511163565287
Sb 4.267553280172749 2.8450482034198608 8.3429828127326
Sb 8.503424528906477 8.688670232833058 9.199427818809234
Sb 4.619094080562801 6.4483762108874005 10.700025167354676
Sb 7.938074642743373 3.9238200114974244 6.005793147359878
Sb 2.721217017375025 8.273275498581182 9.4164849929671
Sb 3.1899319642687143 7.23203301450392 6.726243582254287
Sb 5.743819582539304 3.9419170989380503 2.5917259590202195
Sb 8.430901741677381 3.0734989975762543 3.269604518733515
Sb 5.691909045320617 5.335114981606912 8.270306058956228
Sb 5.517424785548107 6.009556255532132 4.592258432620367
Sb 3.8533248674703007 10.630849862412726 8.09611534194664
Sb 1.9633684343984281 9.776788557272372 6.037871471245377
Sb 5.728066429327595 8.698046561793596 6.987931428099779
Sb 9.418336955502786 5.687803541552939 2.4338197158149155
Sb 7.1567146189071975 5.532926934665362 0.6326288647397851
Sb 3.817807409736641 7.347311164207172 2.67868436579613
Sb 8.135742668549174 7.2482213617968165 4.469815165442495
Sb 3.4568141969927133 10.082000295065335 3.5460429150928476
Sb 5.973006145082978 10.575787569711247 4.770497952345602
Sb 5.873522430397196 8.145491179368781 0.8620481162906622
Sb 7.679934864624401 9.429135220208046 2.704037716228768
