21
Energy = -81.69062304 eV
Sb 15.937572783023821 6.354617752791647 8.038531184414131
Sb 15.144966178695494 8.968226399375425 7.1705784225852565
Sb 14.324981498711768 8.010842025037089 9.748969500559284
Sb 12.959875247707146 8.55090187175441 5.383082466356283
Sb 13.258806464875917 5.562383596715544 8.698886477632557
Sb 11.634094476527347 6.245359239684866 6.453280086354447
Sb 11.277677486875989 10.278124622561617 6.994121323778653
Sb 9.944752866353578 7.965007820476324 8.112750330921351
Sb 8.849533914148843 9.278178132402143 5.8201963359587205
Sb 8.399520309376458 10.515459369156892 10.102624665974313
Sb 6.231544219661321 12.401014145681597 10.381980153249915
Sb 6.42805729427109 8.601027870066916 10.95543767743898
Sb 7.574698566502666 11.364525685981988 7.4767141106021535
Sb 4.2729567454101405 10.268285949080035 10.07126891645811
Sb 6.4727797416005295 6.473304153676679 9.048749404357396
Sb 4.878749153020486 10.336262812597635 7.270854203602423
Sb 4.17908989768985 5.571228993166809 10.523952514563344
Sb 5.327367092474193 7.581579371597493 6.6738465449911555
Sb 2.0498475751001988 7.418671972851605 9.897820019992889
Sb 2.502706023371431 7.250678982460749 7.056671273524549
Sb 2.187452982147938 4.846941430430598 8.588995395284572
