25
Energy = -96.40079838 eV
Sb 11.082526469832569 5.809263455436589 4.353745816989396
Sb 7.5786714864267966 3.4401293035784692 2.795661307773059
Sb 7.558467556396327 5.96141281163103 1.3732739802965934
Sb 9.157827451216702 7.542520773325626 3.109625823498056
Sb 9.84858203952988 4.308456098988695 6.486182793127434
Sb 10.548026767303682 6.972399826749015 6.9676255226214
Sb 7.090028142848075 4.565840937459518 5.391371438501415
Sb 4.853563846248501 2.6823482586666856 3.221286092194873
Sb 5.8168545139926255 1.9911553185931978 5.712655380849398
Sb 5.003357963216028 7.117297551400777 2.0892937222315355
Sb 4.396132068241902 5.853441465440524 4.624274444543954
Sb 7.846738686349468 7.868562986922454 5.882397390953494
Sb 5.188828732562867 8.560722866792021 4.564887751511859
Sb 2.954116264816036 1.9393968394553567 7.447634007958438
Sb 0.9109176143084549 3.3087833473113752 5.999004522631845
Sb 8.59513238217266 7.537612834933613 9.949711686953005
Sb 6.267239560795118 7.162250804395999 8.368625223650758
Sb 2.605306865369397 4.767063676014383 7.774016790687754
Sb 9.714923812870406 9.994352383303939 8.915018686639359
Sb 7.92036077530586 10.670061112677912 6.815431121119106
Sb 0.612265324036009 2.9890973571182555 8.830294946669895
Sb 5.43161618888894 9.879780542973652 8.011374166378593
Sb 7.37552280127209 9.096345382889643 12.105621842687066
Sb 8.455358627532211 11.557233113027735 11.022383893179027
Sb 5.687634058469002 10.924470950915163 10.68860164635464
