29
Energy = -112.51496472 eV
Sb 12.248808221028344 11.671500666507276 12.930560661879035
Sb 11.491650349744353 12.455732062367805 10.240210437305588
Sb 8.541118509088424 12.34038690366703 10.128124716292342
Sb 12.075281206396015 9.699493680552207 10.822167061501297
Sb 9.76497174775199 10.268755073392457 12.423854615367766
Sb 8.989098528437292 13.219960963568413 7.321533231123138
Sb 8.770933329356199 7.627802113693118 13.285181232947043
Sb 8.511724060417936 9.54178122873677 9.251632890267013
Sb 6.2545147169980915 12.539839513167413 6.812471963079748
Sb 10.301172194956594 10.905873455804672 6.236586239424326
Sb 6.803839018811792 8.51005539264412 11.393946417188813
Sb 6.36492792187192 9.628515197178226 7.289683178661679
Sb 10.435447676134473 5.9344137688559835 11.6705156632554
Sb 6.46630475845331 11.51434102810084 4.119245503379238
Sb 10.551278737185616 13.119537457910036 4.429918364870898
Sb 10.633361497454013 7.000970874906361 9.021435483103001
Sb 6.155362250048543 5.9762128152475915 10.162775993398315
Sb 8.30967674109383 4.152815975200593 10.888737499420673
Sb 8.166533680102134 9.39110876222761 5.051843919020394
Sb 8.28570495171778 13.372576096482574 3.000717048669339
Sb 7.290775576978419 6.397327620715867 7.537324678111416
Sb 9.39313622826665 4.495100722420871 8.198795893688494
Sb 5.089526381902181 4.8604187385846345 6.376498249295877
Sb 6.104526240131834 2.2549542923736805 6.945581241029892
Sb 6.679041629279138 3.479185339201287 4.443265836143298
Sb 3.5214486080089586 1.0446808527506897 6.511640452193136
Sb 2.1708958476324374 2.786538985817268 4.672531770065121
Sb 4.373768601788676 2.857275529869837 2.8384161358440645
Sb 3.3602094864020797 0.3318503183054522 3.742533124937854
