21
Energy = -81.1070806 eV
Sb 6.8449972530374685 10.034057239493432 4.7462190007225855
Sb 11.86438841246028 5.62995904033985 5.413495952866919
Sb 9.392411868359321 8.6501970958494 4.524449907096114
Sb 13.206927682435083 8.057314970059526 4.609177687377819
Sb 5.768799158448361 7.35674107031905 5.456788392971383
Sb 9.233686553872086 6.396785062323549 6.294955490016816
Sb 2.8994141807570566 7.418484036550614 5.162691330571937
Sb 6.4949721929024085 9.240281953968944 7.49701542170963
Sb 1.7532183091912839 8.968029578678427 7.319033619374793
Sb 13.747519061434337 6.808615678394641 7.188707443932651
Sb 4.013097664196382 10.216877949248108 8.632205835922019
Sb 3.7396212855562103 5.405190458714074 7.0495222870179095
Sb 9.798418216727097 5.413950442688579 10.32055703435932
Sb 11.541751551566646 10.093773274359286 5.815608145414044
Sb 6.63856022406086 7.547378681305053 10.354798130197475
Sb 9.559844934249664 7.880714647419985 8.716618834917853
Sb 7.037240155273953 4.745333617367726 9.807483770358767
Sb 2.058238079633956 6.6198099980278515 9.0121050836456
Sb 3.8094250163320598 8.207523393049742 10.732365842673076
Sb 12.18593138713776 8.923820087759008 8.379303096979132
Sb 7.809007176610646 5.782632088326155 12.364368056117769
