28
Energy = -109.39526948 eV
Sb 13.010832079206464 6.688636865725868 9.986733810594135
Sb 13.357127845951688 8.93349469348201 8.184840076486696
Sb 12.689099098382481 11.201623805866724 9.782836551736086
Sb 10.76491248987804 5.5753502886405055 8.583878670810984
Sb 10.755445264739983 3.218742317045174 10.308954154266214
Sb 10.349641773007523 7.272811041097534 10.891096971177166
Sb 10.326115767492904 4.911660849762805 12.611006987922245
Sb 12.966593270262857 13.007614618370692 7.596838467495704
Sb 11.166481363732998 8.769743103743005 6.385207811788151
Sb 10.4586542565857 12.910040465745602 9.149421579915101
Sb 11.687848579743346 11.450194086009825 5.440778961715335
Sb 8.116761054130492 3.5172643255037666 11.400100617791994
Sb 8.644592063363545 8.537188687700368 7.872223916960025
Sb 7.05008699278342 5.745141883258998 9.867122253218527
Sb 9.401327107360986 12.83435787106979 6.468964134328342
Sb 6.766667032558573 3.9993138410195295 7.595535311965648
Sb 8.257693914967694 10.369690134327175 10.46957848359756
Sb 4.618672185352359 4.192270376845667 9.493782824213847
Sb 7.739663401038112 7.663174945104084 5.010474177214617
Sb 7.271866537400776 10.918633125217415 6.886460839274796
Sb 5.315321081333891 8.254720951592569 8.284117610793892
Sb 5.90808146544511 5.472307455734949 5.270387824855735
Sb 6.515307395506447 12.31027266175403 9.425190357305453
Sb 6.019838071525381 9.800043988390506 4.390413736396088
Sb 5.39238012411819 9.977733011516012 10.63096593495194
Sb 3.0770445072588166 6.497135554738901 8.657057584446909
Sb 3.244737231729361 6.4854965569589105 5.767706374519499
Sb 3.7424267754982576 9.315497401571651 6.095751462310524
