21
Energy = -81.48565176 eV
Sb 5.322551209817935 12.054001647984034 4.510469904449491
Sb 8.120835276335017 12.553812544838372 3.9969822618243747
Sb 8.350471950258019 13.958173700703506 6.5587204802056185
Sb 7.217450876303333 9.939817563555687 4.612364353625211
Sb 7.534554851968027 12.082824014138467 8.531317410567578
Sb 4.866549089411765 9.103768705174806 8.264895730972945
Sb 7.696796215129485 9.44411526442623 7.436012960069532
Sb 4.515665842182752 9.651543261290108 11.04924600516859
Sb 5.532137370220767 13.474431171941571 7.071663525398589
Sb 4.668485644862907 6.922113233934207 10.117286836718776
Sb 10.39619914111088 9.398473987865536 8.82131456079641
Sb 6.6435291918659996 7.933377577808356 11.957853471831172
Sb 8.90283396535512 5.822962971294225 6.724720343312587
Sb 7.860956826788877 4.763873415179221 9.186593313173558
Sb 11.349915093041627 7.103721966949009 7.402119467025806
Sb 9.465276611816801 8.38462034299243 11.33965847593549
Sb 10.270042045538467 3.306600037327507 6.22372634612805
Sb 9.731104841335043 5.52853298537686 11.194269821456551
Sb 9.222604513103596 2.2421226811785235 8.725558896324003
Sb 12.15014032528115 5.638623432992461 9.70466826847565
Sb 11.976917532228548 3.0232555275542468 8.515858690531767
