25
Energy = -97.3064802 eV
Sb 14.218581229526066 9.964246200306771 7.730802859927781
Sb 13.328461735566187 11.25843696308092 10.17341104154457
Sb 13.939735816166873 8.46529433557122 10.170014121874408
Sb 11.516132829010516 9.913528607032626 6.670291958477267
Sb 11.366353773399267 7.129836448416944 7.197770032446969
Sb 10.638149194696124 11.322088317707506 9.05014703633213
Sb 8.404486212646919 8.403835673957163 4.4730748916242105
Sb 11.389162149122033 7.111761255475565 10.040566184826913
Sb 7.581663023063974 12.086993596514056 6.61449904964148
Sb 9.722846329013505 9.29497527065055 10.78768411863433
Sb 8.495490259196785 6.744187105081494 6.809895102798754
Sb 8.731440952275621 5.5652978099783015 4.167524096872945
Sb 5.222699430285362 10.647316754972103 5.673100890700089
Sb 6.875227517856248 11.779844749150469 9.384947789484386
Sb 6.128327265524739 6.743639032508544 3.8754817398628107
Sb 4.969761464325927 12.882138666524064 7.4851596840394805
Sb 5.378858047447247 4.534120310282588 8.416537734996693
Sb 4.5974669222749585 6.391480396099364 6.318847902737557
Sb 7.9849010114056895 4.521968150705279 9.636425985941452
Sb 6.985854619455072 8.892144973694709 9.160784355624132
Sb 4.405711583276981 8.85399536382005 7.728668400005778
Sb 4.096218989973865 5.691813146950004 10.687145773858541
Sb 6.14419569505725 3.9560786718168353 11.855190655162637
Sb 7.981030761671319 6.2047536914556884 11.956052282110761
Sb 5.73465928354951 7.932325990813012 11.560451352273489
