24
Energy = -92.85645055 eV
Sb 10.120572898823331 11.537019421203647 2.6013966990991317
Sb 9.06087906299738 9.045080394801554 3.602315902496411
Sb 7.812114809243294 13.17605999915153 2.6753915441987277
Sb 10.641110763622109 10.6911203296892 5.314921032640864
Sb 6.370836480264448 9.673562614325265 4.329459029923344
Sb 12.819775420698887 4.745700250847394 8.064453230894648
Sb 6.545377522337114 12.42062099872579 5.0961532759089545
Sb 8.84689291069949 12.383026444176863 6.757263722183414
Sb 8.378702608148325 4.973115348252643 7.827152476744752
Sb 10.440844857460101 3.787954330645992 9.415928718653767
Sb 9.27653901127555 7.588175715624195 7.1526090755129825
Sb 13.99155467400368 5.1997406716703765 10.660567547798085
Sb 6.51008266256092 8.489443461896437 6.999308984770306
Sb 11.231578985702889 5.867167367447157 11.300492713620944
Sb 7.291650551075058 10.769679838354271 8.594585146869036
Sb 9.467391671353337 9.117341582927216 9.612189620508422
Sb 12.70297676070913 7.362123310211216 9.302035532889153
Sb 4.282760321655171 6.084585740381031 9.207267294043744
Sb 6.795877658579996 5.34135064680606 10.309487555904324
Sb 3.8397819749870448 8.864505206041718 9.882317845149975
Sb 7.96471346047557 7.616482291182475 11.589106179639106
Sb 4.1381961782222065 5.298797511609796 11.977889183743532
Sb 5.834966539389791 9.512504514383727 11.800282657000203
Sb 3.539155032770717 8.023891335016005 12.678613145136772
