26
Energy = -101.83008445 eV
Sb 8.166297524232458 8.572099124634699 11.206667174792134
Sb 7.339684557517774 10.07555240878938 8.905385329155166
Sb 3.50936384301879 8.348639739963385 10.875150084920685
Sb 12.237760909685594 7.381393218788524 7.424909701500385
Sb 5.793128521461564 7.541184174981926 12.490405255073627
Sb 4.778278835907459 8.899248339720867 8.35585124760525
Sb 12.411941206633344 6.195050528343228 4.767877444620641
Sb 9.575069646381593 6.24935923348177 7.612767870608212
Sb 2.855413325399779 5.775335268727201 9.624247368439034
Sb 12.037493687240731 9.031928875198854 5.120036278087497
Sb 5.529132447245692 6.125493813364694 8.581882184972965
Sb 7.395543480810165 5.857069459859743 10.787502359293123
Sb 2.086358283174008 6.91302682600388 7.112903749667369
Sb 3.721266112251861 2.8867760856099025 6.440844974422546
Sb 5.947856037534357 4.625588687488939 6.006011658452346
Sb 9.25696143544124 9.54732647316335 4.599301965937402
Sb 9.693108242932501 5.156671285088121 4.933644531085552
Sb 7.810375498540174 8.243918869138614 6.6824685540883095
Sb 1.4335251378556404 4.476113890041953 5.7033706887702325
Sb 5.0427348843668955 2.2330161349034876 3.967801916557435
Sb 4.636851261099501 6.985941412758147 4.9616154950863525
Sb 9.039346655207474 7.190765050597533 2.9955612742648094
Sb 2.4968632138735516 5.851829289171033 3.422561903764232
Sb 3.590307005389933 3.632450388584273 1.9416679308186375
Sb 6.210050825049598 6.999872140403703 2.351524496617984
Sb 6.412327051670344 4.2113889111161615 2.1350781913206136
