26
Energy = -100.29204461 eV
Sb 9.448842994739607 4.196576853290761 1.880447249242263
Sb 6.607522203550494 4.713259278328755 1.9124311757357995
Sb 10.427819993279764 5.907004475765572 3.66790867875436
Sb 6.655287353889775 7.6019662862464354 2.076797551681235
Sb 8.06649015688545 7.299611600738542 4.594343676000926
Sb 6.259582804939895 5.040544560255221 4.788298371667635
Sb 4.290435345903008 6.82879126489683 3.6220199107939393
Sb 10.321541091741548 10.80654781428782 6.621773534814749
Sb 3.869364877929166 8.803511104698686 5.706874328323326
Sb 11.744631154526118 8.99004443809721 8.325195850953163
Sb 7.00481456159845 5.599808118802082 10.31033217758398
Sb 11.756440158254206 12.950975347751331 7.896661945381407
Sb 6.378904834988805 9.09753298860233 7.121678947871545
Sb 4.22699447907397 9.6282566178981 9.029705043323982
Sb 12.4020854200276 11.108008736305505 10.105482386965845
Sb 9.104480431537905 4.210191710036414 11.639912221127583
Sb 4.57660973662841 7.00873517576581 7.880802929703656
Sb 8.887420610805897 12.638654071489347 8.329735824250793
Sb 5.974519138753248 6.970047970928968 12.575050246588622
Sb 9.183607653028405 7.430797720734872 9.128984228000615
Sb 5.6204586081090255 9.688947063728737 11.569051313793656
Sb 11.186774195646896 6.148507258365594 10.670253826579962
Sb 9.782793470066945 11.99023569563667 10.964609626256365
Sb 10.275267383917717 6.148134567793258 13.387865743356855
Sb 8.345995192119082 8.243580928173044 13.624546339573667
Sb 8.442541906562505 9.471878946292497 11.054344802604545
