24
Energy = -91.56029997 eV
Sb 6.157826744186897 5.988491660422407 12.282252535080836
Sb 6.351700799842443 12.201561543842306 5.562418177295718
Sb 9.842975378321748 2.475627052391442 3.6605951148621543
Sb 10.925439398720515 5.678839843857818 5.396776275697312
Sb 6.887929762779987 9.92617145121395 7.379273325425146
Sb 4.542024719650584 2.8747173397480346 5.618305705702105
Sb 6.921054092008484 9.721612964617776 10.24683261668545
Sb 6.1228257027544455 5.366357087540804 9.412280101057526
Sb 8.298610485957921 8.183638332014477 4.049956357222153
Sb 2.37353399307279 3.568018345137194 3.8609221077311062
Sb 6.769962382626385 5.789323745801234 3.679009999036871
Sb 8.54860595279416 7.64861941497216 9.516065213987957
Sb 4.303570769015615 7.225663796105906 10.498883045667917
Sb 2.401285814783137 6.0366147139906605 5.408527267145184
Sb 3.7207776797473957 11.76198388957097 6.4898531576442196
Sb 9.325361266837426 8.475599054543297 6.785054668742411
Sb 1.9025662937595418 3.456918051955752 6.658013750965238
Sb 11.626090205506587 4.560503792689524 2.791808111357252
Sb 5.194249565892637 5.693598978828502 6.091760841332821
Sb 4.052116309717753 4.402308990764584 11.24317480792562
Sb 4.324804174388923 9.022820050084585 6.157620316403478
Sb 5.94890301816101 9.838995666010742 3.8987013966131747
Sb 12.256176291528966 3.065196361058694 5.120017327532056
Sb 8.421227379316885 4.239312081231312 5.493404821863215
