29
Energy = -111.94044902 eV
Sb 11.407356836204395 1.0548435687567295 6.1559357906082655
Sb 10.109444989901537 15.243077521381773 7.978858897689342
Sb 8.590374944151222 0.5618967683797337 5.903160469656065
Sb 11.60705963740345 3.6128414426587563 7.448843993427308
Sb 8.054199827315598 1.1400445124120364 8.662962539337736
Sb 9.06509613070406 4.443203201415201 6.457897635074866
Sb 9.359719287974336 3.6574484339256563 9.19377948021574
Sb 13.824330779356073 13.115813809472346 6.163485752523715
Sb 9.31704709559661 7.458354186388584 9.567717667350218
Sb 9.493184011543306 7.4224372964177 6.6872941523173255
Sb 12.359752738686852 12.464876108128609 8.578254781486239
Sb 12.920775820269888 15.24307752138177 7.908051362211142
Sb 10.197519561043434 10.339096612516165 5.620562804547473
Sb 9.961074459368652 10.276250748029927 9.950796711374194
Sb 7.7128895728709885 10.17529671747457 4.1596008524787225
Sb 7.051225200102238 7.513497792609329 5.187687828505297
Sb 12.544850074307464 10.719211151013452 10.827290052983328
Sb 9.66132338540608 12.42006130867631 7.502406799679284
Sb 6.58564619832516 8.225367434731753 10.185613853589329
Sb 11.287969753794322 14.339368452302692 5.758660951782849
Sb 5.489543591691578 9.798001653200323 5.954696166265493
Sb 6.837306882964681 10.467646378943192 8.375865808418682
Sb 7.933253142889045 9.985950372668384 12.058904641983114
Sb 4.796795267613406 12.150692953353142 9.535270267479326
Sb 6.384187606088499 12.410057608032195 11.900272187354705
Sb 3.8208010745661785 8.731972535486003 12.548914944525277
Sb 2.8950788372475986 10.149229403436923 10.232158290178893
Sb 4.742422732637722 11.125840253948724 13.86155270881945
Sb 2.051807931169328 10.992181095933994 12.858120292192824
