24
Energy = -93.88532789 eV
Sb 3.886201953887979 0.8939024881000955 11.22462633883503
Sb 3.3371222483926815 0.8520337619375594 8.391043660012249
Sb 5.682794191176123 12.346559087013574 9.476381108942121
Sb 5.125568691037544 3.43107411922391 11.753542006719702
Sb 4.017455643663971 4.698620165035859 9.470298204240361
Sb 7.775694028124038 2.8532166330557045 10.867182792724364
Sb 4.951630686995548 3.028723322408078 7.364549657115413
Sb 7.280347570253635 1.6521309290898316 8.332229947240341
Sb 5.94479074683327 6.81937807140146 9.568907773361257
Sb 8.519647426533842 5.520305797002884 10.04277156670116
Sb 8.061474069900834 4.962656574858965 5.389871005025862
Sb 6.032825192857619 7.134568996303503 6.725400867912817
Sb 7.620116204053367 9.483131988673302 6.932761215788594
Sb 4.715551252162646 9.739027224315 6.704529633335846
Sb 9.666030066110245 4.285294712011725 7.666716803006225
Sb 6.403332882824714 8.104773489150098 3.0015118341085762
Sb 4.234708931597455 9.71688577200874 3.894260729099102
Sb 10.345628286497968 6.366774391610308 5.764956020318694
Sb 8.634678719561915 9.366385216735708 4.243942493895608
Sb 6.711945523928467 9.400015672436377 0.44548961402588927
Sb 5.226754564856845 12.346559087013576 3.4926170033138204
Sb 8.089989169720207 12.123625402457334 3.7316509781740264
Sb 5.417618182078629 11.958168975647713 0.6336552553015337
Sb 8.312900309903828 11.745561662605093 0.8759100337547857
