27
Energy = -105.71404172 eV
Sb 7.100932765316368 0.4830015094497123 7.271855318128534
Sb 7.821593747930295 0.7837358492776472 4.491570281546842
Sb 9.833371344077813 3.6261323197018176 6.764420250813683
Sb 8.673775078426344 3.510465031613736 4.113795019360417
Sb 7.667289924480798 3.0089187756778735 8.547541887687082
Sb 5.066076875915098 0.8875191057342616 5.320801383190834
Sb 11.171962594110521 8.006320600143745 5.86924507167915
Sb 11.165797504551417 7.988076405716418 8.744132074655468
Sb 5.981907043589677 4.268581297389738 3.359610392875798
Sb 4.345693654563319 3.7655502305978668 5.678742887778575
Sb 9.224705799872277 6.414544142784467 7.2542957685723355
Sb 2.0945253842324973 5.768424906994052 4.916066862725636
Sb 9.151269640191483 9.826452695844718 4.897970995920053
Sb 6.804153494516235 8.138609607496626 5.333078640660013
Sb 3.157031023092415 7.568062394823916 2.9207544820310294
Sb 6.0367646208776655 5.220750706116619 7.55387510305214
Sb 6.035982589585386 7.094129673011053 2.7489809695571292
Sb 9.084812604928677 9.819037006839796 9.549758992217756
Sb 3.630256178346804 7.428386241051293 6.65247489881182
Sb 8.82488630644519 11.50672727489937 7.2229200846962
Sb 2.7889404279359296 9.589757116591738 4.976977195222613
Sb 5.485556996388551 10.681145808671847 4.949936193415436
Sb 6.674648373169254 8.529986698352932 8.529783927249612
Sb 4.365579127145547 5.169556046448698 9.976109364481513
Sb 5.969219433183949 11.2620725659785 7.749598115873302
Sb 2.482550134001698 7.27042991448445 9.32257852659275
Sb 4.860717333125806 7.88362607430795 10.78312531120461
