27
Energy = -103.73117922 eV
Sb 8.59228121654847 5.898444727608925 4.660111800874673
Sb 8.193853171152835 9.438730703617049 5.095264469319729
Sb 8.528672236362121 3.153449492148617 3.3475218083886564
Sb 8.497337162149838 7.5282627271431455 7.148901974495071
Sb 7.772198374626901 3.5891032198623187 7.876675569959265
Sb 7.860659651756882 4.792508757397209 1.1736543666756472
Sb 2.642194197645008 5.553019453681786 4.55320966506235
Sb 2.588216702385875 9.243775022317472 5.24147515952456
Sb 2.0582404453998167 3.220313750677356 2.7173715990651224
Sb 2.379118957786485 7.1848608797498486 7.09826393050263
Sb 3.3582123271923057 3.4996383459973797 7.797188089356808
Sb 2.5971260830683804 7.593023196082418 2.522775343159678
Sb 2.8016251095336586 5.103937171063965 0.7632905554102556
Sb 5.406713519807101 8.634530775325203 4.837430628193724
Sb 5.596399031317152 5.366849117728703 4.105151282980685
Sb 4.527020604910694 1.7175856048693678 2.238866806963473
Sb 5.385261146442987 8.641202760519173 2.05711422192094
Sb 5.334315497132899 3.7165729409637915 0.3245530039751363
Sb 5.539144323693538 5.1619992544747015 6.991928771045576
Sb 5.447176314369992 7.814505004917921 8.018569441413062
Sb 5.986328317748831 2.4663578429045994 4.5737465516051365
Sb 5.601623365566072 1.6797678085451213 8.379666651167216
Sb 5.484625571779309 6.555993431947496 10.641819156365992
Sb 8.235606713616 7.703322229354023 2.4541602552225714
Sb 7.593980936511633 4.561726143527843 10.61082829102798
Sb 3.414467502619186 4.524642371903099 10.518262058756433
Sb 5.514135810014351 2.592411316608299 11.188732838705619
