20
Energy = -76.88090736 eV
Sb 8.247286452489336 9.800269017492315 2.1425960859100943
Sb 10.464543871055616 6.080517199471427 2.126697956083307
Sb 10.921940404810687 8.818613233384658 1.6366171877802265
Sb 7.153886496175555 7.917011757670143 4.081756959048576
Sb 9.289515145914017 11.509104795639757 4.283087497708495
Sb 11.299157812945552 7.695990944443235 5.946515149460879
Sb 9.271002860795909 6.1238298383236645 4.706728559336819
Sb 11.73537692201807 9.910069835498483 4.193224588095483
Sb 7.539841472038656 10.016092255752984 6.039607294450903
Sb 9.73656241547899 9.303178040759049 7.723702007625517
Sb 8.601671353706413 7.270624200345142 9.472155068141376
Sb 6.101667605224078 8.686499259711852 9.197089240189849
Sb 7.335981185196068 10.940305805345467 10.515030719328246
Sb 5.386556968275459 5.328061226499569 11.447297074308317
Sb 9.435971330352638 9.157371793867426 11.508161816793324
Sb 5.28844489673927 9.363222433586598 11.879401086738506
Sb 4.249745024185151 6.025321172080882 13.975872511625816
Sb 7.074026783951703 5.667398244746011 13.721768940458873
Sb 4.989889971508937 3.3172372378527246 13.449593859639013
Sb 7.479590351124003 8.671941031514995 13.555755721263127
