28
Energy = -109.5231625 eV
Sb 10.735869503244405 5.883873871259633 7.939252062707556
Sb 10.227600311655635 7.962405550365376 9.888539058700575
Sb 10.80740337335822 8.645718543644266 7.150327343383548
Sb 10.30460957440175 5.698807913408142 4.094160786997705
Sb 9.697696396905267 3.274824879596432 5.602934994066515
Sb 7.990206248915119 5.122726681889015 7.119869677235265
Sb 8.601717760708322 9.604560718615492 5.471717435608549
Sb 7.43031325782524 7.841415028559806 9.298499393148928
Sb 7.717230693957247 7.017075886902727 4.4589406222440156
Sb 7.793050876125082 2.523756727316106 3.5181796234708584
Sb 7.244580512833866 6.736835291296442 1.5721617384432736
Sb 6.625047439576383 10.184949349813161 10.765799616504532
Sb 9.055781978767422 4.4553610505387065 1.7621688963463047
Sb 6.916412535274201 3.6053659243377543 9.359858835006266
Sb 5.275200514757366 11.343683513273698 8.467009148505827
Sb 5.981888481317449 9.173754905983854 6.672524830140398
Sb 5.875971746152457 4.298073693639972 4.731385549830017
Sb 4.456536311552715 2.3798119178806205 8.404854013481375
Sb 6.049215734320017 5.9294895034826265 10.939629950570572
Sb 4.844087759078358 5.332730500613111 2.203762662695697
Sb 3.8317095429628663 9.691193548249853 10.351275074617009
Sb 3.944644512901044 2.2865468677383944 5.5520364727157085
Sb 4.450089061022358 6.335237212899283 6.897016380154289
Sb 4.180168100797286 9.983767053285785 4.52362382545843
Sb 3.636463378358246 6.875804661470109 9.652193319501878
Sb 2.5180101588156973 4.146241767425525 7.21512775921318
Sb 3.404514438378919 7.762336647012772 2.8506881418687007
Sb 2.403979796037102 7.903650789501064 5.536462787382912
