29
Energy = -112.52263201 eV
Sb 15.571258019555051 6.201215955917958 6.390397121463041
Sb 13.296050145747065 6.877493072956107 8.249042928513092
Sb 13.319708174473437 10.747257554032924 5.892134786342613
Sb 13.35765176469965 7.842364365711084 5.579902563115998
Sb 13.320057287566879 4.429245309519401 6.80129611353994
Sb 13.043986558887019 11.103768967327447 8.724263370117919
Sb 9.919932882064103 7.4910636974241145 5.813050633182708
Sb 10.61544903739528 10.254320386399785 4.950231956344617
Sb 8.946979573175188 11.37551540863561 6.986485613145856
Sb 9.47267852139272 4.22468459135675 7.347807207565082
Sb 10.337346454315577 10.329627062373607 9.249738058330038
Sb 10.09530838060362 14.007135757205939 6.877838848487394
Sb 9.944332098945454 6.832743052432673 8.583213537989545
Sb 5.998174364735067 8.768075535049373 7.070580632540143
Sb 11.027324021481071 4.869116772179464 4.997442392648555
Sb 12.688062933274395 13.858949679513547 8.136646391614464
Sb 9.62382223142157 12.461198642957491 11.067489057005378
Sb 7.119438643485596 7.358963575825445 4.9072870308298695
Sb 11.538459786697906 14.566198123479895 10.69058756089719
Sb 6.780122821586835 4.9266084443095215 6.418411434603341
Sb 6.669847725208393 6.597719339177518 8.777008167569091
Sb 8.923856444266228 14.720615923305122 9.420804393185394
Sb 3.7741070553203335 6.486435637011144 9.397796639074574
Sb 4.208224358225142 7.969705636251518 11.803940791450447
Sb 4.1642128770667926 5.134769416100699 11.9143525225567
Sb 1.4384318790494008 8.706633434507099 12.017827325870073
Sb 15.571258019555051 6.582224976984878 10.74137659891088
Sb 1.3805351921489457 4.520419762086579 12.185970725738471
Sb 0.16717316548491057 6.692348875606208 13.612829325436891
