21
Energy = -81.74259763 eV
Sb 10.217120095429497 6.392850282742886 9.68238724874835
Sb 9.94284790298348 4.566988132545512 5.178168358982736
Sb 7.565143904274333 6.251185062956629 10.885057006423926
Sb 9.89384907304179 9.206807016653967 9.151283151501897
Sb 7.197054760743244 4.105942450668317 8.971799312969083
Sb 11.359691479643367 7.066654639581827 4.80576809596571
Sb 8.556042718139693 5.9699744549809415 7.292878137944877
Sb 10.167228728898797 9.332381664149812 6.233290661996286
Sb 9.344096289508165 6.2727475933156525 2.950515301099966
Sb 7.01557046682374 8.864408188878185 9.622967194233178
Sb 6.152035208356449 7.778329626041868 7.143546826870224
Sb 7.417500285852709 9.742905377814543 5.518816542870172
Sb 7.119989395747652 8.086778205587112 3.1895762556640737
Sb 4.505331102949438 3.9707741378736845 7.7927653659936365
Sb 3.0263152486857834 6.389356810885607 7.977754914746028
Sb 5.034087440145876 3.8673614619491983 4.995053236210075
Sb 3.1597592389423412 7.837900033978961 5.505443756402967
Sb 4.751314217265672 6.389659948869827 3.6562630908707057
Sb 0.8746560896167014 4.7118764491913385 6.900112282507704
Sb 2.1885576222104803 3.533800770328988 4.622462513800341
Sb 1.0050663285897956 6.1545752888541605 4.4173483420464335
