22
Energy = -86.1965416 eV
Sb 9.752359162589212 9.80396210653874 5.816198960794473
Sb 6.842405426367653 9.65572685385593 1.6522214720925543
Sb 8.033418849034776 12.06960750147008 5.369135612276166
Sb 8.238127078906679 9.331951808281714 8.238327115665943
Sb 8.284333030495546 11.975247068472559 2.5228236744232113
Sb 6.120330326761973 8.255085462242581 6.592759266547273
Sb 4.522368958811669 10.259224103076678 3.2225040584898568
Sb 5.4296279901479085 10.957928349715031 5.843561451246994
Sb 5.6185660409076235 12.28137306088768 1.504465324456877
Sb 3.3674018453530574 3.9716890737397272 8.967989247572575
Sb 8.119745607290673 7.7751481829392795 4.57142085011027
Sb 3.616326507953862 3.416915214830808 6.151937868456613
Sb 6.797717421079535 4.499617295263981 6.666235376408111
Sb 9.4141083025583 5.667799105281224 6.075277414411754
Sb 1.842273419033234 1.8109589133372819 7.784671668084019
Sb 4.1191307062541425 0.6101988346944424 6.4889387948315775
Sb 6.687491463945177 5.772196386973103 9.27111789066748
Sb 4.947750057457053 2.1755719518791334 10.53736919478116
Sb 9.38629084651322 6.754057718292546 8.769768415843139
Sb 8.17157988175316 2.219667492140139 7.860294826738572
Sb 6.034229797289098 0.404414862904113 8.580871183812839
Sb 7.644239947485065 3.3214813211723797 10.501933000278044
