28
Energy = -108.73444675 eV
Sb 11.469209539358204 13.07898390396296 6.7552991764041375
Sb 13.122119523597384 10.843870639498935 7.645603544699385
Sb 8.745814672722354 13.337723674824991 7.820631271114774
Sb 10.97938138401668 10.215858171744806 9.425894775772361
Sb 9.2857787878432 11.735207985653703 5.494103497966416
Sb 11.991781613155423 8.816849411543979 5.906691863897077
Sb 5.50567217560805 12.427088961270549 10.900090050798063
Sb 7.760972567901886 11.173643726083972 9.580719931833718
Sb 5.114827818905216 11.139052533740001 8.389830638152162
Sb 11.87057277879124 7.5568603263380245 10.103816415877551
Sb 12.7747790706599 6.552037382184343 7.540750112006418
Sb 9.358146264550827 9.302212257897098 7.137370823169849
Sb 5.16817929903005 10.283059469436614 12.822483945231028
Sb 9.942082325661502 6.330088096023216 8.335574741430033
Sb 7.821091064462773 10.430677335266909 13.89827414546015
Sb 6.125431754657114 6.354565115712987 3.3917138198173986
Sb 8.779761705907266 6.742100531298613 4.43322120882793
Sb 4.0786701820254505 8.504095938996219 8.984673760656241
Sb 6.1796350629297025 7.084879281658019 7.536892559505041
Sb 9.403015985700033 8.514708171131257 12.881773421097133
Sb 7.899746965263184 7.664572211224915 10.622908133792631
Sb 5.169961932686216 7.72442873293741 11.529307403003077
Sb 4.660294066196163 5.435788347783036 5.683693247402021
Sb 8.172004934581388 4.413528210396627 2.841014535772534
Sb 8.912810938492143 4.119397085379121 5.616471272842608
Sb 6.02870728026103 4.676426164261263 9.147224635821575
Sb 8.590035847003215 4.817401549725866 10.482147147628272
Sb 6.340068156529442 3.298443539377046 6.581904507545817
