24
Energy = -93.82361795 eV
Sb 12.539694264326979 8.266358553912257 6.434593557188659
Sb 0.541771272399917 9.27678946157317 3.8543194651180652
Sb 12.717949363421669 6.466487965890518 4.237792142499635
Sb 2.178945337923558 7.869610532402719 7.9970291496904995
Sb 3.6707210415960594 9.70151170360736 6.381258749019041
Sb 3.0804090881415602 5.3824057172808475 7.071930633627367
Sb 3.361328977444318 8.588091323918704 3.810537446428529
Sb 2.7894614607093446 5.785154694829935 4.310985463118264
Sb 6.324892530648348 8.630216769466271 6.885822733134823
Sb 5.788541890804771 6.154612088528169 2.313507416790614
Sb 9.368018956167935 6.563616131087651 3.9703903946366745
Sb 6.686745702564571 6.400493348367771 5.065874275000192
Sb 6.417828683375222 4.3079145711815165 7.0408668281681654
Sb 5.778803262038792 6.524905422442824 8.810063525585306
Sb 8.113473671152569 7.729074986820008 1.6079088135662043
Sb 9.881985324162029 6.9295864749031075 7.4239835807556425
Sb 8.40022834596611 7.493692749926079 9.784264271093233
Sb 8.367250458152967 4.90552876672833 1.7832978903095638
Sb 9.335791375863362 4.178405269725542 6.972561085876964
Sb 12.53920697131772 6.504906048182564 8.498601647955049
Sb 9.28936528532315 5.3467371702133635 11.394746782224919
Sb 9.716591424314327 3.141891515389859 9.58838828205837
Sb 12.104460296810434 6.042042423808623 11.286212620001221
Sb 12.53969426432698 3.807588523789496 9.472685460130052
