23
Energy = -89.50413871 eV
Sb 9.308847672081765 3.54989876686343 4.77619347825245
Sb 8.543542050962385 2.474468172922844 7.381350329076931
Sb 5.248871662599864 5.323917898618681 2.5731976660935203
Sb 5.756553579598535 3.1079367187258606 7.046800031198201
Sb 7.008667820348108 5.350871745269545 4.993272688000779
Sb 11.061228486212396 5.087902433884057 6.51690077653355
Sb 3.9216351569036125 7.772738147885086 3.2143283320405063
Sb 9.365416192618055 4.85005361362902 8.840724752352825
Sb 2.6983908508581176 5.273993446039749 3.903257502495093
Sb 8.698215621877134 7.479212508970954 3.7765582652722873
Sb 5.060257365405742 3.494132743971936 9.828401401521472
Sb 10.60960843411876 7.883507895679816 5.824957457276955
Sb 7.1823565128889815 6.548219054651474 7.90184771387169
Sb 5.312008353580168 8.371255274834635 5.778521277803528
Sb 3.7332267706134794 5.506801534198737 6.631991612017685
Sb 9.078351727147947 8.758888167900258 8.09164019021395
Sb 2.824330741835926 8.139574208552014 7.237596867978753
Sb 5.930378393418106 6.205873485380467 10.516191179712454
Sb 2.444397120409292 4.5403838276329775 9.050630261471552
Sb 8.273141968176141 10.363565735706276 3.831845494812397
Sb 5.843290670180124 11.1112299696362 5.167503485531263
Sb 3.256647914203592 7.175406835466073 10.008964308864014
Sb 8.347437992993376 11.13697087261153 6.614127986639768
