29
Energy = -113.20806111 eV
Sb 3.472387240181029 4.468059304214598 3.8511200354760757
Sb 1.992136935412664 6.032280211509346 5.779733022451774
Sb 2.352224226579337 4.614007584021362 8.200776223539872
Sb 3.839643797228582 8.953105891846338 3.609886649149782
Sb 4.973462988482422 6.544218305711485 2.5111694475988275
Sb 4.134039058362553 2.44295562199811 7.5280699214841835
Sb 3.7241688994214477 8.421724441859777 6.42378098709726
Sb 5.672260023325002 3.977880714859873 5.635124285734245
Sb 6.17157191610589 10.64868653390324 3.3351826677404692
Sb 7.314249982786486 2.1951818067991193 3.9431814147836834
Sb 5.968268029102793 6.775789394785555 7.318193181638947
Sb 3.9653166390149304 6.85370258419198 9.418548453426332
Sb 8.715672477688194 4.446628980805769 2.8120577288677406
Sb 4.74162066632677 10.960714568835767 7.712676194754974
Sb 8.075309157370699 8.735741728483198 2.338342645456399
Sb 7.410118768190117 6.6530656557915755 4.240868794940335
Sb 7.0309005227148855 11.386178195111297 5.992838538963342
Sb 9.79274326754039 3.0583875345368177 5.085495388677731
Sb 5.499625396618219 5.248174614803878 11.267827175267085
Sb 5.628796652253469 2.6434557950387965 10.013625892725653
Sb 8.54346950027682 4.741060530978827 7.167950270504591
Sb 5.396564155293946 9.650949355779723 10.115090395209469
Sb 7.705368236272043 8.495893968516654 8.966478165749926
Sb 10.455912642023543 9.680946294684851 3.7118548563587406
Sb 10.149410680975157 7.44212143208854 5.525584703406351
Sb 9.579028626319804 10.058641757253223 6.436478635299558
Sb 8.108440788264605 6.459316084816635 11.010503751384247
Sb 8.209637091885169 2.3882590487573245 8.817047900636089
Sb 9.877651633983444 4.522872058016754 9.73051267167593
