25
Energy = -96.47512593 eV
Sb 11.297423342122588 3.039110668823316 6.32139348003427
Sb 9.137834438782974 1.2806829715969852 7.0611490510706485
Sb 10.142405367353101 5.514852759044166 5.015571144703204
Sb 10.366200017859773 2.9765129929042944 9.037150156695589
Sb 7.96451093928802 3.754375336975401 4.431311921214712
Sb 9.151420578675896 9.214044573347403 7.560404516186137
Sb 10.08323553558991 6.449186410554662 7.722433460373677
Sb 8.912263383763893 8.279122427569959 3.3561470981945467
Sb 6.865728164507945 3.1276207528219917 6.96740475581831
Sb 7.124798914051975 7.142047173111256 1.636295561454947
Sb 8.093729055613906 4.828923585139825 8.956394371024226
Sb 5.908488395354048 5.693251547517091 3.7747031869003402
Sb 7.513625617511534 9.454607837907844 9.91547415003562
Sb 5.479043416453009 6.565245761158893 6.5569622801205725
Sb 7.1539634111719606 8.830713195757989 5.619063468794934
Sb 5.853408472107329 11.399973552853131 6.136675756063893
Sb 4.401656633100504 5.7631549990993705 9.274741800679037
Sb 3.535307906469578 4.080985483174405 3.3384925808665518
Sb 6.294411390482624 11.90967392012989 8.937201992973337
Sb 4.764173319570552 8.535130693478026 9.845012575316842
Sb 1.9397355605577882 3.9105973734026604 5.7275643404427035
Sb 3.832341928779141 10.582601702514241 7.962407270494771
Sb 3.061366771442941 7.950400522931849 5.739748234563039
Sb 1.9938714427148454 6.093247347346241 7.718648534688766
Sb 1.6293962346960003 6.12427664886044 3.8879885493100033
