28
Energy = -109.46703652 eV
Sb 3.5125963256932424 10.38352373233507 6.625108627907593
Sb 2.8499088421290986 8.215808832920557 10.061465817119684
Sb 2.459539619632488 7.739347665081476 7.224842189937545
Sb 5.20872371311718 10.720304232046905 4.245683327669697
Sb 8.102080433785328 11.318667080855697 7.992174103976475
Sb 6.244587297396546 9.587103157204824 6.649609095348062
Sb 3.5861715348024163 5.628148504624365 11.075326901245885
Sb 4.700953330839598 6.035087088673134 6.627707474106141
Sb 3.780068141002399 4.137846934783369 8.617223400812552
Sb 2.7463428365455016 4.527655173591934 5.030468067353385
Sb 6.018569567862916 8.670350330805828 2.3086283684165414
Sb 5.521166387812268 7.754600472007459 11.072368088942035
Sb 6.182194887085416 6.039966272614889 3.5432621258166574
Sb 4.2330807637164645 2.0922504324472126 4.647204938378177
Sb 4.228009747309142 4.128388748476304 2.5774802801766263
Sb 8.66111417203481 7.54570089688897 5.650215569339733
Sb 8.520887776500823 5.854190266156907 1.8572883038926868
Sb 7.920058741514526 4.1459250189185 5.792253000734297
Sb 9.0353097029866 9.09989943800195 9.616383051566112
Sb 7.068065301007159 7.108034403813252 8.729113021303075
Sb 8.877568062267699 8.530633670511 2.9173512078855954
Sb 6.574397023345183 1.6886675617611016 6.320205192594169
Sb 10.211068787146239 9.60120056026107 7.019858295294004
Sb 6.245653495860542 2.7478379056941233 9.080847746850178
Sb 9.968035277599364 4.118216274592937 3.7164317158987523
Sb 11.08846895939271 5.954364458771797 5.657186071713726
Sb 8.338619146568947 4.717241166948277 9.764238318884416
Sb 10.112450645628117 3.9047302397930093 7.575766217419884
