26
Energy = -100.92196543 eV
Sb 12.050188033228556 8.905593540295456 7.284809591377757
Sb 11.331457987013408 7.019142248277662 10.448660790369612
Sb 9.613119583108068 8.64037924557708 8.829730397527534
Sb 9.514319426048246 6.876372263679984 12.651432859069347
Sb 7.319588237113829 9.526652219717713 14.196636383704679
Sb 12.067246091476637 6.128003738567306 6.485251857754333
Sb 11.211425796690428 9.948599208284987 4.717764236204337
Sb 10.059101489834452 12.153359767748627 6.200883862041585
Sb 10.974391635829985 4.7081712738702945 8.785047252168988
Sb 10.045872987160834 9.649745389181376 13.235146918478028
Sb 8.591819471976407 8.74501038092394 4.425953425176383
Sb 6.704861190644943 7.470524941998209 12.201762931738783
Sb 9.927717465932783 6.1652761350431255 4.591019393595152
Sb 7.736687374344404 10.418880803225905 6.709215708165012
Sb 5.928032133983688 11.536104764147307 12.689434099820588
Sb 8.291187934499586 4.021913789769496 5.584554552499439
Sb 10.057437978951292 10.89443452266508 10.606065356404828
Sb 8.146462498128292 4.324926886914515 8.39302054982317
Sb 5.7085718877807015 9.549140780137733 10.471103562135683
Sb 8.649895607355129 13.145675884925451 3.8991757933261386
Sb 5.686128143857489 5.029879650581908 4.910390837418811
Sb 6.552454969331268 11.47441519682355 4.304930878703297
Sb 7.382689747062026 11.835709531797365 10.247680044045612
Sb 5.691973997805986 7.684381605337138 6.058160857206942
Sb 4.2581827444888205 5.528558034146763 7.357815654233123
Sb 6.591841017900189 6.744097445054956 8.63205659990852
