21
Energy = -79.03212833 eV
Sb 8.959177037845105 5.313045416975366 3.5205540770366075
Sb 11.323324279714539 5.309334574743814 4.837251426809462
Sb 6.7262027173151475 8.00374593806985 4.167539082434643
Sb 4.174109663394258 9.42871652439211 4.7093897809227885
Sb 10.62322450141086 8.085480238903202 6.385733875666283
Sb 6.8636662748147 5.404024316380584 5.447085014784597
Sb 3.0361143412175733 8.232154016481424 6.989054431282133
Sb 11.200325577154473 5.598442125694822 7.741904381102057
Sb 11.16518877374212 10.083166124841727 8.608891157186388
Sb 6.016281543397199 10.986598836190907 6.437874215156875
Sb 4.690784220349745 12.05704294977169 8.813516606063947
Sb 8.861706892871583 4.328463509513686 8.952944996594455
Sb 7.2725856831996065 12.905996370123749 9.683250624025055
Sb 7.737022773042364 7.744404922794084 6.857122213254409
Sb 10.606249275301709 7.6295257990455365 10.084142919700271
Sb 8.306559482030943 10.518013743794889 8.757493231167945
Sb 10.063394846159637 7.132774829348517 12.861025880060723
Sb 5.240934904354475 9.163917227800368 8.560978962871927
Sb 8.013790226689862 8.33036952871028 11.12135795288505
Sb 8.968256140173109 4.603275291199413 11.837340505802127
Sb 6.8060858368290305 5.796492706232048 10.280533656200884
