23
Energy = -89.4745129 eV
Sb 7.964748027202361 10.650470303042859 6.02871846008415
Sb 10.080552958687674 4.19009251510178 5.702603769166393
Sb 10.843958192678453 6.97537557148144 6.213204158319564
Sb 9.021473433601445 8.436505256762402 4.487553390099821
Sb 5.086894122844244 10.358151781396062 5.620896592303437
Sb 8.470895361305464 3.3136923822275097 7.952273479873208
Sb 8.279721702695273 4.680329595624444 3.5184285339333528
Sb 5.186086484992303 8.484938235397193 3.4364608201737044
Sb 8.80157710309907 9.882076721404884 8.748861134692465
Sb 9.600677648449086 7.165054863068478 8.795735573530816
Sb 2.737644447212489 7.104098097979342 3.9715792777909544
Sb 7.103305207962923 5.901507453570467 8.204106802382826
Sb 5.059638700818831 8.181367836353528 7.5233001186769695
Sb 6.5877653676903964 2.4051351875596505 3.8513422783746374
Sb 7.041720549103443 9.41702918170255 11.02333908274877
Sb 6.857193098937842 6.653313482587729 5.055011319272965
Sb 6.317601246922949 6.635809951987867 11.042665179666864
Sb 6.296753160949207 2.0381773636829315 6.6287482611300925
Sb 4.365731328636475 8.618818149190835 10.307746596751306
Sb 2.6464442822636522 6.836620099840067 6.76582440715739
Sb 4.212157544923476 4.400854896961716 3.37468533329043
Sb 4.427480879939898 4.420820443501169 6.279840571134148
Sb 2.509979149084211 2.749760629576401 4.967074859446587
