21
Energy = -81.5665153 eV
Sb 9.553478186137504 5.397239087718888 4.033129193184305
Sb 11.782186378958809 6.864580698194732 5.102216741714371
Sb 9.157235615706739 8.575613873859096 7.795551275782058
Sb 10.659007119776202 12.765659688714898 6.605709068309618
Sb 12.034904432259442 4.041566463612524 4.553897664219487
Sb 9.390088715541378 10.500154712391158 5.485829939258498
Sb 7.824569130717236 4.745678595723029 6.214490012377177
Sb 12.213617261955264 5.010766961631967 7.249506730933829
Sb 6.830043107598534 7.414147664943142 6.566731370171506
Sb 7.8451815277058214 12.823219392037238 5.916526360597698
Sb 5.173329547285793 6.282536143055921 8.604089924161878
Sb 8.329059804189265 10.412145454518715 9.85275869425237
Sb 9.684854428328977 4.279295192797792 8.369273925440156
Sb 3.7455712858408448 8.59376002151138 9.486409383194989
Sb 9.95729719315028 12.734089777828657 9.47317285891197
Sb 7.159879017017002 12.764077932546307 8.774873672707763
Sb 6.9055618746042375 5.656527679282861 10.804059732106348
Sb 9.490466103177884 6.5785450318820695 10.031813450696287
Sb 3.3041672758157996 7.917732232597716 12.245096282490696
Sb 5.223580044073844 9.971000159913501 11.517360078637882
Sb 6.104695585681643 7.561330289405367 12.78616912256564
