24
Energy = -93.19715183 eV
Sb 14.082853602563073 9.864753890959836 8.015901986516065
Sb 13.655710365698033 8.52948274149464 5.527467562689235
Sb 14.126751246576257 7.013466091259561 7.897789223325168
Sb 7.460549902198124 10.467527290864492 13.80439252297519
Sb 7.806767465284073 11.342724529689301 11.065728004047118
Sb 11.130019612234257 9.824563906808955 8.535916746922192
Sb 9.759449805456875 9.660669944187445 12.326050123454412
Sb 11.188628779322352 6.9516359509147065 8.511897307502702
Sb 10.717289003153159 8.399258857560433 6.060993809978012
Sb 7.399030741496021 10.956666371339566 7.120471845591282
Sb 6.19356544721184 9.048984495998152 10.192651754773413
Sb 7.4668780859369175 7.869652491502982 12.486667390077372
Sb 8.054167934192836 8.33382484733511 8.08714173571368
Sb 4.705212976372954 10.727701721859013 6.182595626904669
Sb 8.550757409214564 10.917180946011438 4.512785006474423
Sb 5.87386993315062 11.845698781310723 3.729792729827476
Sb 7.975011204013022 4.551649651067698 10.405838489419109
Sb 5.354194700528943 5.75743767087698 10.64909360689854
Sb 6.562297230325024 3.041173701635349 8.373148732792023
Sb 6.8320478959637665 9.218763936621606 2.971394685614901
Sb 6.657039305051647 6.528799798514449 6.303527755921444
Sb 4.88298282847932 8.210237085791963 4.814651449304416
Sb 4.66209925880329 5.174387344810401 7.873553414677278
Sb 5.751889042851252 2.916167347808712 11.148220285001655
