21
Energy = -81.47146755 eV
Sb 11.17151552910669 9.734779760385644 14.12055397700442
Sb 12.594030335381328 11.22133472644912 12.03554982930661
Sb 11.235020198510071 7.320085435358801 12.516583828378911
Sb 13.052173926844771 8.66760211262752 10.759089580592978
Sb 9.795318234305253 11.582569884887734 12.442548847817566
Sb 8.63538279980167 7.436577219990638 11.291570048252439
Sb 11.791086503565893 8.534878814101782 8.183823870285512
Sb 8.239822504084398 10.17189679784047 10.482401218105888
Sb 9.70827242030714 10.41987586573353 8.035264091333064
Sb 9.756766161259891 6.430933861061555 8.818256161918693
Sb 8.14531855286026 7.970945821397913 6.968045362976325
Sb 5.6974338090977295 8.060083801643549 8.487342181253712
Sb 7.777907155339173 5.389133970841523 5.485941208157064
Sb 5.790638023011188 5.431578972254569 9.571364805213912
Sb 7.629450264965006 4.1034781789034716 7.993645238858382
Sb 7.442026609753038 9.758028562653726 4.068149108762556
Sb 6.452451619351348 7.48060755397419 2.5954936142294405
Sb 3.911721775578603 7.769401608152519 6.266749035157109
Sb 5.135661332019779 5.842414945730825 4.541373202947255
Sb 4.894256765019797 10.282591680617797 5.313156302443342
Sb 5.031888581020894 9.972299827278169 2.4709528050557954
