25
Energy = -96.50483574 eV
Sb 10.21591606375319 5.043206911686867 4.862085669762143
Sb 10.739779328870831 8.356821825022765 7.754831417066154
Sb 7.454668416312213 5.894739514675571 8.167648352604994
Sb 2.646707955266735 4.514172262451813 7.978603760043326
Sb 6.43214306834267 3.5141843862976563 2.983740088210938
Sb 4.959179963160699 4.930444056467831 5.061872212004274
Sb 10.275946332925253 5.514689354591662 7.705051812801776
Sb 4.944255033747787 8.508658396463138 4.243057258670187
Sb 4.544606637748621 2.6317753842462546 6.684187748290333
Sb 5.736098405968121 6.6611867750323075 12.055370680712507
Sb 9.176587119897384 9.279506667170972 5.461359546402534
Sb 7.942866706304901 6.737563021219677 4.560215347925839
Sb 2.465073468545029 8.010608903105767 5.838508303650453
Sb 4.916818670478594 9.762699373753138 1.7302781031964505
Sb 8.263709469210434 6.2021573896870885 10.929820446615576
Sb 6.869080149007092 8.629505487389645 7.022665676323917
Sb 4.22635928865368 6.931127904701549 7.858596867088488
Sb 7.573119828900031 5.942196462776643 1.813748495800283
Sb 2.0246163228446745 5.230542349479873 5.238501957503884
Sb 6.814298289074179 10.166580372609312 9.431511524675063
Sb 4.5790620808962155 8.534410559073162 10.37758030225999
Sb 4.808447962550901 6.916249928227476 1.8112517226368992
Sb 9.238360980607393 8.824707292720367 10.279750194797826
Sb 8.42880844516565 2.7582557623368196 5.0091145330994795
Sb 7.2234900117687255 3.004009658814317 7.640647977858189
