25
Energy = -96.90187958 eV
Sb 8.242250525070267 9.249021405945623 2.6998885073275027
Sb 10.99048199930199 9.509742166479125 3.6189116694436674
Sb 4.881155698515395 8.411960950535228 8.192592346666185
Sb 6.695517546533419 9.15732829723212 5.113959870680558
Sb 10.875223869563333 10.6686333296752 6.270569784604118
Sb 4.26341368398129 11.21915361499178 8.366052731195992
Sb 7.928055797279067 6.735722406381525 4.171744460327948
Sb 8.072124054537188 11.285200778939933 6.471957853489163
Sb 0.7206606178066316 8.765774334149217 10.110503777125476
Sb 10.302947828210991 4.130124652371152 6.697228397546284
Sb 2.110813002062573 11.271982202112103 10.245127642503167
Sb 3.140887362579296 7.227795596953857 10.136839083860771
Sb 6.057008577856735 11.49913930635618 10.610978449063213
Sb 2.686902673219393 9.210832433136241 12.165524964775967
Sb 8.546972207494262 10.787766578870178 9.285612301758494
Sb 10.760778755548822 6.774008449976202 4.615464107963846
Sb 11.55079608396529 8.28433448168918 10.212348969000143
Sb 6.837609690578428 8.718266202421109 10.303076180435237
Sb 9.667294062377861 2.596274146234178 9.114171845677696
Sb 10.415569354494332 8.015835963410424 7.350035980328678
Sb 8.531875339464689 5.246272802001608 8.701830565608963
Sb 12.898583290300955 4.575876393979222 7.819638105611507
Sb 13.17466099345626 7.452096034305243 8.014540459041816
Sb 10.149776872378732 5.910098200247992 10.973350284824459
Sb 11.998536739563821 3.7886949737457947 10.428780564888589
