21
Energy = -82.03498753 eV
Sb 13.164821514966953 8.781514277991466 5.7094045347817115
Sb 0.804799634513967 7.332911925001405 4.02948529084792
Sb 1.1693967567148627 9.860517571317276 7.368484664079548
Sb 2.6385094360416343 9.316466318533807 4.979776374978472
Sb 13.933954274752432 6.079127513530173 6.370775708939819
Sb 1.0708112288666638 7.268769620604052 8.604010122747052
Sb 4.8093375382286485 7.723393436469532 6.040100032047533
Sb 7.391887906925002 4.973271823856978 5.438250882684747
Sb 11.737051696903505 3.7772598703138476 3.713890944391286
Sb 9.333588808818691 2.850661444466432 5.070373935707423
Sb 9.098058301845343 7.095312507384336 4.637013263251399
Sb 4.809323337454559 8.832421593701714 8.687168797781808
Sb 13.11875442952303 5.729288545959059 5.280183021104689
Sb 13.164821514966953 3.01636397553943 6.145854135723751
Sb 7.513779180873591 5.2010201320415455 8.302286225413082
Sb 3.732809761489398 6.207732746436734 8.394449383233667
Sb 10.674010487413726 2.718477354100567 7.598927394190141
Sb 7.628259894836384 9.102313223755642 6.032941364025698
Sb 11.103230834306743 7.224578120900618 6.67920886513956
Sb 7.645129510052349 8.057071311141623 8.713084192303269
Sb 10.356420086746605 5.33144780957327 8.684251989245764
