28
Energy = -108.98828077 eV
Sb 11.807172750872773 7.818889056865693 9.723810037642664
Sb 12.512188336852908 8.357639049819408 6.977482189038515
Sb 12.142540713321406 10.53752631946968 8.839512643810941
Sb 10.54878406633477 6.896574830863688 3.1120128057472725
Sb 9.091652150795882 4.031884298363018 10.368827554196208
Sb 8.693632376769802 2.7906168571257832 7.7910729256977795
Sb 10.713683941349965 4.258968118705405 4.301593158336918
Sb 9.043448664582131 6.903893314812935 9.809218885067981
Sb 10.553415223777263 4.880234736341255 7.1463749771483265
Sb 10.245929809362387 8.794225611585928 5.1792942849480506
Sb 8.898949993933382 14.320648866938477 9.11758988081859
Sb 8.41375519339302 6.846606578165166 12.635059209930272
Sb 10.409197679365588 12.48722354311374 7.428036294887403
Sb 8.676497705023593 10.550682958041628 10.898132586521571
Sb 7.310418843277184 13.00422576481949 11.188582072062157
Sb 6.789417027014115 9.221064082272276 12.600853912923537
Sb 7.990151762577622 11.471770440531674 6.287443452641459
Sb 6.6528386712509056 4.708768258416186 11.79138533200179
Sb 7.688609578001216 9.530857661669154 8.374867530525622
Sb 6.598440382655072 13.826907253390528 7.367487935206637
Sb 8.45115563302465 6.741220617475493 6.283637675902755
Sb 6.401520775915653 3.6206644894670084 6.221193578922167
Sb 8.005168557541154 5.115618052538514 3.9296244544966425
Sb 4.973380466765524 12.714114934992534 9.505490772438035
Sb 4.488296799768684 8.54433636975886 10.977915933039116
Sb 4.847134656263088 5.887978384170638 9.884715828222456
Sb 5.674643219050044 6.16399440148405 7.142791149679013
Sb 4.899130998495251 10.00196169645131 8.55424877145492
