24
Energy = -91.87626796 eV
Sb 3.4142536173828133 9.664838680721752 7.492105689649143
Sb 7.2478385326378145 7.305540815206174 7.449444099337896
Sb 10.67778452370775 5.381358643636551 5.453460605291819
Sb 8.574567647509964 5.1206605811852555 9.261351395990722
Sb 4.088026000856841 9.326679097500836 10.244032714858914
Sb 2.268894462058159 3.50596957006248 8.883412287895743
Sb 8.519815855780024 8.939820801445855 2.781610064363962
Sb 2.6009502604687857 7.243462911677423 8.88782468688778
Sb 4.587424288267488 5.172817761078117 8.57664889455061
Sb 6.885422883024181 6.554996988428187 2.8865793050887842
Sb 1.8433259869088567 4.068761441182997 6.2750939886872725
Sb 8.014357881271073 11.077835313400723 7.044829918412751
Sb 4.429285733003594 7.211400494277985 4.219849474688497
Sb 10.394069518425104 2.7378945106407415 6.618257739099273
Sb 6.260526345884761 5.625547531013188 10.934059918111753
Sb 9.712894309400822 8.789412027541273 7.402005726811286
Sb 5.77692600746288 9.454859478279868 5.882697123738673
Sb 9.70477204053992 3.188009942524723 3.8621925234617205
Sb 7.817907985597726 4.962200942801319 5.189326800302713
Sb 8.98856945562417 11.32444873299421 4.3630673466977195
Sb 6.7939309042475475 8.333317399329385 10.149227467934617
Sb 4.517858848596004 4.750937608442187 5.478671668018243
Sb 7.711277343381239 3.0203041771756096 7.701216352394344
Sb 10.679281887699858 8.94342356719721 4.637775139883566
