25
Energy = -96.77824882 eV
Sb 1.715109877278247 3.155417538575333 4.638212627718062
Sb 10.609412252301322 11.118181747806995 6.727223030983301
Sb 7.357015409082813 8.006974580459596 7.700130863710538
Sb 2.490867036456568 2.457113277943248 1.902829092746707
Sb 3.3094961423462337 7.18069002367215 8.410348610110798
Sb 3.6144988508527414 9.810272624628647 9.354698940788603
Sb 5.059918330032232 6.707577683207256 5.672387870558373
Sb 7.236921347637406 6.457986120999783 3.677577962855374
Sb 4.681398110295188 4.117573792473208 6.812203161656603
Sb 11.362714746716005 9.802896574036787 9.163830711817287
Sb 6.6387391073021 3.9500837777884814 8.921464191781782
Sb 6.112889426659635 2.447955224984803 4.919150720637968
Sb 5.619788483832558 6.595059895516837 9.908993413178187
Sb 9.158970743460793 4.442911068221283 7.779292535189302
Sb 10.844876904820815 7.305003886396986 6.072671217527739
Sb 3.6880169703699828 1.132939615065258 4.132137143805814
Sb 9.357998942498423 11.757219302061204 9.228783204312489
Sb 8.84721898110193 9.214481272649705 5.408552079523655
Sb 2.7420479316236754 5.83669124078161 4.060317227261328
Sb 5.74962907926953 9.360291668911598 11.20306479953293
Sb 6.611610233280188 10.570185363882434 8.7756707538782
Sb 3.976339791944917 4.925790712468005 1.655846201016579
Sb 6.505536989052208 3.9296602654631823 2.521615978608909
Sb 9.352482304679402 5.0127535763539965 4.9729564969353985
Sb 9.856502007104597 7.204289165651117 8.880041163863742
