20
Energy = -76.90611029 eV
Sb 10.657478876978589 8.634043541086712 4.812574245249307
Sb 7.886899635936446 9.393966675927063 4.685805500923682
Sb 9.71224057303421 5.871255897894539 4.943491262942206
Sb 11.845250496042297 11.981660553319989 6.756925762973215
Sb 6.984411653616186 6.731003269777198 5.385567559773066
Sb 10.246357754604633 6.098437535645885 7.816348300973669
Sb 9.176358626218862 13.016673949307119 6.293592565844781
Sb 10.337793663980905 13.06433062193451 8.95151335805297
Sb 7.63491197763814 7.263015798407121 8.195298940485298
Sb 7.29140119528495 10.962488630548386 7.009717099932263
Sb 8.232623306952904 4.679759303370041 9.24536168881087
Sb 6.389846444968949 6.398294683664477 12.236499096267666
Sb 11.981191936242492 9.175223401266374 7.3360906094283465
Sb 9.139476845779152 6.4506505754110695 11.499084076718916
Sb 5.32093601801597 9.044664294290977 12.105050867370009
Sb 8.85973971237701 10.613719551726506 9.436020263789707
Sb 10.757903393685838 8.59983268874026 10.002301358492556
Sb 6.926342549006435 8.217528209501234 14.40257332442283
Sb 7.511273832617496 10.906507617827963 11.997755504139137
Sb 9.410393411120303 9.199775104453714 13.191260517511097
