20
Energy = -77.66755979 eV
Sb 6.416150333082152 10.543302372620708 5.468500174419462
Sb 9.594578057506967 9.915578982799829 4.896680596121299
Sb 6.777149054485683 11.941921030718854 7.816686873091272
Sb 5.478079678676985 10.4694601979612 9.900169509162378
Sb 10.979475628702335 7.417073767920338 5.229534039970467
Sb 5.0544667789127145 8.115973400879893 6.173518953869085
Sb 7.183366732068799 8.00917763388219 9.97835315773841
Sb 11.56384453652439 6.761922660516739 7.934576848658931
Sb 3.6974523147995297 8.740483294346102 8.635637788397478
Sb 4.7841726253219 6.623486709657631 10.676120226200299
Sb 10.862935365198844 9.153343873611192 9.305071610185818
Sb 7.6100427124534225 7.365746568357419 7.199924542006891
Sb 9.793196966042036 11.118016643141123 7.504895295597277
Sb 5.522516301880552 4.0508382543924695 9.657257366906288
Sb 6.866655955821646 4.617226828200349 12.117181650915667
Sb 7.422778758926724 4.543535493513554 7.552145420512147
Sb 9.075757678909255 6.177448064784645 11.40257375819168
Sb 12.746310145745506 10.76303971063671 7.831152457065914
Sb 12.643799708576049 9.73666928269444 5.191424825462578
Sb 9.851766398804111 4.661282251549418 9.090530393750194
