27
Energy = -105.9218489 eV
Sb 2.910876194484307 5.233968747396355 11.412070884775442
Sb 1.7409269306305526 7.0405400626049355 9.512607637665335
Sb 0.47753801679257535 5.142204181580119 7.767497985677351
Sb 5.687326615357018 5.950814609697718 11.351380131733453
Sb 4.822065802737148 3.630815978907496 9.962943783539398
Sb 2.582027887315843 3.7752399765187556 6.393655644823908
Sb 1.3141538474759034 6.006245788684554 5.140131919260755
Sb 4.197227290934328 7.550516629014708 8.194957989281322
Sb 7.9642884923705655 6.7823439547018545 9.044576741174374
Sb 9.72308170160474 7.5500671145871845 11.198546167802595
Sb 5.008534313018284 4.926352106534794 7.375139086192056
Sb 2.810318630130212 8.370302156333917 5.839734825402365
Sb 7.1648048801574005 7.397007977722926 5.6032277718307295
Sb 4.795349538970704 5.593691853072201 3.0659939653034947
Sb 11.914656435837298 6.507552630989164 9.585606014354985
Sb 7.434598943875765 9.306642068239224 7.805355660384093
Sb 10.166104467226662 5.747748713906124 7.4034798971461875
Sb 7.216156587605428 4.2007727235566055 3.809622822605258
Sb 11.463125986634529 9.354899053483486 9.813539595340742
Sb 9.475150878323175 5.677746420644056 2.7883101045491427
Sb 5.01277116577503 8.348563852378932 3.9363027321514994
Sb 9.218228687781881 8.356643957706094 3.8389697385647374
Sb 10.174581983544654 10.121781263392132 7.358499951941989
Sb 11.217409591551707 7.925804774986995 5.887494630546365
Sb 7.080233698675585 3.3960147198813186 0.9461671610171187
Sb 5.534331222071254 5.7497862776665265 0.3096851352412069
Sb 8.393391231592227 5.855193428287635 0.15376304417023745
