21
Energy = -81.72125337 eV
Sb 11.85446294464384 4.875374097068052 5.957757567764536
Sb 9.933326598485653 3.515118349126757 7.693027444493806
Sb 10.887153900685524 7.515233779449235 6.70876058546712
Sb 9.259893520218288 7.695708758314066 4.357798302936402
Sb 9.402120380759072 6.158608603028963 8.77093478340648
Sb 9.569575024407596 3.546458263532447 4.839817925313998
Sb 7.259986112643968 9.678642903263318 5.008241777565872
Sb 6.3235286054623465 5.52584809545183 2.3434719149753254
Sb 7.117980025373101 9.84308760200488 7.857758544818378
Sb 7.497231776301996 5.544567056187893 5.061801088117629
Sb 6.692742699244742 6.8503353221235095 8.024464975697967
Sb 3.67433285952551 4.7263894227326 3.03670001805058
Sb 5.651201322032821 4.003459696534029 7.65746845321237
Sb 5.29910487203975 7.020870886322859 10.569436173407665
Sb 4.243115932822047 7.484927610030604 2.618302874075863
Sb 4.351703974838543 10.009840216944145 7.1411085277011574
Sb 5.031875230478701 7.739223753109558 5.445996531325876
Sb 3.580502910775427 5.002009656712389 6.049569919683473
Sb 3.7119301605172517 4.732511152644325 9.768111454905375
Sb 3.2024446630011485 8.639150154334327 9.45053146566858
Sb 1.9557864857424683 6.392634621084655 8.138939671411823
