23
Energy = -89.43396155 eV
Sb 11.347305590805334 8.290021723976423 5.817300109711701
Sb 10.924011337591148 5.605783164627956 4.84688696692303
Sb 10.639078733344888 8.065704188965102 8.658841994530952
Sb 9.132868131588134 9.404551391311875 4.266699796272288
Sb 9.278957526424213 6.905974760747279 2.7540417197011937
Sb 8.546665340615299 9.987123695232265 8.307346330635152
Sb 9.285865414283602 5.557845221921252 8.995075435715165
Sb 8.439028537569182 5.257803598030474 6.2260910273526235
Sb 7.322333237747726 8.374018609753872 6.2810203560854045
Sb 7.762018336279583 2.4399435926320736 5.817655270804306
Sb 6.185290734320738 9.124687235223226 9.7382468156021
Sb 6.50181214546168 3.345930976454772 3.34477662165887
Sb 6.638234373077621 6.247097474457757 9.966744772957338
Sb 6.677949242158945 6.190352839391626 3.7884781332388404
Sb 5.295000655575633 5.719117246234571 7.448475762604302
Sb 5.277515312803692 2.811353632207228 7.280580632624357
Sb 5.096511686413917 10.04412826741496 7.16571532503679
Sb 3.959510368353028 3.3097764929913667 4.7574886485376116
Sb 2.865044741694898 5.336970317271937 8.919076657568377
Sb 2.9398323294650472 6.039341085083509 4.551804698528741
Sb 2.9140620752707367 8.660495630065546 5.902665797808925
Sb 1.3619828308603381 7.638397406523415 8.06772381859925
Sb 1.1091213182938875 5.143581449481281 6.597263307502772
