25
Energy = -97.33096903 eV
Sb 2.8781280891360836 1.460968476095331 4.825938342590959
Sb 12.739491165967875 11.109670832118518 7.2343851413503435
Sb 7.774835670471577 8.855259361455431 7.714764776916576
Sb 5.290833835102242 0.17484605306709744 5.760984045951475
Sb 2.2408575449946815 7.872504258018578 6.3142383780750455
Sb 2.3797162504418643 10.566394698149587 5.295628999551238
Sb 7.860957171976137 6.038990381753599 7.163418378394918
Sb 9.923882864022731 5.602102905123306 5.15981806620167
Sb 5.006586470581823 4.071646909098603 7.618729474517059
Sb 10.593814838788258 11.525458020839357 9.16069739221166
Sb 4.700260878906262 8.884867786538065 5.216608887001708
Sb 8.75066136850498 9.868213299252124 5.2424369295983135
Sb 3.3728012099250457 6.23321162206471 9.005090574030229
Sb 2.5093340912898334 8.3672509050467 3.4664232435813087
Sb 6.178036860066514 3.5537192443320187 3.9884610495810575
Sb 10.182725244638846 12.100038196795738 6.375320398401986
Sb 2.940208646923364 0.28379355423721203 7.438771365567306
Sb 7.118551102643467 2.3214971070014734 6.332198299439363
Sb 10.151466256094722 8.671839279240983 9.254287145669077
Sb 1.5905014953524372 4.4070086162183735 7.9184216488771
Sb 3.246575211432143 2.494380356816004 9.258774079748871
Sb 12.273218113022232 8.25903364900336 7.3415330819928295
Sb 11.030234739855377 8.22289586027652 4.792674271674596
Sb 7.237214122498504 6.245663065750771 4.360081007301073
Sb 3.4779318451761347 4.25757064952003 5.209140109587364
