24
Energy = -92.90982609 eV
Sb 12.191948169142377 3.7437269198718712 5.934353863870252
Sb 12.963169016121306 5.405926113453439 8.176416478253918
Sb 9.621802077216506 6.9232820641425805 6.19699532538579
Sb 12.31283718932033 9.473092224840558 7.4568482066213635
Sb 11.48074571517339 11.789086168272815 8.921959434129764
Sb 10.871809714175976 7.328364851585694 8.722536721826948
Sb 11.178001403154271 3.174096193617789 8.529318103666458
Sb 9.364642505710636 4.063915582021353 6.446594074136203
Sb 10.246975257706259 11.197977051541036 6.375805893520959
Sb 10.026807477855641 10.788623046011685 11.288436996309224
Sb 7.0618972237266595 7.65089811343525 7.298161708438655
Sb 7.909973814190994 8.981508432182622 10.611654756760691
Sb 4.534734905457933 3.880471579844338 6.842287896177562
Sb 7.526321880769522 10.510095243028255 7.011633940397227
Sb 2.8651871836073606 6.042788044259137 7.863144843260651
Sb 7.595972567883631 11.688095628783698 9.748816400395796
Sb 8.18277623472938 12.402579543003197 13.359880805326418
Sb 1.4703494199280256 6.17872174275327 5.318048954610337
Sb 3.1486407941040593 4.012166227968125 4.298545608667788
Sb 3.27482420729733 8.231728436196644 6.0903763283818435
Sb 5.826794800829744 4.94194188274704 4.538658658389273
Sb 5.726879044213215 7.774103954459432 4.730216856843838
Sb 5.691005294388454 12.188139148392258 12.14745374758977
Sb 6.855007609982724 9.862708218691486 13.296521344325175
