26
Energy = -102.02975203 eV
Sb 11.333293204610925 7.274933787299318 5.266713442213465
Sb 9.627754674142585 3.5655196613346734 4.7980658740111215
Sb 11.236374184311275 4.843970741852815 6.818418959843507
Sb 11.345373154889547 9.037991868853021 7.631039269810394
Sb 9.08377475072952 7.135738335804863 3.3826165866844016
Sb 7.846322502337057 1.8604212204292554 6.329947908059968
Sb 7.407840860432961 5.430894283724328 5.022440525291148
Sb 10.064091951800734 7.704173452654967 9.810443139542537
Sb 8.340756743115856 9.726179285941978 4.425671961273662
Sb 6.245727799798983 2.8811433545191245 4.136035833578046
Sb 8.794709759567231 5.930481401315049 7.814312333147073
Sb 8.795394028024548 9.982559323209466 8.589580858096024
Sb 7.844230198096583 3.3698900253387376 8.822053072569107
Sb 5.994802208972757 10.138536029042426 2.829381115802337
Sb 3.6307096148036 2.3292037153722593 7.787547471344415
Sb 6.977093020868964 8.698885700659671 6.7138356371904
Sb 5.109086257090444 4.058868379991062 9.490909754343301
Sb 3.58077759756832 3.4115305156537175 5.162849308366144
Sb 5.077190053102252 12.368540200729207 4.404300720561637
Sb 5.016498777239227 10.813934778801523 6.8505569955037515
Sb 3.6595850474358276 6.205644282043113 5.673091643870806
Sb 3.6479984909655276 9.881826957554171 4.497093946391597
Sb 1.1315186092548795 3.614033873151158 8.399038468370836
Sb 4.513142045875411 6.613291538134408 8.400944082416691
Sb 0.9183644298869128 5.861867662858351 6.6050662505111735
Sb 1.7775900350774918 6.259939623730248 9.33804484120605
