26
Energy = -101.85486534 eV
Sb 13.412334101112574 2.970231333996781 7.969295872775011
Sb 0.03378348936123908 5.32128498277202 9.337097564664674
Sb 0.26006344999141007 7.382265472286506 7.366692537302648
Sb 1.9393629686927045 3.3438573052181866 8.497433276297562
Sb 0.19673155204523363 5.890655174126331 4.937662940397456
Sb 0.9566512805558008 3.2604325469203963 5.791601774103669
Sb 10.652849010417501 4.203720471158582 4.017208365636598
Sb 12.401424718565474 4.510900817058151 6.340902854778356
Sb 10.638000332475444 4.973620488860456 8.561395433934365
Sb 3.0242196213309267 7.945433907508267 7.815104290856091
Sb 4.521409443192588 5.5032161628114356 7.614966838174548
Sb 8.018952882697938 3.831358947846544 4.9972385093192635
Sb 11.319458026909153 7.611552996565017 9.5099881593269
Sb 6.573440741399899 7.576594472128471 7.746664065762003
Sb 12.82010897357139 7.175855971330504 5.360533342210374
Sb 13.412334101112574 8.534461845000578 7.787971904199896
Sb 9.424104735368136 9.637269648856087 8.507350003439868
Sb 3.4121204958288187 8.96117182952727 5.176133771916583
Sb 4.36443515552416 4.682345685823557 4.843499503129597
Sb 2.6786118846609845 6.644222292834841 3.646966807456409
Sb 8.736502757463253 5.978098632610237 6.7146566610415706
Sb 6.320602315156895 8.583518858596861 5.072197956070109
Sb 10.078227753537293 7.343488227153509 4.57199803277854
Sb 11.813941368764254 10.961873799126229 7.467968701064577
Sb 9.720982845928386 10.14139189595626 5.719594935088862
Sb 6.577111492925949 6.031176233925142 3.6278758982730634
