26
Energy = -101.36311203 eV
Sb 11.648513357615148 8.553369623872515 6.952158807098584
Sb 9.679004291974667 8.98626350607929 3.377646676286727
Sb 6.821738215646618 9.556176562218088 3.160989100545084
Sb 10.260306212030367 10.740414931275387 5.60219505472716
Sb 11.154984603820452 6.83403321651793 4.686966439180036
Sb 5.905299157535713 10.324329171946063 5.765629667210393
Sb 6.841513638030444 7.90294082343864 6.985028047528512
Sb 9.115565074611256 9.480529883479717 7.92105880806754
Sb 5.458696345136861 7.091714824578921 2.489509194183625
Sb 9.053399789882487 5.4237037611374594 6.033467991037347
Sb 3.1504507054257243 9.537405483402708 5.523801085458968
Sb 3.1242460893393953 6.953091663249123 4.1464853421666135
Sb 5.516835131303431 8.597887955547357 9.465043001839797
Sb 2.8455071957368383 9.095289502115806 8.407007512078046
Sb 9.646821350939225 4.167875994464017 8.636954964960921
Sb 5.404184192095949 5.956498284061324 10.64996179113998
Sb 7.290022622499267 5.105862837105983 3.4999291800660117
Sb 6.770658672802253 4.702075269738581 8.413904807435506
Sb 4.251443224294409 5.666085674754145 6.515638261173736
Sb 9.558639111082842 2.5907008856111604 6.229126544611349
Sb 1.791660283723405 6.505902814704581 7.897821060420826
Sb 2.770126718923147 4.853785294779833 10.02771370424183
Sb 5.228492566623392 3.5521094941142137 4.453783076146214
Sb 5.7136098634161 2.05641405125399 8.557964048487992
Sb 6.813152259706717 1.6169695895582905 5.894330012619378
Sb 3.185129325804294 3.1485689009946243 7.7058858212877395
