29
Energy = -113.64252323 eV
Sb 10.679065436107589 10.016793144532208 8.046022521114557
Sb 9.138392069238904 9.204761466609481 5.714882882097601
Sb 12.517446213442607 7.925173112495596 8.786696132296576
Sb 5.239502101473973 9.938371809334969 4.438624906293847
Sb 10.12035764153626 8.314967261117532 10.324997321271352
Sb 3.2270142899688716 10.191233326582472 6.833887405337113
Sb 10.841602465191873 7.0088691133416585 4.889782459372759
Sb 6.501364595486715 8.121801730661735 6.410175728387672
Sb 12.027465973549944 5.646232187925287 7.093110573643405
Sb 7.028761188275064 8.17232355191672 2.518817003520037
Sb 8.334619977132526 6.753477325756018 8.703410304629847
Sb 4.221410295356537 8.533203608036283 2.1212896921177715
Sb 5.404513425590631 9.729003021295663 8.603580469390643
Sb 1.631022579565338 7.806289919785661 6.71945545136334
Sb 4.447128365572133 7.732305194259706 10.459045390377032
Sb 6.7689651082729725 5.84930518238977 4.159293951236633
Sb 3.6165304736085924 6.2297795359225745 5.3822719116633975
Sb 2.980464001062781 5.93409879866469 2.6021851602467754
Sb 9.906354778597612 4.338621598710253 8.519966119298852
Sb 9.390969955765895 4.743143675421444 3.8710861127120255
Sb 2.074797140397607 6.517559775595293 9.274720805132946
Sb 6.403003132474895 5.566672432779418 10.500914005825168
Sb 5.463012835356299 4.977155508644368 7.834732803211539
Sb 5.211528969713268 4.098857449309055 2.4468069066400084
Sb 9.135514964294488 2.904596396371896 6.154390498664695
Sb 2.2706741881582224 3.744279086853072 5.8295579489341876
Sb 2.9916532778531324 3.812872170626897 8.64239639958978
Sb 6.38520600979633 2.4075410467551865 6.9500993820839785
Sb 4.5416585471573425 2.2807115683034844 4.667799753544688
