29
Energy = -113.20643353 eV
Sb 3.965324515245346 5.623897523572849 3.1331721553620087
Sb 1.893264904268168 8.339808063434752 10.047698053856443
Sb 2.504733175784493 7.987277769379124 4.087403408570664
Sb 1.7513979539155986 6.270187225486159 8.02171549131121
Sb 4.415477059992339 9.767046238541226 2.7908516611920673
Sb 5.4342283275328125 7.442572162792516 1.3836371106426792
Sb 3.3537875336366003 5.864805952686671 10.394386314921736
Sb 3.903433805705313 7.662940040008719 6.575920340418177
Sb 3.5979869181620803 9.979651959277124 8.35408889038401
Sb 5.977166056377429 5.293701688755407 5.335979717278635
Sb 4.4186487551013025 3.216002005995549 6.680594087577749
Sb 5.758712009720597 0.7435274135835878 6.271052752837786
Sb 6.9509079957144895 10.30334106692219 4.188799044326257
Sb 7.478650211542014 7.598973742537719 3.451093679080815
Sb 5.788358670640283 6.688609979106108 9.057713431452665
Sb 7.6094701351671565 3.7998373854141616 3.42935947077765
Sb 8.263018062463857 1.4930928282553342 5.013403966619655
Sb 10.347581720928451 7.4032358042794515 3.3684939195506516
Sb 5.73476156566146 9.307052108815034 10.215444171238884
Sb 7.358950407672992 8.652195938387628 6.590815965526482
Sb 6.316078718682294 2.3836355989039526 8.65730469373598
Sb 8.213192831190618 5.655028885039234 10.091435661762326
Sb 8.903940215429813 5.382836004374195 7.047164955873273
Sb 10.166544117229245 4.716134545936562 4.4231301082092385
Sb 10.170094101070374 9.009887625024664 5.797014191633027
Sb 8.15489467177065 10.207559331583287 8.887631778905467
Sb 9.034901350534637 2.56240934284844 7.589252311782779
Sb 9.804331664448233 8.079729502580818 9.980178518999983
Sb 11.230162544410177 7.065022266476844 7.635264146171165
