28
Energy = -108.13907629 eV
Sb 6.25226075514677 6.646903454072394 2.1519378830010494
Sb 3.7537506153901434 4.14300236203215 11.149232432118222
Sb 5.944693768616749 1.5112588323669678 2.7795538482476663
Sb 5.047119890163079 5.584403179540418 8.222420418523415
Sb 6.8656849392372274 4.154837594784897 3.5885868208261806
Sb 3.0116721008980702 6.377285000856561 5.246899823600473
Sb 2.4815475818071935 6.795826082667124 11.004233256223987
Sb 8.07004322967885 2.7613835998397076 6.982306378052565
Sb 6.364111010060292 8.690402217995784 4.21254506622443
Sb 3.4404413529029623 6.039024867877254 2.406484815220613
Sb 2.0903005426341874 8.629841476057853 2.378944045266982
Sb 4.2722853327623005 3.166308240776416 4.434592029865779
Sb 3.8650350125774846 2.959335034295468 8.425925444502136
Sb 0.5086209014220697 7.735211791886614 4.632037288737821
Sb 6.467423121688466 2.392956107441303 9.383937859977845
Sb 7.4026794451137 9.243540595273092 6.9334679353073465
Sb 10.450230719615508 7.3808066081773 5.600061298599292
Sb 5.973568185922386 1.2159820851695833 5.692461890210196
Sb 10.518248226522662 7.951415060020526 2.1075199407092917
Sb 3.6987131128841746 8.158918290926557 8.794591003358045
Sb 7.306124479010082 5.499373618937739 6.365885508750273
Sb 6.391675523108231 5.287216964030407 10.73520981889915
Sb 8.777149062730262 7.2073250480847255 8.204002275841953
Sb 12.727154853338366 7.177299061363644 3.655271368042821
Sb 5.0184328977821595 8.12228709341023 11.265687036406025
Sb 9.088553580984703 9.611619780174546 4.317088267309307
Sb 10.453750347611344 5.442689528955717 3.4442552182395105
Sb 2.891241079227557 9.268222077736613 5.0704490013749846
