27
Energy = -104.79196874 eV
Sb 12.7324274992864 10.001124025089767 7.616312812998559
Sb 11.063772316289471 11.93430360922155 8.844990398325075
Sb 12.350795068238078 9.89958703457128 10.44148846645565
Sb 12.52114692112557 6.345562759891999 6.526530291468111
Sb 12.295868077073656 5.621208577404096 9.344214317510176
Sb 10.243391935503432 8.079799033511803 6.653749208926085
Sb 8.827653989799515 12.02003727378086 5.700195301455849
Sb 9.194065581442706 7.450917196008983 3.928465048489114
Sb 8.56270491669931 10.544452344351427 8.15710335979191
Sb 10.439303096852267 7.739918035529847 9.964987583902946
Sb 6.92673679423287 12.88230652941663 7.729149436229915
Sb 11.086481036102489 3.8942428993017146 5.902478526897052
Sb 8.488159545301007 4.934800894604461 5.099485517516169
Sb 9.031931852319598 6.542062031028006 12.169421131893209
Sb 10.007885552994741 3.9935589035977554 8.604089097919845
Sb 7.860594478551273 8.951690663628181 12.930737524049043
Sb 6.427574316799698 8.22640043726429 4.279375000316504
Sb 6.590625687889504 11.114949961794801 4.078503230269389
Sb 8.2833676748867 6.182604328944158 7.762745774629882
Sb 6.023846919396278 8.647768002250123 7.148180889041464
Sb 4.871200314215383 11.247244710923798 6.414145336980232
Sb 6.276714662045555 6.525711056914666 10.741854084980474
Sb 5.4940996922483345 9.285244703939659 10.968889470996404
Sb 5.324066350756917 7.603161355281304 13.287440716201655
Sb 3.4148453053169345 7.368846831097912 7.2943363546176805
Sb 3.72503910184531 5.503667710922684 9.483880872138585
Sb 2.7944977069953274 8.080943345711924 9.98983722958145
