22
Energy = -85.44004506 eV
Sb 7.589478679169285 5.775921557629066 5.321611007422806
Sb 13.548395154084952 6.429180687442122 7.050709698188666
Sb 10.73946977769183 6.346747193419885 5.703363330716398
Sb 7.082641982039125 9.344239227690396 5.750961463883464
Sb 9.535671980244105 3.766377133157711 4.795454046949445
Sb 7.866858273331368 3.6702535749180187 7.157206390134847
Sb 9.287251689232274 12.445409836490283 7.170580029955425
Sb 6.495014294673587 12.071962103208737 6.483663651807277
Sb 9.770815266333864 9.5897104137115 6.744605104323904
Sb 13.241476622971732 6.621249160764107 9.918896103191912
Sb 5.203812700142495 7.751586844382678 7.274808566485519
Sb 13.098080823894621 4.0932036725408665 8.536866168186313
Sb 10.290143689139887 4.986773601021031 8.164549757818909
Sb 7.250267271327017 12.439650755597214 9.22039440400878
Sb 10.386347471238802 6.743097838277683 10.47104862986053
Sb 3.1624294334058396 9.741894769490576 6.950167855252294
Sb 1.5532479923333902 9.359376516538477 9.304168259875855
Sb 10.186202966589482 9.466607823874243 9.5649699918435
Sb 5.866789628201365 7.887865098242201 10.034059871965619
Sb 3.349240642256325 11.605488287173047 9.125541637409551
Sb 7.650079181704001 10.031462308184887 10.724870752412565
Sb 3.789969362927123 9.552651068294052 11.09481457084012
