24
Energy = -92.2482199 eV
Sb 14.030111216020716 7.039901781211062 5.921152342015215
Sb 12.953652993696688 4.89509017885721 7.5458617617513655
Sb 12.070788350948606 6.416797089019446 3.824014054340309
Sb 12.499837367830004 7.612371217463925 8.254374857157744
Sb 11.022532601281142 4.273260289491404 5.463498770313706
Sb 10.570793279623274 8.931765769261835 11.999661822790152
Sb 10.06215316747843 6.752095664492581 13.75512762093369
Sb 10.030870863833492 9.479165284714853 14.737089597252584
Sb 9.516158051446121 6.656445463082675 5.057472996708789
Sb 10.022525589442992 8.48257612503275 7.175031458727828
Sb 8.355189388338776 7.1110484522116995 9.113132722785883
Sb 8.17022940820658 9.566826460255564 10.608728239031828
Sb 4.385051022011088 6.917946100867187 2.7520051869967213
Sb 6.139381528511621 8.678233877524615 12.39149621822743
Sb 4.026667028474249 8.820287713228572 4.679812313509749
Sb 4.361048071697943 11.460259382173117 4.053405155782366
Sb 7.169901996609971 6.621570886351002 14.06867472685915
Sb 5.379494418220369 8.509637016767185 0.7973981135352741
Sb 5.359395819626068 11.15592529611969 1.5509149440239272
Sb 6.2004646243013095 7.892591498263728 7.281802150409639
Sb 7.114467143764285 9.367452277809898 14.984833449440224
Sb 4.077498701573078 6.20096138385756 8.238602743467485
Sb 2.410640760905 8.193643616604268 6.9867756918395525
Sb 4.234878268704083 8.910244667031007 9.12394502988155
