22
Energy = -85.91660793 eV
Sb 11.657286216733631 5.937541165035593 3.0384111609767386
Sb 8.831651529062098 5.332536656034654 2.960467632032902
Sb 4.759526165487722 9.953683599402163 3.9006628813048803
Sb 12.16884144756328 6.18698592210721 5.820827743026534
Sb 7.612957346106109 9.593059021942546 4.249254073215497
Sb 7.66306697750779 6.8320808219767875 5.078239972203392
Sb 3.4593165865609112 7.4283377983924685 4.332465086517633
Sb 12.064956174361827 3.556971213808006 4.66426112076822
Sb 9.206999621009588 3.02445031425286 4.657937505573147
Sb 4.819216695941874 5.6470558303316505 6.354904259151585
Sb 9.630517755869942 6.662226479237525 7.147833406853867
Sb 9.048406039399552 3.855271879564011 7.404029910993641
Sb 6.223577331246687 3.1860120321075427 7.262032122734651
Sb 6.050775989383181 11.011825145383456 6.223367531005014
Sb 6.34013101444525 7.008582604355705 8.398229543111952
Sb 2.349823168166598 4.912268021301555 7.7314979015270735
Sb 1.5426763549837759 7.639614096835775 6.340541632778698
Sb 5.290734830784047 9.634653890594347 8.649183228981656
Sb 4.494291737980689 3.529637863875054 9.480311522695356
Sb 5.030303017685959 6.072438127670781 10.745723545254197
Sb 2.4457326963988613 9.25132470195947 8.559612560346856
Sb 2.3092113033205615 6.743442813829943 10.000205658946442
