23
Energy = -89.47783083 eV
Sb 9.12060364156719 2.5574210094227885 5.481407982386221
Sb 7.449960468729779 2.7366762423029156 7.869263126527531
Sb 9.92894278606213 5.198038896442599 4.847630988244527
Sb 9.128861436800337 4.653620761030074 9.158559557725626
Sb 8.621640248404479 6.571583824940671 7.074401432753775
Sb 5.821615527554733 4.884870876566909 6.728881319637962
Sb 7.653631416142307 5.9173315383051985 2.815642764590229
Sb 7.08818671665126 5.83274212916473 10.87510329447775
Sb 6.661753417443747 3.5676667827234843 4.065268714795479
Sb 9.8931035894839 8.694745448745772 8.631955048757327
Sb 6.468830241935622 7.6516628219483875 4.975776583795967
Sb 4.641235058695835 5.1502377086374524 9.45442898618787
Sb 3.720907412490002 3.5647462716018605 3.3083478557694836
Sb 7.547852249807462 8.678055093720447 10.32359103492234
Sb 4.4834332451506045 6.00965622361297 2.184067867801226
Sb 3.7771537949181515 8.103202289807356 3.989651537295847
Sb 5.9639915635266085 8.507753906349642 7.930508433369842
Sb 3.119851229575888 4.054722341100049 6.095242231052728
Sb 9.075202702027779 10.997956150674673 7.011920870280908
Sb 7.491897915439518 10.421315769712686 4.685158511140777
Sb 3.3455741108739643 7.654459678670072 8.738051916751461
Sb 2.2810946667394507 6.8051672570336725 6.11067635419558
Sb 6.214676559979871 11.286366977486358 7.144463587540173
