22
Energy = -85.96251171 eV
Sb 11.082486981174029 7.571628285973772 8.858520337168256
Sb 11.32129509170111 8.725997279047181 6.320306246277475
Sb 9.949776592546707 10.152653320599198 8.397569786530669
Sb 8.370181159137811 5.996549135841535 8.453559444729725
Sb 7.8423129238237586 7.147771626310134 11.05248155320473
Sb 8.35798990242266 8.36069517307587 6.776717015643762
Sb 5.228740435840927 6.198159153776615 11.766046661181898
Sb 6.948791397305911 9.822915212162966 10.625223360685329
Sb 5.500014711580257 5.981672918445006 7.24228120429061
Sb 4.771623821012275 9.026339805985224 12.392648962585001
Sb 3.7621959407179486 6.8366712667963885 9.383955117011723
Sb 5.387644466262657 8.554422617438384 6.175125714381996
Sb 6.945181609026682 3.82152668275663 4.791039203327729
Sb 4.273365406597905 9.64660257304397 9.59017530925296
Sb 7.696535782415104 5.868923930714861 2.9509856689850764
Sb 6.88436314740646 1.560090150225552 2.9262368344965797
Sb 5.687131745913675 7.931581436984287 3.370069902739702
Sb 4.096533107816451 3.9570299005060825 4.732448792279976
Sb 4.008377642102724 1.7074900162922522 2.8263027162084775
Sb 5.694843512532408 5.479009431840384 0.9237722279401831
Sb 3.5940682070528056 6.006974173882104 2.8041994023942904
Sb 5.573161025443684 2.6219105181355533 0.616949148517803
