24
Energy = -92.64448855 eV
Sb 7.093417575505932 8.235012704664085 2.0793079035506232
Sb 6.108131342854525 7.084026276295489 4.496418565058571
Sb 8.513011558768856 8.586032749452567 4.5963822547297
Sb 9.201477870377234 6.454713495369531 1.1897820175673595
Sb 9.418825963425226 13.754455237936215 10.337101734303298
Sb 6.728537157448812 12.79602598710475 10.08909875017308
Sb 6.817673588286973 4.3370499277299075 4.446866233258517
Sb 7.03279001840581 10.604845370908626 8.23311693149833
Sb 10.63008947949829 6.732130518355743 3.7887223440259334
Sb 9.711800478002965 9.69961841895302 8.607258312197713
Sb 10.784636262625927 11.273054393256755 10.772283911051398
Sb 9.280816055008241 4.341096513824448 3.0872436886120833
Sb 5.012123990793713 9.159976800673476 9.662021288426395
Sb 8.869743765614968 13.612586656792137 13.217442483819356
Sb 7.882306311371873 4.498049298457173 7.203714497975228
Sb 6.6943552637450665 11.720976506690501 12.745609997748309
Sb 10.358770937578266 5.911538945955748 6.908074637898601
Sb 10.409134957854508 3.201290537401845 7.14391251446366
Sb 10.032955403306987 7.382181780966998 10.269749031703942
Sb 5.27075787549137 6.350579915153903 10.046897792076498
Sb 5.633808628727749 8.200109948043531 12.277847872430188
Sb 9.329972189192453 10.71001095108724 13.178314098413
Sb 7.9849723775530626 5.411583559710143 10.460995432326724
Sb 8.40250790947652 7.347405219104898 12.646814388226979
