25
Energy = -97.10859518 eV
Sb 14.264713374385492 9.266721636776865 9.584128829456105
Sb 13.990160493792304 12.07412369044899 10.20914677134136
Sb 12.210287219739348 9.50099258496378 7.513951439816315
Sb 12.445538452507577 10.157200496682208 11.65370778476483
Sb 10.896838102195307 5.311894877532019 6.936659682716988
Sb 11.254622165633217 11.520091166956503 9.398067811358258
Sb 10.608864233173653 7.487401289389193 8.782057329445825
Sb 10.950953572734589 6.506267492131429 4.28711900724894
Sb 8.751119355978695 4.666093663375092 4.13552569995822
Sb 8.301317938252925 7.990669371216421 7.12030169652641
Sb 9.532774158443905 8.943490716966565 4.739883647882631
Sb 7.7198193866687355 5.1758625985851765 6.770455727454411
Sb 7.212462242889132 8.750111727252113 3.012579639502061
Sb 7.987596917648489 8.343088989843938 11.417446751982196
Sb 6.56654557601775 5.9353911867369815 2.746591702545647
Sb 7.166966453520597 10.897949875503512 10.556191570689627
Sb 6.444054543314208 8.13215325135936 13.8782351148956
Sb 6.322070174305593 10.03357952430681 7.6191231630069005
Sb 6.102892667415228 6.5793436100168625 10.097224330552772
Sb 5.070820224714728 5.913666957253166 5.225772829956991
Sb 5.116548018229663 8.741050376258395 5.019721373767254
Sb 4.344218623588881 10.567815579766808 10.681466089233862
Sb 4.302759774160481 8.364682156106447 8.811641777084038
Sb 4.560806291004539 6.362090215027547 12.55452303797673
Sb 3.8768113065486216 9.102281844854634 13.1068909028847
