20
Energy = -77.78145668 eV
Sb 12.04037141794418 6.978558550941263 8.448793489043734
Sb 12.76984055991801 5.942026134602957 11.06463598971323
Sb 12.949904524989376 8.699716719359682 12.094148288237582
Sb 13.20301284211279 9.453525695679566 9.345558521372528
Sb 8.745481893338683 6.587920392493175 5.784361541195537
Sb 9.84875740161168 8.583136644179895 3.9788588200336066
Sb 9.989387809422634 6.404134813501768 10.341738733530157
Sb 9.688534234499624 9.199829583078403 6.803695755839991
Sb 11.108371879402346 11.329242480906276 8.913078441157559
Sb 10.106797360869187 8.52247018456334 12.281541672220348
Sb 9.207408103498212 10.806707166904134 10.82469699109341
Sb 7.106052463617507 7.7930443709302 3.7319157688545723
Sb 4.321967988433964 7.50332880852112 6.266692794653473
Sb 6.333299862330518 6.472403753949367 8.025763003925741
Sb 5.576250064721086 9.79387563143793 5.0884660830047315
Sb 7.3389808185718675 10.840004361306756 7.0711616007469145
Sb 7.073920059143878 9.002989744877143 9.269105122309968
Sb 2.686950625173564 8.471127033779124 8.429604864689672
Sb 4.120803687633319 6.580011722340667 10.06459253233242
Sb 4.483789606695219 9.395856086740038 10.480295169886704
