26
Energy = -101.37922154 eV
Sb 1.0470177438031631 6.573934269939384 9.50049155362408
Sb 3.6132953553645906 5.826967155236728 10.726552399877125
Sb 4.1434428112113935 8.557322619082214 9.942020435568098
Sb 7.510090643848639 2.045013526200035 8.349057997608998
Sb 3.5151769088757026 3.9709873411510674 8.546530727898514
Sb 8.883962045881876 8.065267166451004 8.973244511673066
Sb 9.165938043552012 3.7679936714613156 9.962432072402933
Sb 2.4241829684540703 8.434473827451066 7.6749855909625175
Sb 1.9528953028080043 5.69964689303139 6.90248384052911
Sb 7.2931099506526875 5.944300165719984 9.672161113196116
Sb 6.079779802368199 4.410008640180115 7.272101524136384
Sb 6.646437147216189 9.890031599769664 9.155525930043918
Sb 10.14409432878683 2.821345134923403 7.42481662542489
Sb 5.095817133838232 3.053216528970838 4.7707718598210205
Sb 9.192748727489871 8.162725188668343 5.762719610018006
Sb 8.732229559872419 4.46567208368391 5.551282164968385
Sb 5.443725096617059 10.013120117372313 6.5498509490191905
Sb 6.4023852275223465 7.483045501106608 5.66662230304766
Sb 7.000009497753339 11.912402859138641 4.982376811235306
Sb 9.436907362559406 10.624520058976076 4.2515643931688345
Sb 10.190484534731684 6.200319393864623 3.8134826099280854
Sb 7.740220554302243 2.253155197204639 3.951172371188874
Sb 6.220984056060942 3.9974601935346037 2.282970772955541
Sb 5.920863096206351 7.9978763979820275 2.9156959170994416
Sb 7.215329116440439 10.541438049037835 2.466456223372971
Sb 7.985946969725891 6.284830405806252 1.929703677175013
