22
Energy = -84.74506519 eV
Sb 12.651429582825909 8.35497889534671 6.066675070478827
Sb 12.819531747713711 10.567366166337239 7.94734949052202
Sb 11.089176332634263 2.706705820876947 11.036519548388394
Sb 12.304525247655262 11.080064204457031 5.162690015754604
Sb 10.191833873082407 9.843987504181252 8.924532262685025
Sb 10.017196877573568 7.64534336429022 7.053015998172372
Sb 8.648876965243476 1.2759672243934073 10.662222805297509
Sb 9.217883125079949 3.5398691903159394 9.013792009152795
Sb 8.607565129932587 3.896050853515992 11.784812004232762
Sb 9.099185477410325 8.666915600658124 4.567719512234781
Sb 9.476568426406708 11.474736695434622 4.876666941170612
Sb 6.877140978531166 5.781382599235731 4.896269415706451
Sb 6.184574295072024 4.706243152379982 7.245198416620114
Sb 6.207426100965295 8.49783375201077 4.3806566289657605
Sb 9.146007717863633 12.112928398853674 7.626184555723606
Sb 5.987996622586676 7.490402737502116 10.874128209500572
Sb 4.396773877527851 6.239104530578815 8.83682014992144
Sb 6.565413181649352 10.287019538554926 10.556076124696416
Sb 6.304538399799497 11.783768961492497 8.155833094257584
Sb 4.852874565977475 10.253118212504482 6.208603287686258
Sb 3.8368768474443105 9.46909605063908 10.717881282771357
Sb 3.1914883641295853 8.698280396549077 7.950852130971624
