27
Energy = -104.41556637 eV
Sb 8.851185095615312 11.533718477401926 3.155756609382847
Sb 10.68806266830419 9.461717415940118 4.136879925920416
Sb 8.015045056522954 8.815315916750405 3.3662481475138235
Sb 8.060775822106903 12.255268881004852 5.884352444952793
Sb 10.507769925620464 10.919822216325063 6.658315188876507
Sb 4.066853557450804 11.094155368793153 5.829631409273637
Sb 6.63112557292198 9.761050350909922 5.966708401619793
Sb 11.835710220326575 7.436099404512226 6.925195986589679
Sb 5.128514147123719 10.487470191742627 8.446898639195407
Sb 9.477781249421533 8.637220632404373 8.08641419698743
Sb 6.581778444111716 6.269485470841069 6.542748824978377
Sb 13.309567181242622 7.3388635488177005 9.417054909637429
Sb 2.8799380742997713 9.01132033038651 7.45487049910507
Sb 11.086622326092181 4.727296515892747 6.348758843850842
Sb 3.7608213226005014 6.652633070553191 6.07260574371569
Sb 11.062012357005408 8.90945513201992 10.503732620811004
Sb 11.678835875675885 3.187032044429299 8.69858262515448
Sb 6.962673466022883 12.148645714013853 11.258814229276888
Sb 12.37694454990652 5.015668448318942 10.822385084605928
Sb 4.646147299004221 4.856410433050869 8.164751925495368
Sb 6.1952073833709935 7.036111252271189 9.276796727704376
Sb 8.943616254044127 3.6949604454168963 7.969680796855843
Sb 7.869131748451716 9.483620543881875 11.812964288989978
Sb 7.80900189719589 11.439966799978608 13.905869867573204
Sb 10.064218104945512 6.478597648335712 11.757979370214867
Sb 8.036762233072153 5.042304811984487 10.334338514123207
Sb 5.352890392366195 10.406483547532769 12.846435542180151
