29
Energy = -113.64608082 eV
Sb 10.966137360367483 10.145035303778576 6.711550798016046
Sb 8.831970783145945 11.74828333850523 7.780204875150502
Sb 10.075649652824312 9.74349520593707 9.417065796537235
Sb 8.96306331110012 8.94306313894354 4.947999658791105
Sb 9.411744875636252 5.582021558428518 10.811736443431267
Sb 10.534638069911518 4.315758395061621 6.142087959417666
Sb 8.45890315245808 7.410936385919888 8.791539025258013
Sb 6.925276476437897 9.724494675533343 6.831857725353139
Sb 8.51956364420775 5.110390183746894 2.7246458573010948
Sb 9.804556139805193 3.460860399546039 8.864946753446482
Sb 8.328841985955357 6.147523638703932 5.465452968714419
Sb 5.298436638656477 10.722151339061437 4.649433207481181
Sb 8.691114077576295 2.087313044210381 5.7732478354996335
Sb 6.600436107319653 5.092638574939657 11.451184875849785
Sb 7.259937727169446 3.825019647484472 7.659736777866335
Sb 5.954169271897754 7.652654545206608 10.189482705011619
Sb 7.027773050534065 2.7662470341961094 3.4870420124934776
Sb 5.422302524452612 7.831018093063162 4.107760558402878
Sb 5.49998750144863 2.963085882697695 9.757440956814357
Sb 6.28758818951705 6.605772344043763 1.570381671232296
Sb 2.6099384189284565 10.010730112547053 5.3295824515690695
Sb 5.060088141080899 6.767203180212602 7.584114038269647
Sb 5.203708389041821 4.590697084645321 4.860139334774799
Sb 3.3770721256259963 4.70049819402168 8.782637282698603
Sb 2.5263978077620073 8.163430297663671 7.5338292393673605
Sb 4.029269820910155 4.940999670832711 2.2633684246276498
Sb 2.6907751986192725 7.461373033204117 3.266742214189667
Sb 2.7319580076842276 3.7145240554308128 6.140595405849056
Sb 1.4087015499282443 6.272781642437229 5.604193146587776
