21
Energy = -81.48269253 eV
Sb 11.068582521782313 9.39101326876937 3.489260292532221
Sb 12.752827591439885 8.477631167212333 5.626565109784713
Sb 13.991441711052861 12.712092389306953 4.481353562526215
Sb 11.29825550594358 12.227630340254066 3.6228342009686156
Sb 9.310881522179676 6.463560736133253 5.659198919994685
Sb 13.797778124882559 10.901167337182693 6.698439110556324
Sb 8.755555931623798 9.256922901026973 5.269169025017724
Sb 10.458944293275628 8.436375833625265 7.4349686732337394
Sb 11.81971457913562 12.947842970911292 6.348045807664614
Sb 6.876140310611327 5.59461190578843 6.920491939465271
Sb 5.247190518403763 7.885453408546507 6.603559500845105
Sb 7.401955207086088 5.687239539354971 9.88141373069175
Sb 6.699907233227075 9.926691172728644 8.04882895342906
Sb 7.867700483088572 5.444001479795927 12.955946481816394
Sb 7.636708313599704 8.516504073575362 10.365179178127708
Sb 4.613214370400672 5.0962098344049815 10.026406187929727
Sb 5.582896512961669 4.528975570148648 14.40658864984575
Sb 3.5157352706687246 7.491153761146565 8.904756136101582
Sb 4.9610173578525405 9.48822672197667 10.412185983562395
Sb 5.95499868674511 7.340820728496745 13.917050497030855
Sb 3.7913188163471694 5.94205571492523 12.629947574031624
