22
Energy = -85.0321369 eV
Sb 9.163184430232848 4.441811930280918 4.783933774602676
Sb 8.648164492738807 3.942017798200298 7.574113468537188
Sb 8.217806138556886 8.04428656138248 7.447746441569357
Sb 9.065098414142572 1.1440899292306004 6.830623335411854
Sb 6.33595008056201 2.2175029108722493 7.507475761553232
Sb 7.239121035368197 6.028283452037811 3.324730257095453
Sb 8.187770429727328 1.7961272355685938 4.207582369108723
Sb 6.483522265199642 8.206678812060403 5.102923557519559
Sb 6.401137754097894 9.178287871095716 9.361966978010493
Sb 7.449969995429445 6.473311195857342 9.762714952457438
Sb 5.382664260003403 9.1451589355178 0.8645912804603887
Sb 4.866463082843274 4.361737967098847 3.211190034769922
Sb 5.154797783101023 6.193017949782257 6.598389936570846
Sb 3.904623874076161 3.316825596430002 9.045228293763452
Sb 3.700250653695194 9.426241551485449 3.1545598337447975
Sb 5.2225422576747516 1.9850979849278894 4.878037319715069
Sb 3.8723652312034345 8.002326440252363 8.444483058237525
Sb 3.358679211010772 7.2011130217629065 1.3809665342786763
Sb 4.63055173599636 5.875874926806151 10.24854347736265
Sb 2.9072754698193486 5.652345650283736 4.934786224528545
Sb 2.7896256184810095 3.1603922120346484 6.476926712649016
Sb 2.628461018590321 9.839704581821344 0.5233977383070701
