28
Energy = -107.64760565 eV
Sb 4.227884454486726 9.450947353017622 6.90661388831839
Sb 10.311728476348407 2.606689109746321 6.21971472845002
Sb 5.336374059310274 8.299797410559112 2.9878362745537617
Sb 0.3902509383140399 6.2546866573020115 8.116678286263811
Sb 7.658263741726506 9.448515047696654 1.6334720078193712
Sb 1.2545391360609857 8.233792425965094 6.199146814106569
Sb 2.9150637376087944 6.273387259912678 4.786485519896478
Sb 6.633121513043667 9.359936495509835 5.321682503746854
Sb 7.082908197012568 4.418677574487664 4.055741407655715
Sb 5.105300915097606 5.454358494163045 6.559212386661174
Sb 0.9163809897143621 4.465669758053052 5.855515635044202
Sb 8.6483765858758 6.5907443705808815 5.280581127329964
Sb 4.317246000965693 10.998995563992043 4.672993619069002
Sb 11.077454778995785 4.968803326287179 4.782085083755933
Sb 11.077454778995785 6.559020411689755 5.73351804287477
Sb 5.239454479572896 4.291315094561931 10.949275684535081
Sb 6.232632183190614 1.4533277732868997 7.050384264592552
Sb 8.391309264361055 6.801510689561756 0.6732541163475759
Sb 5.972066109562208 5.663602180423527 1.727751700959933
Sb 9.572377803943638 2.911619893951874 3.4616127620938824
Sb 7.991852493987682 3.8556591246960648 10.139144247312013
Sb 9.723394254608571 7.9163624605997995 2.948482329819795
Sb 4.5755938748389235 6.505818251617578 9.213218504748456
Sb 7.0294997895107985 6.524325187310377 10.733637250646005
Sb 3.794843992326879 3.0002011747825885 7.468736543397535
Sb 5.73381861453664 1.7185270928281289 4.245789435400608
Sb 3.0305019548571477 2.0389590127123234 4.867902256996639
Sb 7.860186069616974 3.8283176954276033 7.272865323384396
