25
Energy = -96.5275348 eV
Sb 9.855715118400333 9.86000851209461 8.67959081308815
Sb 5.6010003731572064 4.238569378390565 5.124435145936653
Sb 2.0302442435322985 7.892185278726557 8.735277721513288
Sb 9.520129138622439 6.9798809068544205 8.876761725706983
Sb 5.819455771733767 8.758842787272126 9.14254255873072
Sb 5.815439971511344 5.2129952645456035 1.2404111034331287
Sb 11.672731281869668 9.448220805797407 6.43801788493897
Sb 3.474430861401513 10.364287217791151 8.943497509557842
Sb 2.8667651190116685 6.825255815256097 3.5736579293175925
Sb 5.165755161119085 5.801480497732807 11.590445775881147
Sb 9.26710114357503 4.340014195512869 5.453880628492837
Sb 12.186217803923624 6.901796590022237 7.7365904932061635
Sb 2.794783103154732 4.053310229516801 4.330402162788375
Sb 9.179365550508793 3.7683696234787574 2.801894793777922
Sb 7.926187667208461 7.21842765157069 6.460730953812431
Sb 2.9494084601528185 4.137939271906162 10.828290793762772
Sb 9.95361509534257 8.038346007578676 4.575960631976346
Sb 2.97049689940314 4.7432733084174545 1.5473888612413067
Sb 2.531225931011508 6.926782764859737 11.39993287210903
Sb 7.44539086010063 10.041542517120307 7.114726185019912
Sb 5.793142868098146 6.76111716817248 3.7332495370762806
Sb 4.404245569212121 6.928704841140125 7.4005397672546005
Sb 5.097310552415168 4.603656663167106 8.957223656279329
Sb 6.469774961497462 2.844225773662613 2.7263344698623113
Sb 11.710066494038568 5.8107669294150455 5.088216025238164
