29
Energy = -113.34726501 eV
Sb 9.115208347557882 4.1005372484777345 2.9938534560005268
Sb 9.366021242937236 3.19299234936319 5.728316221067841
Sb 8.10997881321172 6.813103410821746 2.797672517391514
Sb 6.6619207947743995 2.5946490618891866 2.6894162252439098
Sb 7.9527742921518945 0.8950647458668917 4.658492178488236
Sb 10.535292038627402 7.985878726194702 3.8117229062901883
Sb 8.689627965865938 10.169102247140467 4.526813065436436
Sb 7.079635782152998 4.693050973620128 6.629445898294649
Sb 5.206286490729825 4.3144517711636805 4.464777267739985
Sb 6.899361150528043 7.94360149024708 5.2141388032958975
Sb 5.784545412558346 0.5204354159915934 6.585498895442312
Sb 10.120229597200645 7.234410867578821 6.617423194571754
Sb 4.51815213606547 8.909586686895363 3.8042586836983605
Sb 10.636440310567748 10.029880315790312 6.718393278083743
Sb 6.829976779954497 10.937964821132239 7.354427133506605
Sb 2.916533150467873 10.366221239666185 5.716901260835697
Sb 6.548798633941101 2.529758408420262 8.451653146489496
Sb 3.779565883118333 1.9219638190163846 5.135506386026798
Sb 7.820364652805294 12.22004605543545 9.76098302727536
Sb 7.472065746622488 8.326099454682334 8.47191082324703
Sb 10.438064416249466 11.074721855132319 9.44787610279732
Sb 4.1054989233915915 10.63049524297195 8.324634186777288
Sb 4.145288530484067 6.252465885932155 7.187457311003688
Sb 2.4178389341608058 7.589754866032013 5.285446472960186
Sb 8.426094662433746 9.653725639204197 10.908791537552808
Sb 4.674115621953775 8.034026182677886 9.392540793369864
Sb 3.9216513116197653 2.616999087217344 9.648639939403994
Sb 2.1010595630014217 2.1719311428479156 7.467842800728525
Sb 2.227608814869418 4.77708098859244 8.705166486982481
