29
Energy = -111.89857879 eV
Sb 15.968451445078781 11.044179760901141 8.584089694088554
Sb 13.40995573790429 12.390613955993315 8.540788788401349
Sb 14.141944226308675 10.679648471308642 6.352978494159481
Sb 14.770708476592244 8.752806807300388 9.993434481092134
Sb 13.959336908504508 8.007001062305227 7.357710405213291
Sb 12.656029307230654 10.594997783315977 10.639339918717296
Sb 9.728017547256771 11.15071435836513 5.803485082585648
Sb 5.890993940474507 12.536290487511717 4.168634929712932
Sb 8.121467409073887 10.71738289817053 3.4452872006300344
Sb 10.256524791777306 9.725958419928043 9.307333955190987
Sb 6.521797300929427 12.452041307308045 6.972231278979801
Sb 11.16469727615476 7.48278184162969 7.72725016324344
Sb 10.697511933125995 8.542904042649008 5.0419250791007135
Sb 6.92561542533555 8.33388035840987 11.732269985084526
Sb 9.583102537123947 7.912713912739938 11.43880790085915
Sb 7.908063990114272 8.939966804297256 5.715348460489632
Sb 4.7144518857127045 10.504658526153587 5.857619800714306
Sb 6.593564844813632 9.969347743085274 9.406450115912797
Sb 3.6994006451890167 12.618110013707511 7.538292198926539
Sb 4.103517348737219 11.320129062803101 10.159153835601495
Sb 7.215890536961064 4.503131860886859 8.136161709076589
Sb 4.9372892595266675 7.871767753249994 8.237685266464329
Sb 8.16987965666145 2.4709100572666496 9.924565203828749
Sb 5.406533723420376 5.618439080346606 10.04920875219404
Sb 2.71258280848408 8.87109457715917 9.725558711463918
Sb 4.438821919549468 3.926866244912899 7.8990801498121614
Sb 5.986848921875429 1.9060647531490351 11.702392583056692
Sb 6.5417117138925125 0.14793830932970667 9.495759708807824
Sb 4.082350083571436 1.627838295831301 9.573890636505807
