22
Energy = -85.9978401 eV
Sb 10.895445439998666 3.3583910738064344 8.079732529750522
Sb 11.598126811472644 4.575356904804707 5.516327765793544
Sb 10.416266207190425 6.043007138078136 8.997813455041598
Sb 10.307230943717585 7.074678656894004 6.324382792271871
Sb 8.420375090710182 2.8620252135970397 6.721224061856262
Sb 8.793617732637511 5.0615808821624855 4.9175115489929535
Sb 7.707128114075769 5.910308807498662 9.983874844206046
Sb 6.549792459549853 3.552591994613872 8.767587050461906
Sb 8.38703436833096 9.744988104482449 7.6313261080793655
Sb 5.594626794691651 4.055285936004318 4.111925967822479
Sb 6.761924478466015 7.355876910505208 7.694716475863132
Sb 6.3433546525491895 10.595622250517126 5.737718406362728
Sb 5.6197784308156375 6.705942587158931 2.965532248365499
Sb 6.7236679932418 10.916600523769308 9.737730166034028
Sb 4.481722037155568 4.137794214149556 6.730033689239577
Sb 4.872482829940916 8.717107477665769 9.473018585734033
Sb 2.8162407447749427 3.684987135132266 3.3452766764843624
Sb 4.491291665769454 8.552750563178096 4.812841756427922
Sb 4.490542649655463 11.09779386701628 7.888712602703147
Sb 2.869787229159972 6.33074805097321 2.145831869773748
Sb 3.322839814559932 6.7626366085321985 6.745725174775778
Sb 1.5243102718744794 5.891511859799068 4.658742984298949
