20
Energy = -79.09754005 eV
Sb 6.932161659724208 11.86094427274749 11.301781646159924
Sb 5.99069881973188 9.354877859151355 12.361143615053765
Sb 8.132454609936744 8.897984539766014 8.759424828026468
Sb 6.202532437787753 7.42278583887656 10.229734104577256
Sb 6.831082718517044 11.40064102635014 8.450523321807838
Sb 4.078558585375327 11.305812488776224 11.505162915201593
Sb 7.456796040812009 7.73755749775487 6.214378424478462
Sb 3.9939954059808684 10.862654610791358 8.652682437719015
Sb 4.5800009247161615 8.094127201095127 6.047152247822168
Sb 3.7888991704607036 8.040403123939285 8.820512227296815
Sb 8.724471834133157 3.640253223099607 5.676922941379976
Sb 6.830606182101028 5.1216210817464045 7.266762392173708
Sb 8.577728621699189 5.376288220849509 3.438341285963947
Sb 4.528944613430976 5.236962267645375 5.50908619176613
Sb 9.45065052815159 3.3401334682850083 1.5896163244638555
Sb 5.760143615287347 5.407085392636365 2.8989971898662326
Sb 6.98044543606079 1.5402567164599896 4.8826381821446345
Sb 8.833194387083344 0.7899271973186902 2.7935230518069
Sb 5.229921602828504 2.6260512695829883 2.848768956305793
Sb 7.0967128061820866 1.9436327031286869 0.752847715986404
