22
Energy = -84.76164214 eV
Sb 13.804926532352567 7.471030480087112 8.56565299736425
Sb 14.162754556235122 4.702991540730793 9.301533457942345
Sb 12.324238551879247 5.442988591484211 7.220558723480733
Sb 9.258014865466661 7.619206074546437 5.796138340551844
Sb 9.146270318189318 10.415166945063646 5.128665096901694
Sb 11.738155372291624 6.051198894020118 9.997985059721264
Sb 6.541072003505839 6.834090413080332 5.224519030589255
Sb 10.867515855835899 11.523963034572049 7.134674781620988
Sb 10.766475709719616 9.505499534616774 8.916463831661005
Sb 7.395765239677441 7.10737205823631 7.931391356721449
Sb 5.317455562853889 9.340784703584923 4.570771534955507
Sb 13.171461946263364 8.27311958656663 12.0673244087552
Sb 6.647910711887146 11.196492049193026 6.276850225359471
Sb 12.384220814281843 10.79576416211475 10.90743364201873
Sb 2.6326335778467285 6.310986738910638 6.259589816522451
Sb 2.9246485082413756 9.159249230596245 6.1814503064387045
Sb 10.845991926401371 9.38432924374908 12.861578862477048
Sb 4.20453935126046 5.279006975977226 8.423680687476407
Sb 6.7321476409719185 9.764088453740039 8.73251519592191
Sb 1.4131506324208438 5.949749029777577 8.837003375712015
Sb 3.8407026006183638 9.828744394786947 8.807741915137308
Sb 3.4777630135570017 7.374144773954938 10.237736879330507
