22
Energy = -84.25794143 eV
Sb 12.505452194117847 8.565964154635504 9.832218841616713
Sb 11.333416373617107 6.649808808766153 8.007069146323305
Sb 13.081372772824977 8.882555441995041 7.026008105826275
Sb 14.063668030812845 4.204006117159654 6.235087982651269
Sb 13.344411919442592 4.678129626022266 8.92933352565014
Sb 15.089307922061488 6.424417487511155 7.55949010178218
Sb 10.605389916323468 10.031981544193014 5.801788654557495
Sb 8.442725635126072 8.147299026959399 5.801524022629351
Sb 10.10843586460255 11.889084370392291 7.921567511985444
Sb 7.22065608940699 12.107183326931855 7.869155197560458
Sb 8.354397825905952 8.578147800483604 10.646499385535385
Sb 8.40019703179646 6.852431671814827 8.366225105508287
Sb 4.833833815492859 6.915351178342026 7.961409126634213
Sb 2.5751267470127326 5.770404901710675 6.166557073934585
Sb 0.4491343932509925 6.478152185341123 7.948634351902184
Sb 4.1119899948514265 9.37078450372719 9.48384648054758
Sb 4.05378638972677 9.391842352904986 6.594913773209791
Sb 6.611480207258526 10.347199352112836 5.690834290924493
Sb 2.6106314608049783 5.973536422970404 9.75505958830557
Sb 1.5933669474796313 3.861089295522303 8.058059993791272
Sb 6.5041389598485795 10.730757124520066 10.275587479495565
Sb 10.452546516970111 10.495340997559026 10.414598292623584
