20
Energy = -77.73431653 eV
Sb 9.66051908907544 8.623483426949063 2.872383787158838
Sb 8.476482668340424 6.485391534257243 1.2364191586813484
Sb 6.946513872570238 9.438005778079642 3.368448756280106
Sb 9.065802239335882 4.544351604926518 3.3550164553327786
Sb 10.224702451577402 6.71784453732732 4.9802195800100995
Sb 5.839057765128205 6.969213246211159 2.411692557190845
Sb 9.401332948673252 10.103884190257373 6.34049295806167
Sb 6.4092451813695845 4.996874248039108 4.477501073004299
Sb 6.671058208668088 9.152234260620743 6.223313805941284
Sb 7.78170087424909 6.531279774130066 6.490861569857849
Sb 9.613033067616527 11.49878171522006 8.871221991216137
Sb 5.52149098160404 6.874977529267027 9.654582311748536
Sb 7.43619995652443 5.284671431270016 11.052987304244095
Sb 4.625712798321975 4.991900002812228 11.657317302784785
Sb 10.242835706636123 8.715762376852126 8.738833805796508
Sb 7.668221125878065 9.521978941824848 9.709399743254961
Sb 4.26598400871179 7.823729002307457 12.062879830702753
Sb 8.453406859992219 6.800651250230164 13.265662905640786
Sb 6.309393811338692 8.52381258008548 13.945441358693321
Sb 8.560735379837022 9.574601564780812 12.458752739847112
