27
Energy = -105.37567201 eV
Sb 5.832053101944837 2.032595890371314 6.268758990686547
Sb 5.429998990423168 2.620747064353005 3.43639786748828
Sb 6.835577534388265 4.622923801267304 7.165948532290813
Sb 8.41623526760628 3.2694593712739732 9.18040637278992
Sb 10.429205583789553 3.1615389633632835 7.150286963716771
Sb 5.4419529711758505 5.453010359522877 4.198255102164128
Sb 9.08627350158572 5.7029691956762605 10.573102575592635
Sb 2.925541660847158 2.158677967521653 6.670617855924532
Sb 2.5569670905848882 2.7079770911095413 3.8116768898519036
Sb 12.811504104414992 4.328400428264613 8.242446136460504
Sb 4.575677288887342 4.909791067520841 8.91902010358355
Sb 11.114489354842728 5.881894535300071 6.499585493550027
Sb 2.5895625939365403 5.622833228084992 4.336314153880585
Sb 11.442867226503378 6.639686524492305 9.250556131022126
Sb 2.3283530986677006 4.935680930410912 7.15097500267691
Sb 5.144237740394533 7.496299520894724 10.187333724929864
Sb 6.342119962540769 6.916665252195953 1.8428268687616676
Sb 7.831075112125413 7.977620043902292 9.378349586268445
Sb 7.675263751031771 8.20203487351213 6.224640027039762
Sb 4.807465904938147 8.042476294126848 5.998305714584907
Sb 8.269886463624779 8.529201134135723 3.242013166810914
Sb 3.917328721000722 9.361164869852468 8.362668327633806
Sb 5.935833287430606 9.75302241852356 2.1533033623135913
Sb 8.033493581264933 10.98292129486498 6.796570957950848
Sb 4.194096516727141 10.280542705179757 4.389686992075797
Sb 5.7471417889623195 11.585932367624418 8.435923550128642
Sb 5.795524187842629 12.33365919413686 5.643755937306023
