28
Energy = -106.57286798 eV
Sb 3.22688437704767 6.786937438640218 4.590605952403662
Sb 4.78390923352731 9.130191057402302 3.635087562058696
Sb 7.846904401396269 6.041865497744751 9.674100453669443
Sb 9.314392373014547 8.372666295534666 3.7808006365604525
Sb 3.0583257039367546 11.095126841680528 11.415542310822492
Sb 6.629946497263016 4.916097746121405 3.405947702630045
Sb 8.542007469736037 6.403664836071228 1.8292842954022268
Sb 12.133377967366332 6.290811951731885 11.132008309397758
Sb 5.7794990735812855 10.360589219519431 11.882133208564095
Sb 7.448461727183508 7.654071990697539 5.894136953773534
Sb 9.398804341403743 7.8815342999933815 8.066862411655734
Sb 3.8505697939186376 8.324369929076388 11.224258635600824
Sb 6.7283099630286864 4.461295389934871 7.415755873278264
Sb 11.043462695332606 5.632023754311862 7.360687060309904
Sb 6.50286748670919 1.8857648912706477 8.52251095985406
Sb 5.1024213080362735 12.010092453064257 9.601723770945613
Sb 4.146612061081266 4.4581471491956925 6.004515447419282
Sb 4.396123693637407 5.525106174697941 1.7173609985974645
Sb 4.989583325658367 7.897165711345417 8.61638587134255
Sb 2.7223693094104124 6.52642104456423 7.45590823596022
Sb 5.572979482369309 3.118616901132109 1.4268151804416491
Sb 12.78939964067221 7.694731771808611 9.025952431174375
Sb 9.050797123918327 3.8972184526195193 5.817915605634576
Sb 10.19206954123511 4.3358435883012785 9.779228492019081
Sb 9.23087072155592 1.9788956027773619 7.932975698138262
Sb 6.424397703362896 10.337089507222531 5.652322449925039
Sb 7.154151803651234 8.927514938530889 1.9418856348310982
Sb 4.146705649891157 10.34799667377995 7.4611926250544345
