27
Energy = -105.71538581 eV
Sb 5.85995930434263 5.957623810426281 0.4889281044360548
Sb 8.035308580185458 4.333063206465337 1.44301172268269
Sb 6.550937428072853 1.9713247925251436 2.0520928617215066
Sb 6.300371647935162 8.181255395192505 2.238911003143276
Sb 4.114140432128971 6.451603882885707 2.7346053769262135
Sb 4.964104070286186 2.6031525800290822 4.3733216541893345
Sb 7.510280373328495 1.3385904129755122 4.685715001319764
Sb 8.212128491737083 5.7261334082215845 3.9198560391188755
Sb 6.208039520304034 9.088998940102954 5.848647931642745
Sb 7.077052221455464 11.64752383099215 4.800961409990389
Sb 5.580161260392166 5.349300446803492 4.967337814997715
Sb 9.311115017002404 3.4781517324636146 5.370005152080354
Sb 9.058569039959963 6.4713821650424785 8.540279964698996
Sb 5.478168274290796 3.035579726088104 8.035826322116986
Sb 6.139737286724967 12.99108504355637 7.2155339289562015
Sb 8.908350276845226 8.32794394015974 6.343737300227834
Sb 5.259233459615672 10.432024179893148 8.243451510914845
Sb 3.5652896430624823 5.141771498276186 7.820748376858249
Sb 8.941538806988028 12.563170623013479 6.804698054166796
Sb 4.359593289345604 7.172734514614274 9.723705962291755
Sb 8.278907548784021 3.7449556512079116 8.059540979196614
Sb 7.129455369860036 7.32522267755918 10.502259211031998
Sb 9.664187765710121 10.24219907710899 8.331596225669957
Sb 7.40254932455925 10.196260771799434 10.081165431685632
Sb 2.430489910407225 3.65864082164792 10.135760662035164
Sb 5.079222426759828 2.7822302284370126 10.874896093512113
Sb 4.081109229915023 5.2880766425108545 11.863405904386386
