26
Energy = -100.08311993 eV
Sb 6.142847809061594 4.510886961273136 3.6324996999953494
Sb 9.509410371333669 4.244827575275584 6.325006979882549
Sb 8.67150853655039 5.816062171076265 4.0173352049976305
Sb 6.88894944135214 4.752281902292021 7.422347353480842
Sb 11.14301992122134 6.33888184537178 7.483895616152621
Sb 7.689070808856189 4.936302875336021 10.194548298401457
Sb 10.527789017296268 5.415992907061644 10.12854527406358
Sb 4.271197817890634 6.488073832597601 3.807099849562291
Sb 7.360985619720086 7.278201047333388 6.104712331841055
Sb 6.1845132330624875 7.207021570137011 11.108795383463434
Sb 9.509413494737174 8.703234576435603 7.398284342714986
Sb 11.317027838655125 7.876991389041215 11.373619621202653
Sb 10.156979236922911 9.36910026506423 4.604547026522439
Sb 10.042208951780392 7.847191416814394 13.960379692195628
Sb 7.292411967382148 7.039113380344909 13.720714824606809
Sb 7.118483892825434 9.68166414993727 10.025249080494948
Sb 10.410553925511966 12.251762928004137 4.830375186178209
Sb 5.165414926702425 8.761875893796594 5.097745743180376
Sb 9.880380748318007 10.25640524327307 10.521072050426053
Sb 10.699932481489578 12.143516522431653 2.003950776665288
Sb 7.770154882967824 10.91489561601107 4.416286256943482
Sb 8.468670721005834 10.627451007977012 1.6403478984735684
Sb 5.70188228286909 11.053460939277002 12.138192886681887
Sb 5.844193402305299 9.396504920963803 14.49847586972994
Sb 10.146891892085367 10.667430716316726 13.38713318797684
Sb 7.58802323435481 11.657764686229934 14.228903488482299
