28
Energy = -109.07058003 eV
Sb 12.741473418027073 5.479813096980887 8.19128876136398
Sb 12.495418272655286 6.59443652299217 5.486554357406117
Sb 12.307143574554006 8.122897555780671 9.174829176399212
Sb 11.781232498375282 7.276044070725977 11.854060546004337
Sb 10.763324689544985 8.981692277876933 5.601380232206381
Sb 10.262172106856177 4.142557325550303 8.825451935074938
Sb 9.689659980108969 5.324179295247127 11.39901665766038
Sb 10.555141389810798 4.591111466344074 4.955448109802276
Sb 9.856916393112705 9.43251730938221 12.392932169077039
Sb 9.628916900231562 8.448443512984301 8.190910017686898
Sb 8.234262042990784 8.116010356535977 4.562489502604021
Sb 8.84013412872491 5.840297983616169 6.8749561128878
Sb 10.330748091437357 11.097842759451577 9.999161945154336
Sb 9.086178331310514 5.990356767934259 2.9038483585916106
Sb 8.536155147674469 13.189078302951666 10.97821407980791
Sb 8.436998700113493 12.523556299900926 8.202041994245802
Sb 6.579227567465072 4.017331138295668 6.309795455975652
Sb 6.640924707404154 4.520167347551524 3.484706777045676
Sb 7.779924082674114 7.474436634024102 11.977342119878475
Sb 6.760464098904762 9.332233951951396 10.012087105240445
Sb 6.5410800431276925 11.372401613191629 12.057941753420334
Sb 5.925360718740944 7.888434710642287 7.015781069163974
Sb 4.774301738428713 5.933401819992018 5.1840610993137
Sb 5.596775301207826 12.402342739442146 7.853250548521105
Sb 4.6778472213137885 10.305346878164888 6.093968993642991
Sb 4.259185811176674 12.004497138567073 10.389783111995637
Sb 3.8950858167807056 9.153391770959402 10.456597533615675
Sb 3.1395302645133523 8.524905166568834 7.764766287700541
