23
Energy = -88.96734129 eV
Sb 10.490969883670623 4.493101458969181 10.136650312814666
Sb 7.879313846129035 5.482023242123159 9.31965842835475
Sb 10.87913882529081 4.251248407390725 7.32208487518712
Sb 11.06245750241854 6.917005516112769 6.275141106384076
Sb 8.73916643884594 8.590663811164717 6.601843445646787
Sb 12.974988149249711 7.543651808890732 8.287407074501708
Sb 12.710935611002242 10.43799934968575 8.222999601382696
Sb 9.636183460689567 8.760479152652357 11.34434476810458
Sb 7.647752382042012 8.536035516487082 9.273982654080212
Sb 7.361355688705839 11.624314872297637 9.394672022898215
Sb 6.986019528437602 13.250947347699544 7.058866698315682
Sb 5.856119560882393 15.104772573673252 8.978626320667068
Sb 9.792626984054415 13.068847174825063 10.058063075184927
Sb 10.078205661444969 13.288334140715527 7.223762395975107
Sb 10.69669788846149 10.668192742061384 6.216793706720075
Sb 4.946368487016346 12.834828343618017 10.548972822257456
Sb 3.8915780796835064 13.310575515194584 7.988249012152084
Sb 11.498276972666476 10.877981819197506 10.78559502206711
Sb 11.804288886824047 6.946273983859438 10.844402579966877
Sb 7.801552616485422 3.8777498481244224 6.9442245426910425
Sb 6.612674657338631 1.9113212813133131 8.726052219688466
Sb 5.51990560409196 4.073855170563439 10.329708585557427
Sb 4.68286634015429 3.6992403203864375 7.667342467828286
