24
Energy = -92.77679465 eV
Sb 5.062088753470703 8.184246687770873 7.902892864441154
Sb 6.436376866639812 2.637525729339576 8.791684668719729
Sb 6.188334386877505 2.488924528204017 4.195144310762604
Sb 8.734879012996112 1.3169133980976566 4.985164557690133
Sb 0.279836419654879 3.4578648989235217 6.830628212202906
Sb 3.9694137757320487 5.853373115215255 9.246707726171357
Sb 4.022734592293153 10.103316130144515 4.149736331149423
Sb 6.3978997992853435 5.9047050378080845 2.666928357603442
Sb 9.719358509256542 3.374599631555599 4.007408074677546
Sb 7.095631021099272 8.577424213962173 1.8486278429820635
Sb 8.918203387259114 2.9936765195567214 7.358352161001764
Sb 4.193414654535651 7.336657758164314 5.029994337912372
Sb 4.293687071818598 9.16133684230082 1.377049214998459
Sb 9.719358509256542 3.6277143498969817 3.5471453034234024
Sb 7.49631226475315 3.294127422779539 1.749115817930497
Sb 4.671411411367329 4.109866191542375 7.0215608206606595
Sb 7.5699482147068125 6.902767561495074 7.648759246639676
Sb 7.628862088324165 4.788862179661198 5.4554452093091435
Sb 6.599802650527301 8.972094067505116 4.712621107907971
Sb 1.1119746051532722 5.608950912271474 5.064920172742085
Sb 2.604039411971359 3.4326633382223 3.8669314609867977
Sb 2.780196904078613 2.031119017833711 6.39939012255046
Sb 3.6705365737107005 6.413561288576978 2.0778124725319653
Sb 6.7417963117479545 5.294371437409853 9.932642103444143
