23
Energy = -88.63285576 eV
Sb 10.296832344826177 2.663108721894109 10.803467808930218
Sb 6.297909830089621 6.592940463301372 8.27811680300955
Sb 11.244276008653042 2.491203682833309 6.899821462736766
Sb 10.352469115043354 5.979281826805827 7.784545305916488
Sb 7.933988091207403 2.444666622555708 9.176856496710485
Sb 8.693023528327863 6.894084290564346 9.943981015778702
Sb 5.347188192113038 9.294665348602686 8.210596877545413
Sb 9.635022263543123 9.400288210810453 6.442715139053882
Sb 10.358064118355895 9.908148965624154 11.126833736310186
Sb 7.447974494056702 10.038188634373357 10.473750276100981
Sb 11.619668144243418 9.562729320514137 8.66933319827699
Sb 6.8980409422258 8.314643553230837 6.075092326604907
Sb 8.453370199143686 11.369270627878342 8.060971839685019
Sb 9.647189802222307 14.85297369433778 7.1320761032869635
Sb 6.569114635066817 14.742581237003375 9.726696858410467
Sb 10.205198965239726 13.081759890555912 11.411967211539693
Sb 7.341508604982449 12.730505415009281 11.64889108365354
Sb 11.017355635661291 12.511974544180744 8.65907709543498
Sb 7.0018473239962224 13.645127257772113 7.064332745466633
Sb 9.317168457764899 15.66033575135991 9.816377507856085
Sb 8.07306204525258 4.402384289146776 11.26665622409594
Sb 12.10733989026748 4.1187066512692 9.102118780159692
Sb 8.700927779261088 3.858970046239463 6.784263490719372
