21
Energy = -82.34927456 eV
Sb 8.554383129800797 4.10543339962778 3.6142736275731435
Sb 10.091850576012805 5.181459579966484 5.822996593405198
Sb 7.216445821719025 0.8827409561313283 9.088159327544478
Sb 8.421485938592987 0.9696661194595467 6.417654362988677
Sb 6.57152383452259 2.6061545427672748 5.0209660599497665
Sb 7.972626840322403 6.583009045093262 7.146496453209073
Sb 6.824127514568171 6.387239787505917 2.898488665680233
Sb 8.294694914497379 8.067736889698581 4.681456202340385
Sb 8.828814491696441 3.1623603072291537 9.95125866593206
Sb 6.041125332170821 3.435693267994099 9.455655600287459
Sb 5.781106210632353 4.7387678960456405 6.757776949550945
Sb 10.32888019761595 2.835052402993249 7.462753198498945
Sb 4.423398784426439 5.672183663279084 4.256716266747377
Sb 6.884929309249456 10.588815739414253 4.909369318132767
Sb 6.8904582015377605 10.223923822631287 7.710045603620458
Sb 4.848721346054803 8.226874107368472 8.127352332800756
Sb 3.3522769684346816 7.91898326019518 5.719821088258822
Sb 4.142549978076074 10.197672694150112 4.245490980758236
Sb 5.031307564672028 12.386308961114892 8.245044646198938
Sb 2.980414111408752 10.399900594779425 8.70801608570907
Sb 3.018878933987912 11.93002296255425 6.2602079708125045
