20
Energy = -77.38464048 eV
Sb 8.954183857424741 6.980421379311478 2.8746434646169465
Sb 6.600889199978441 6.098948054702875 4.2006546212785425
Sb 10.65652570185438 4.6565709102652715 2.8262010423687114
Sb 6.5438549679603435 7.679233710334826 6.657596334346144
Sb 6.534528641893978 5.108664539170001 8.039906344659094
Sb 7.485175913511752 3.7784755950922024 5.597502928855058
Sb 11.077529483000923 6.741980250486691 4.788972000832047
Sb 9.284281518817178 8.030692797699501 7.5222171139411484
Sb 9.154792421081043 5.602792556183758 9.146777343592236
Sb 10.323747943417944 4.106911538952498 5.639950339410231
Sb 9.867576374929168 13.567002790131367 9.159020033882674
Sb 8.021710133223435 9.929596896850455 9.285952613076384
Sb 9.59422438287125 9.051513031693187 11.538334425502681
Sb 9.97016758961749 15.620911504805756 11.171371256208262
Sb 7.645638504882422 13.98460688098212 10.884509738026729
Sb 10.057985774319153 12.84498737097478 11.920713233168293
Sb 5.902292738679462 8.159056643546425 10.192310587105878
Sb 7.964123492331498 6.659600038329355 11.546144371553284
Sb 7.839807179275912 10.426762400557136 13.370164690927155
Sb 5.3727935259995965 9.82310045499883 12.488886861718353
