22
Energy = -84.91519646 eV
Sb 6.535111648797917 8.141486561350083 7.244423430207199
Sb 3.3615424873751234 5.564009899745435 5.625711165736503
Sb 6.4803389088681715 6.966978473974874 4.638968898279746
Sb 3.9410493420754165 7.077600957719219 8.013893990940732
Sb 4.686656094545917 4.485643044371376 2.1722495668285444
Sb 2.8122150022336063 2.97069143278169 6.786317412587496
Sb 4.247063461980993 8.98914182147401 3.7515455989919175
Sb 0.6759257397045217 4.92173097274207 6.355510801018619
Sb 5.3787845630501785 10.643018814623504 5.648745961255286
Sb 1.9784360676401254 5.431107497140674 2.0467662563429
Sb 2.945853174370246 9.265418461514244 6.317886538097173
Sb 0.22075014348950522 3.8437119511260462 3.661587736352138
Sb 6.9282347628432275 4.233121349609197 5.999073934193
Sb 9.346642507537037 6.489300589943223 4.707898211033007
Sb 7.179904716007767 0.7908116506819396 3.950234697937958
Sb 8.696440408594466 6.019320240510079 7.411436672619243
Sb 8.898480149868941 3.3086113906969725 4.1780582186014055
Sb 6.207867157413416 1.3432323745116483 6.532240815447404
Sb 3.9249460464666575 1.7262203406595142 2.4303977805536294
Sb 9.047324924365798 1.0518131007987257 6.0803924934910505
Sb 1.8516868796298187 1.6165811462129993 4.396973101381903
Sb 2.873049149783698 3.3387512644553183 0.2679898145432811
