29
Energy = -113.22340984 eV
Sb 10.30431532109384 10.98990442818292 5.340314781972377
Sb 8.440530674505185 9.829901241022176 7.258381464450671
Sb 10.31153254103138 8.607457064880732 3.6977815529475087
Sb 7.575596946604399 11.810740202314927 5.385554409368149
Sb 10.307923352842604 6.150255888348912 7.356118917103334
Sb 8.377750279475233 7.356732743023863 5.470784821601035
Sb 8.977853318220472 6.855129408575484 9.84519311996233
Sb 9.92636768853151 3.271265926649009 6.989350704311866
Sb 8.199520683583684 8.966405124449953 1.7773276346366196
Sb 6.2037200499784975 10.542156739091302 3.171682207144022
Sb 8.41726486887243 2.9471395726688274 4.518817927927022
Sb 8.231144747284176 4.261331741066835 10.905066845105893
Sb 8.002899267155414 6.183453656621268 2.5670535418764455
Sb 6.281768331151052 7.39946855393347 8.443490107536546
Sb 5.269942947039764 8.4443223508819 4.853424910966123
Sb 6.039680070669567 4.438392949233129 5.173138925097428
Sb 3.838126804314114 9.338767535785031 8.605901529095249
Sb 7.438227826629699 3.812853929157376 8.220971833071875
Sb 5.058474749507824 6.911889159708723 11.050034453009854
Sb 5.937755506632259 1.5670338015331122 5.277617374575347
Sb 2.6750400810994117 9.213144456573259 5.966412981562245
Sb 5.434881633236861 4.876106796068263 2.4016596502783076
Sb 3.969555626422609 5.653986620563485 7.535915233673125
Sb 2.5288753324142457 7.0250828062376645 9.659068091696714
Sb 3.591662598350277 7.031005753012246 3.0283900560340764
Sb 5.985039131762562 1.361811816816506 8.178391588081599
Sb 5.306420249054806 4.07948627317922 11.349227987910478
Sb 2.043865518499731 6.439157998263998 5.442933646141047
Sb 3.824263854039679 3.135615462159182 9.029993702865333
