22
Energy = -85.49608147 eV
Sb 3.2043837045717707 6.852094825815336 7.622992768502541
Sb 6.785289607694288 4.943800744449945 7.40603638677763
Sb 5.427964899988243 6.2492147908743 9.346569223394063
Sb 4.499497051202026 7.192467187219538 5.075243000060271
Sb 3.232126001055214 9.455770397630312 8.762957276157955
Sb 2.60110129100759 11.169989596039095 6.664137131247794
Sb 8.58055513414252 3.6647929623640665 9.278022784493714
Sb 4.020062004958689 9.967805087313984 4.4985349103509185
Sb 9.995808982419964 6.391107282367206 7.3479320620003445
Sb 9.465277758678653 6.296346843131157 10.160736238798346
Sb 10.677925724618182 3.617893313061425 7.249854069103449
Sb 6.54381230796756 9.113158087054762 5.631860744347929
Sb 5.398335703416027 12.190343416478568 7.5798087270520424
Sb 12.59262303962519 7.656424164067365 7.138907024135585
Sb 6.197396620262958 9.49201364472338 8.457231263804523
Sb 7.983221129298394 13.507918272505236 6.965520217014494
Sb 12.829610946936567 3.5765882492778904 9.104056866354114
Sb 12.033890811566346 5.501996201732323 11.094856453031378
Sb 14.459834166607747 5.587187150395637 7.789655414871661
Sb 13.646666075489641 7.536666164629408 9.791051147074757
Sb 6.858598239774056 13.779498692361534 9.583775524998968
Sb 8.575936031292695 11.619226233347772 8.954334519724258
