29
Energy = -112.36579391 eV
Sb 9.604135764452005 2.702118634868525 0.195514106072018
Sb 9.791460103341498 5.461567602195586 0.9541180613779051
Sb 7.231945929401758 4.166879778008873 0.9208740144347289
Sb 10.634252069166067 5.51898458546415 3.6972431134801846
Sb 8.122232097533276 1.9778050863821321 2.5408247412735436
Sb 9.458056831036751 3.1788870170074337 4.797820153335671
Sb 7.945354733807014 5.611991905453979 4.683064393773291
Sb 10.641372442836971 4.166669619516105 8.290259915741023
Sb 8.73388397082795 6.5199617309484115 7.362788270606379
Sb 10.55964964446164 4.965215277132021 11.036370868640645
Sb 9.906220774099966 12.881279048735717 12.127576272586277
Sb 6.617694017438671 4.919991916190657 8.493883288863922
Sb 11.314793639637763 11.462460668839142 10.04033612037741
Sb 8.1398214948666 10.759597559310018 11.277120310129234
Sb 8.504483433341468 3.2598660674539266 9.953645806534624
Sb 7.680957948143612 15.38628678655153 8.520203150773964
Sb 7.3140859553224695 9.168778145509528 7.239923209770227
Sb 7.1253647882630755 12.703809792837392 7.531002772004662
Sb 9.445818727397192 11.05753093523497 7.793146680086605
Sb 8.84935500260125 15.348470146617133 11.120958305926063
Sb 10.636036045544438 9.49176777473292 12.051030044165369
Sb 9.279161158897479 7.496695579180053 10.480127576583637
Sb 6.0066277296565405 15.097382238138778 10.906481807396283
Sb 4.972972341967147 8.651689628785308 8.897178239410536
Sb 5.127406002972445 12.671387280601722 9.622180690033149
Sb 6.33239680083237 9.670316285504502 13.245879652201586
Sb 5.287488296421615 6.378197015412099 10.592003593841325
Sb 4.421866300090063 10.323990042507651 11.16263143675759
Sb 7.303717038859208 7.031722642567103 12.546172063730188
