23
Energy = -89.5051811 eV
Sb 7.591834306093924 11.129245919149401 3.7592353718120495
Sb 8.110350739365549 8.686588996967266 2.3135895427782094
Sb 5.415170488901248 9.631726268188432 2.6632659069115396
Sb 7.758158075062335 10.425707720302352 6.565083026862138
Sb 7.044551220103095 3.3225158837099604 2.6081965779855967
Sb 4.677913895339983 4.718678413617825 1.8368142561683776
Sb 9.559915899828239 8.329272280234896 5.904797359239674
Sb 7.874288730449477 6.6042985393492035 4.3648910026167345
Sb 4.829634408187503 1.8747640297550585 1.485877313221162
Sb 5.120416309408374 9.347454954645986 6.615438883079703
Sb 5.079030427550541 7.354180789065676 4.604204228803424
Sb 4.643292396850575 2.9880001580119027 4.125849558436466
Sb 5.053920598718017 2.959895572886302 7.6577829169721126
Sb 3.3831671597435142 4.991709823721846 6.7055827280430105
Sb 5.828756162154761 7.421894454698622 8.621662640261004
Sb 7.519294511686515 5.237651453264102 7.747702323404023
Sb 10.056717635935936 6.593352840974656 8.208011380640393
Sb 3.335273706190077 6.22241318339341 9.324413326240906
Sb 9.712282282355359 8.168471595226226 10.580064530395212
Sb 6.9527496479069715 8.876718466983453 10.818695440935736
Sb 4.57036075395998 3.821301340754924 10.376781554719274
Sb 7.429760693194287 4.252246099623679 10.441479661573151
Sb 7.935976734066735 6.524727998526804 12.153397251952095
