25
Energy = -97.13590923 eV
Sb 11.719873571301148 3.8775165197206554 9.522431155335662
Sb 9.029766396915115 3.8380966103143943 8.322055931714015
Sb 13.077994998393027 5.4497180206940845 7.521567316862155
Sb 11.21336954359653 5.742321998701287 5.2964065010839185
Sb 12.452293134354857 6.583353169060275 10.090882438104371
Sb 6.9468875839668245 4.945124052299299 9.964865810088753
Sb 8.949515048426198 6.305378277768768 6.906409323075403
Sb 5.2477686824729375 4.051405441365938 7.743955890202212
Sb 9.741801895502674 7.580968497926345 9.877874727321146
Sb 9.822966662866815 9.822723446527288 11.71471867799678
Sb 7.123945427993067 10.690844722948707 12.016479966481752
Sb 4.60079350372227 6.742935041653113 6.951358593782995
Sb 6.65627344501768 7.669389700956127 8.857142976350229
Sb 5.269892992741639 8.650092626974297 11.183848178998877
Sb 6.55865188340679 5.2726935462977345 5.483584606562238
Sb 10.325257006474851 10.156202508896424 8.674313902005483
Sb 7.1095178626046405 12.859807179866703 10.14200371575042
Sb 8.174531106046166 9.747674898073114 6.78683893764263
Sb 11.989814942107508 8.407844124074387 4.396642627985018
Sb 12.56428788569581 10.130133649813079 6.592667553649328
Sb 3.3820737622255415 10.334181967315704 9.853970730106738
Sb 4.217459578967987 13.072795986146113 10.008992743141983
Sb 6.966910437063784 12.31014643334174 7.306555176059369
Sb 10.297580397719518 10.676807321846495 4.905512581209241
Sb 4.162274669534654 11.666411413676224 7.438257492374196
