20
Energy = -78.90962719 eV
Sb 4.75686881393368 0.7329200278328213 7.728589194986253
Sb 6.625983528115774 0.8742291479572724 5.519913498644736
Sb 5.094726007249135 3.592343248330032 8.164567385667777
Sb 6.947155544161456 3.743996238842272 5.976813630954803
Sb 7.400675000465773 12.364223385300848 7.99659175657098
Sb 6.8239632178906735 3.3915339999174687 10.426489019353424
Sb 4.675861062045739 8.085652168546842 5.328548965679962
Sb 9.477787829255732 3.5848670685699005 7.29854169952064
Sb 8.887227785656748 1.7144522252851346 9.3793736696951
Sb 3.2099215755142176 9.580539370776766 3.3576575100488775
Sb 6.943802143452609 6.69698466351132 7.929299389944622
Sb 7.214832918138974 8.275906517570633 4.061013177297124
Sb 8.855282686325298 5.3123191027621335 9.558547370338905
Sb 5.135024416068813 11.099748615270402 1.8567324494954545
Sb 4.848457303677519 10.18826604225297 7.2486216057554325
Sb 8.867130338751961 8.194504409500581 6.402603037987519
Sb 7.336504454178269 9.49942517144156 8.495544076699284
Sb 3.5725348970093513 12.364223385300848 3.971188524971613
Sb 7.435100119050872 11.067061524213932 3.6039159738679234
Sb 5.891160359056663 12.318045003780755 5.695448062519737
