29
Energy = -112.66427288 eV
Sb 7.438787849586622 16.95457271408985 8.25784226846172
Sb 7.606224933867909 15.302532369108432 5.920020204866875
Sb 9.866763939509148 15.522261544675963 7.669340362019382
Sb 8.341662731498014 14.867809883804908 10.009654287446232
Sb 6.374187787665834 12.785228073017018 6.567344236984444
Sb 6.799071005941384 12.518525319611134 9.371003173688726
Sb 8.777882799856329 11.561039724556473 7.531800500205929
Sb 7.6297414282686 8.920864174639132 7.082693792272977
Sb 5.499057484733123 9.017859465973633 8.970010584943196
Sb 9.545725119305692 7.8074168579252445 9.07962682341142
Sb 5.593775142167312 6.148307098392101 9.421319790683928
Sb 11.129697722809501 8.82708565976497 11.313836865894418
Sb 11.790340572933514 4.321744404350128 10.443252340132151
Sb 8.605282387486062 4.506541292238302 6.090438834068563
Sb 13.530004875202891 5.998826800905674 8.876934459431657
Sb 11.795655497862215 7.644928482016678 7.275813236869524
Sb 3.771030864651606 7.821297633298711 6.732326376548489
Sb 7.63070897386706 6.467495039984018 4.2201890128797785
Sb 6.7524678823887845 8.87409172046865 11.911012412161721
Sb 12.97028384530265 6.68415381608536 11.624337402044086
Sb 2.9105000468533166 5.665313662962851 8.419347626743436
Sb 9.126088180121142 5.036597904767394 9.638629633994594
Sb 8.59959013884454 3.9669793916494145 3.2014458680226436
Sb 10.358105639402561 6.252938008632713 3.249625477214918
Sb 4.971801229359331 5.2938057211232685 6.469540620671374
Sb 9.186691781850428 7.907858531329035 13.16824038044318
Sb 11.406173875656684 5.221675807695862 5.748992292599029
Sb 5.883567274822286 6.227562263536902 12.427766452610582
Sb 8.595120187392949 5.162681614088964 12.47623072915663
