29
Energy = -110.91105319 eV
Sb 9.95954243841547 8.74993441284987 3.0098668044673635
Sb 7.399182074899143 2.111952376218664 5.574530218512892
Sb 3.547665611712423 7.003360236526961 2.8073430843530875
Sb 6.513713107813225 9.374909940352332 6.037656161308336
Sb 5.351212318276367 2.5755400954990786 7.531244979506811
Sb 6.43216258067308 5.206339076429018 9.967876159581394
Sb 4.242970512471973 4.7015988038026535 4.511536134744487
Sb 7.638459527489137 6.979092903156809 11.929473956738212
Sb 6.820145534299654 9.921383879848072 9.052454018803994
Sb 6.617720946747399 4.831076394086994 6.1979681370451605
Sb 10.765353730518658 7.153432728196668 5.263403338970906
Sb 10.28918020041029 6.24706684590857 1.4704017017677267
Sb 8.994365748661624 4.5854528232066 8.776762834873315
Sb 7.28710587402032 7.801220188108747 3.495317319898794
Sb 8.722144916858861 7.826299637987727 7.2711261270201675
Sb 7.785019605971474 5.164534147528401 2.4185174125830877
Sb 9.77719013400211 10.40146198141904 6.5401016127910285
Sb 7.008128133753626 4.284865876761771 12.670021329053206
Sb 2.468486636907312 9.546963634195484 8.494392855046751
Sb 8.029653759214519 1.8672569614031849 8.38036303250064
Sb 3.3006926138056145 8.165831602344333 10.917495517504909
Sb 5.586746502995077 8.23337996149546 1.2901121438667815
Sb 9.619448079563629 4.889298088293619 11.646587660005832
Sb 8.09457825484283 12.120167455396047 7.898904739167898
Sb 4.5123918811629755 7.448001779237517 8.327614327986566
Sb 3.5652141724122424 8.61688742396218 5.256863637748186
Sb 10.194753550895072 4.661793348366364 3.903502290179309
Sb 2.6331666545768693 6.192437511074237 6.458386956866417
Sb 4.3383866979398515 10.794413541860564 10.283221620698775
