26
Energy = -101.79692448 eV
Sb 4.039132829234906 3.7845914136249994 3.019208721424615
Sb 6.670902170564353 3.5729584437039175 1.9193965796621097
Sb 3.778361706510554 6.638662022013243 3.4019390416220556
Sb 7.8161979958412235 1.3005252631574995 3.2733785971973774
Sb 6.317383323595799 7.7804434315853666 2.6722616986953187
Sb 3.8954108078921688 10.494195531152062 3.791000083630861
Sb 6.241089816222977 0.795909593961892 5.620515648355914
Sb 4.142640669089061 2.7596469575648204 5.696918347907921
Sb 2.308162924385609 10.17390857463342 6.200698609327411
Sb 8.192706709319763 5.74740040505274 2.93989126674455
Sb 4.053763045606734 7.048108220984205 6.305828664415898
Sb 2.8045184611460887 12.811072815560163 5.209787164296853
Sb 8.72319576486766 2.237488735943251 5.853167741930509
Sb 6.680313398024044 8.12328448965554 5.9221712945172005
Sb 7.954120651147868 5.03685257379634 5.8353941966436755
Sb 5.468706390052146 4.7117120262299155 7.313325341455663
Sb 4.4373279151651985 11.747484949651183 7.3547501354402876
Sb 6.309414147139057 10.906220217077609 5.3061063185900865
Sb 6.92562676796737 8.68351711568192 8.8698703123222
Sb 9.922589206560714 5.416229689082188 7.985706334559703
Sb 8.0841199012371 4.301308534229371 9.818074639461638
Sb 6.225334568064152 6.40411394516185 10.406858098170074
Sb 9.685420164456758 8.21666988441693 8.482002065007826
Sb 9.862179639431432 5.156837644480684 11.976835988569654
Sb 10.458303032999117 7.88252453624847 11.24131830850128
Sb 8.002534721924755 7.2677897137974 12.583051529995753
