25
Energy = -97.07092609 eV
Sb 7.781173819858554 7.888165279771498 1.3694862454895136
Sb 8.53844865323239 9.692017153962682 3.5169525275494067
Sb 10.850735635326568 8.056650040901467 4.1463954765953766
Sb 9.041801855627535 5.9980355153481355 3.14321153737247
Sb 6.710826019022181 7.494252875816198 3.9861017503620424
Sb 12.43131942812373 7.751733000839325 8.173424372552928
Sb 12.43563840898229 5.19577593660679 9.514972264428513
Sb 9.836020884627194 7.821824023765542 6.84119281464389
Sb 6.693740975059984 7.258658427176349 9.033241365428873
Sb 9.551665255405148 5.600324717006508 9.47767617570184
Sb 11.272268921122516 7.4869968917925105 10.795817527694116
Sb 4.217917432539009 6.265958371853736 7.916998243746048
Sb 5.166172305742298 3.5694710937829264 8.241228590793513
Sb 9.816721081863621 10.725973485002093 7.053687181519793
Sb 8.480664984588481 4.475743173955372 11.904970959445938
Sb 5.631203276665746 3.6984430061879556 11.114057194357017
Sb 7.004706212995915 11.184168034842763 7.308587123362343
Sb 6.327375044195537 6.399604520025275 11.769960179503927
Sb 2.959103309966246 4.503157087768278 9.761330281916837
Sb 10.659794651221993 11.087865707390387 9.739379542863086
Sb 6.115247123005006 10.013265999702359 9.750178903417558
Sb 8.371537174655652 10.487917298346423 11.409604986803444
Sb 9.922469632888285 13.892890998494739 9.583010038829002
Sb 7.252248823641793 13.777418546424801 8.532092966563644
Sb 7.6868560911435155 13.306046582706697 11.345629413899472
