28
Energy = -107.66273735 eV
Sb 9.17205104198184 6.711798920757726 6.148345811530881
Sb 7.233237834189152 7.922839862960891 2.5112777633257517
Sb 5.106325437361151 7.712892493700985 0.6641781943848627
Sb 6.989897705650332 8.80283864998718 6.856691751784121
Sb 1.240013572591174 6.94228122594515 4.848067550278287
Sb 11.856793253567924 5.379632799603885 2.730205167796797
Sb 3.0838176626289573 4.505117004479434 9.16789793288546
Sb 6.898233766316374 1.9721424067306692 2.8683252767687586
Sb 10.79277223011451 4.217100715712677 5.074443820662606
Sb 10.79277223011451 3.3739169656474175 4.450437921309485
Sb 4.850269486547753 1.7378729803145805 6.808428058254584
Sb 11.43908554559701 5.344909719530658 6.508609743507707
Sb 2.8337049966449994 1.8225255426137497 2.3405050810728723
Sb 8.704818968792837 2.7293557050868253 6.227087722614468
Sb 5.1713804165816555 1.8919618066849921 0.6101408467972689
Sb 3.8007959352816996 5.781634325590091 2.459188403202231
Sb 2.682763934936142 6.828355815162951 7.500613588690901
Sb 8.075302449790586 4.875133193938725 2.6878728690160085
Sb 6.916730073407011 5.109647567472891 5.371840920444578
Sb 5.904355506999059 4.832805595471005 0.7365305980229865
Sb 1.8862469602769374 4.205440954453979 0.9821459441464406
Sb 5.8792663149708355 4.101942109669344 8.325990901219413
Sb 4.638049653864011 3.0890883681330843 4.259907590161904
Sb 5.429936572429463 7.683867519661958 4.778464954106918
Sb 1.4722084076349538 3.4970343944954587 5.593500610181815
Sb 10.203961023642767 4.577411426096327 7.8342807712445035
Sb 2.182678402504023 1.999802736973715 7.924118241514556
Sb 5.412160201780994 7.07905604859796 8.45930930095195
