21
Energy = -81.96617094 eV
Sb 11.556513403963052 7.156445580625834 4.6769690162982895
Sb 9.838299434673921 6.104254264738578 2.5799295845544474
Sb 9.218931094233602 3.5993438812467033 3.788897135860895
Sb 7.457170369899198 7.535033554313607 3.050724845860853
Sb 9.818917393562515 8.340441143331121 6.6176050440657255
Sb 10.64390721513101 5.6849304839372 6.981352007521825
Sb 7.2578799934925415 3.129506459905967 1.7431730853569563
Sb 6.000943787490779 5.723936317289447 1.3715008011262892
Sb 7.154263623075177 7.029937602612156 6.047243116828693
Sb 7.964620501882691 4.291612216666602 6.276791730349238
Sb 6.184137120855461 9.580318752959847 9.416647129259973
Sb 4.659184122793155 3.6485711412083095 2.844605604677774
Sb 7.055099753735261 6.908136149079183 9.124053912811238
Sb 5.335035954427686 9.080275291459209 12.139038345606934
Sb 4.8677021946356795 4.068000010549559 5.647274677735885
Sb 3.4303373155161463 9.625988596189394 8.548911431489213
Sb 4.222824141663104 6.777823461933693 5.302567187173249
Sb 2.5568962216616358 9.143085260676965 11.265388479664107
Sb 4.63515659819841 5.4615450119221185 9.384943764214563
Sb 3.8344659792758 6.646956240032885 11.886951519039567
Sb 2.8036335814046627 6.959778380894302 7.801351382075955
