21
Energy = -81.13271055 eV
Sb 7.247238927428473 1.5057693235825271 2.6145985298277754
Sb 7.55776335897122 8.924607026885932 3.788602054331209
Sb 4.992582868385687 8.108005680566176 4.478677631617597
Sb 5.330046434268063 5.393302130986414 5.419916136629639
Sb 5.763994835186168 13.09985678805439 2.3109504516024333
Sb 7.187995086533149 13.639161065998781 4.7328442436291285
Sb 7.976757195482319 4.796358407640629 4.537088401183781
Sb 9.344758044443036 7.196291262731189 5.227996911699006
Sb 7.350583207851048 10.408601620801873 6.490832895272401
Sb 5.838856478283636 6.478563024168935 7.998870952480454
Sb 5.294137517134465 13.099856788054394 8.202971362092098
Sb 4.847052615762067 1.1082140389932609 4.098558128989844
Sb 8.256838772636986 7.976550859998995 7.803371293877126
Sb 4.5230686898140755 10.441644926840102 6.947636673979802
Sb 8.74011356173711 3.1890514699001167 6.800713786993626
Sb 7.40771770173433 4.329502179402038 9.121734874446084
Sb 4.576574297300032 9.329051833502593 9.627242550485253
Sb 6.079235472001535 2.449003761140507 7.436517949184595
Sb 7.932223104951922 12.23745517428769 8.76998421798262
Sb 4.674096627892771 12.00315477840245 10.807735029640376
Sb 7.030960952530035 10.3091938667934 10.735751674383797
