25
Energy = -96.99246309 eV
Sb 8.7133643902667 4.0994077310289505 2.8541567247207484
Sb 11.303848331572617 6.004108946417322 6.171320368236538
Sb 9.97066085147381 6.570655971330926 3.663704629945113
Sb 8.587191942598771 2.508273830609353 5.117791186572417
Sb 10.002022230937765 3.6989240386345115 7.306814193529278
Sb 9.818823232514635 7.5868187460044565 8.17664949798161
Sb 5.4136211017133515 4.636061352360927 2.6657628034874037
Sb 5.830080622216693 3.81662391206759 5.420688826427796
Sb 7.78598997044163 5.503390585354742 7.927114645472708
Sb 8.942531718039522 9.549225589409392 6.208045363552406
Sb 7.550716553596212 7.416229703261314 4.918975983759422
Sb 7.38822357459893 8.49652821451662 10.585503960953375
Sb 6.533077969303962 10.75846171741143 7.291232944474745
Sb 7.318575787950596 5.653579292746207 10.83109992237683
Sb 6.583133790544783 9.163678509343525 2.8745988431572673
Sb 3.5565740193688344 2.0195357772324574 5.571350775380122
Sb 5.748314073668194 8.120379821037488 8.119052961797607
Sb 4.31368134164702 7.330441126806911 2.8377417986560896
Sb 4.931329575423876 10.54209664734348 4.831694398052616
Sb 3.1891270024212437 4.700897195728083 6.568419312075432
Sb 2.6304444810463052 4.12515136552371 3.862019886199559
Sb 4.420560334519182 5.748042138024461 11.248616018733372
Sb 3.367302213230535 7.986832830998576 9.74694628309517
Sb 3.7090076719661798 8.024613673347105 5.561186044394558
Sb 4.900216488088924 8.448460552610404 12.147931896118248
