25
Energy = -96.67168628 eV
Sb 11.557467678723098 10.46020078347648 7.652548278664391
Sb 11.00446358869882 8.692185978322772 9.828491793737452
Sb 12.075080571398255 7.588962691478778 7.409581503246059
Sb 9.220388986777941 10.218792418703918 5.933849750644807
Sb 10.062194913241857 7.552642209747618 5.304130414718653
Sb 8.236845424912097 7.915043437898826 9.853567762276825
Sb 7.423809910854592 10.07972099992998 8.13549559622356
Sb 8.931531210067341 5.39487076788915 8.588910422695138
Sb 7.6627557661224515 6.1092061255816565 6.115303384220358
Sb 5.4890314700097775 8.503040703048141 6.6424377758837085
Sb 8.354816605544862 3.859644288632249 4.4204545830650295
Sb 7.2743566709812155 3.51370126590702 10.079391323658001
Sb 5.722217472076585 9.523820799557075 3.974259458710383
Sb 7.2012345416503365 4.9469617711886364 2.0174482056531913
Sb 5.214487501308448 7.132006579454718 2.311954486986405
Sb 4.810464802103629 5.545210697145236 8.11408551983974
Sb 4.6374621204466075 4.46689050776021 10.772155365759588
Sb 3.2105104635254404 9.88790655452792 5.488929815949053
Sb 4.883321756619759 2.6548348496548764 8.558822784911403
Sb 4.290386215841187 5.9773634929660115 4.694510117471321
Sb 5.9985890951625755 2.6395057991993496 3.323794216514232
Sb 1.8401840657377908 7.338102940172877 5.103943257383159
Sb 3.220885458250272 3.506150657554425 3.9115294539082504
Sb 1.907039109868557 5.8376154913301015 7.63566813037193
Sb 2.2704746000773364 3.155618188871995 6.628736597507383
