20
Energy = -78.68748071 eV
Sb 6.99704546987153 12.425080697521476 9.751138905377372
Sb 6.148404270292935 10.212284701747144 11.371836409973088
Sb 6.02182670359308 11.820093546892279 7.107771746666403
Sb 4.060908533875636 9.891768550831994 7.8125997001884
Sb 8.864974998942893 10.33625688976532 10.373402529024862
Sb 5.576977549568756 8.100916351850849 9.430746651732845
Sb 3.890107478561701 9.088586373528026 5.038700813909445
Sb 8.173654233052119 10.155617437273063 6.309427569099362
Sb 8.247409077962702 8.247024811191146 8.426822965848286
Sb 6.602016193750668 9.295376278919674 4.040136629286918
Sb 6.3740841536028965 5.737202784360182 6.892988679156633
Sb 5.4016102899251575 6.700480842805758 4.4035596455896355
Sb 4.736143188652154 3.2961559679069303 6.728093659873912
Sb 7.340762713636712 2.2582289637122237 7.2926580216883305
Sb 8.612966665322952 4.267088683707461 5.706306601528408
Sb 4.691816606345554 3.117852649713281 3.8847387330046494
Sb 7.384704421180504 3.82174569493099 3.174754987036729
Sb 7.481062199622228 12.425080697521475 5.57398336329485
Sb 5.34029278934157 0.2794016534826986 3.7107259172265046
Sb 8.05323246289672 0.990643500512566 2.9696064704921947
