20
Energy = -78.72155928 eV
Sb 11.898199221054572 9.557773563571516 7.521079729014982
Sb 11.624405036987792 8.913639457938059 4.701013420706128
Sb 9.540955526969075 7.986235852693047 8.01676623684126
Sb 9.218120656108358 7.36117701929756 5.201990524181873
Sb 10.872088940412217 11.528904498334 5.714581425028677
Sb 7.635874596413345 10.054454310499795 8.43030804149257
Sb 6.395629317883047 4.295332943719487 7.576230057773159
Sb 7.780707963701995 9.48283068581743 3.943213139798521
Sb 8.017296441046117 11.498058183046606 5.960350297549238
Sb 6.162697056636637 1.4239031031891694 7.915630273048178
Sb 6.08879105536775 7.880227376247448 7.218257976631906
Sb 5.552870052352057 4.521909562917023 4.8553570594340405
Sb 5.071333576686839 9.212885754368433 4.968043616264598
Sb 4.565824545068949 0.49461859999175795 5.730196888131099
Sb 3.959023770087425 4.846889975617109 8.951164327560987
Sb 3.6313944266726703 6.66691993566044 4.819699277249711
Sb 3.2717770995689905 7.319064358629644 7.648918012512262
Sb 3.398489996483688 0.7977806881206878 8.38139270325765
Sb 3.2141959408054546 2.914527405327653 4.8973048794408065
Sb 2.0990972170865967 3.2416391624072154 7.547274551475079
