28
Energy = -107.90958747 eV
Sb 4.333308361057088 7.525813560205363 10.374661595951919
Sb 9.837576242291894 5.315520884277709 7.971988639668759
Sb 4.807082065054271 9.117094826501088 5.76746809767785
Sb 6.830543502271043 7.061628602221881 5.557668600652109
Sb 10.804817347471412 7.69039812769408 6.6452702658072225
Sb 7.757080832096729 7.0486442550495925 8.900926556957803
Sb 7.913769494415923 13.227645977052267 6.997887573360017
Sb 4.177271487342354 3.8775386721466063 4.729619235846803
Sb 5.169015744177353 3.5221060366988826 8.88133752016421
Sb 12.571408690568814 7.617002194261742 2.9276968031150563
Sb 8.924196474918814 8.682450580114557 10.964095494250541
Sb 6.151098779419689 11.415194627479583 8.309018967873582
Sb 11.585827244007797 7.7720995850565915 11.280785936655626
Sb 13.247130218450854 6.5333752723907645 5.508307554730695
Sb 3.150610694302991 7.7101653184115175 3.9472477327557107
Sb 1.7738188150259915 6.263821603677561 10.244669442719303
Sb 10.167895037320825 10.67492525355418 9.258269581561743
Sb 2.244149301323422 5.579828422514029 6.058638776331849
Sb 11.707979709696621 4.996040338457664 3.616203833748623
Sb 12.084315929953757 5.6978230504387035 9.676841106819358
Sb 6.428791974627025 4.282281448851071 6.424639537666715
Sb 6.228082836517169 5.431729748276783 10.753494091368479
Sb 5.36863259328201 6.055115886191697 3.185086100009441
Sb 3.1129607847800327 7.7159106711813825 7.795265511806703
Sb 8.207592794210896 12.781944333172776 9.82574595199242
Sb 2.3548194365315926 4.022284922729339 8.673053527061917
Sb 8.48573717824261 10.355968192099768 6.922262673929814
Sb 9.84269925594892 7.194685451041654 3.9583404997948985
