26
Energy = -101.43904251 eV
Sb 7.832271247284909 12.330524917238916 8.77450116863222
Sb 9.269022977570708 10.058091055257504 7.421411061938433
Sb 11.099675341497994 6.800236459615174 7.0326665632550265
Sb 11.162671122845147 8.660523530898091 9.17551256976546
Sb 5.301437803576532 11.150553804886318 9.241370508876294
Sb 6.606367696369623 9.840238808266419 5.306301026545891
Sb 7.507765904215418 10.60100055200938 11.033227773559219
Sb 8.984813819594907 7.937002125893167 5.081156075883457
Sb 8.310748729986825 5.89591286413956 6.953544752385
Sb 9.58095462926962 2.4974942861939913 8.312916081731204
Sb 5.512502302757166 8.698058343592928 7.6560715679141165
Sb 8.34664055866248 8.227430333631158 9.515999239090245
Sb 9.205190555354434 3.4489428435501024 5.623890262004793
Sb 5.875173257069807 6.022549604554933 4.328507192785478
Sb 7.255519857042122 3.6555913534657436 9.591868454934865
Sb 6.810446173953342 1.922477641478891 5.266015767535289
Sb 5.802121913222766 3.5166010009793296 3.0395044720491073
Sb 7.35124344951687 0.8303995866052842 9.10658233390724
Sb 4.469261613295148 7.342702347000234 2.2722598217144503
Sb 3.946057646305778 9.512262799098954 4.077517749514176
Sb 5.410704029645912 2.4865480627957073 7.718807662353107
Sb 3.838589162242288 5.607329053753532 6.29587971272997
Sb 2.871657868471036 8.31139714615568 6.4684304055232635
Sb 2.9453931152070774 3.1180222460206366 2.7667128080095815
Sb 2.044728995348317 5.799149442362703 2.1477941820722757
Sb 1.6210159691829669 4.690935530045009 4.753526524780251
