22
Energy = -86.02210447 eV
Sb 8.90948918719264 7.5994276664896 1.4734208484661515
Sb 6.7306149380072515 5.854125470439451 0.9211279007450175
Sb 6.964795932929614 7.035646365475616 3.5806886991204925
Sb 9.258972428324052 4.763147691154244 1.7367111040137326
Sb 8.307672685654987 4.665497364518747 4.539387787682421
Sb 10.494702393963882 6.048416529754919 5.837174114422689
Sb 3.4161004745864325 8.559297841868988 6.12589054239408
Sb 9.239290618059584 8.559495035169574 6.446870520181569
Sb 3.1376698373228535 6.091122213970346 4.647917835485358
Sb 0.39314059297712556 5.814838542834163 5.558207571050735
Sb 4.670717560207122 7.724798574147683 8.54993031489199
Sb 10.902729003239703 9.127623905800274 8.698561231413075
Sb 0.6762770686832681 8.307223979451736 7.0421500260662855
Sb 6.463133464372494 6.08125066813482 6.912131424337669
Sb 10.350504511735968 4.523527155882861 8.235350079257756
Sb 7.956070998082565 9.090033274087173 8.964984117548795
Sb 0.6654189084646309 5.788150568398784 8.404260561501875
Sb 4.312740902741734 4.159508861682295 6.381255330271281
Sb 7.559789409337621 4.583606851799138 9.098331846381578
Sb 11.00156023302664 6.608868025683875 10.154017602493639
Sb 8.163887547443196 6.857772334225778 10.788680364855045
Sb 3.4247213036481026 5.156621079030901 8.902950177420399
