21
Energy = -82.04504032 eV
Sb 4.2470856693859735 5.517328189382869 2.739191617036897
Sb 5.96620736359606 3.2221110686200327 2.2781788557247755
Sb 6.647819832458573 6.889898786175316 1.8692689965042906
Sb 8.391466937199644 4.64656357233403 3.1018628090138227
Sb 4.8818975838902885 2.2199658436590233 4.671227695347772
Sb 4.759086960595603 5.209387671277483 5.5594313585652735
Sb 5.395149969845026 9.785745681967569 5.190854891108853
Sb 7.587313346089577 8.407772261676207 3.9989031043775047
Sb 3.4881551916897533 7.832582344757273 6.154960268338126
Sb 7.570794254165703 5.824852072931533 5.579355926057033
Sb 9.42065444339505 2.207283653399206 4.695255400835719
Sb 6.9977409955758905 10.54950310657025 7.454397135991588
Sb 8.598866967431395 3.36470743987462 7.096626797048336
Sb 4.746355014934211 10.478979577956972 9.186401407780139
Sb 7.142376501406313 1.1071531441170854 6.020292130572305
Sb 8.42477276340649 8.207153714761494 8.235845885112752
Sb 3.9390601019142246 7.760426154170584 8.978868796899643
Sb 6.2159399096562415 10.201574818616923 11.642633571099836
Sb 8.827339358830386 9.27075637167232 10.915965484637763
Sb 6.428965946083872 6.3900907026412 9.218793520008306
Sb 6.82295088845069 7.406163823438975 11.911684347940726
