27
Energy = -105.52393924 eV
Sb 2.05595393324467 5.805192413483555 5.7268705603307515
Sb 1.492972346586002 4.189340646703788 3.3906434116194837
Sb 2.67353215623476 7.903055041750415 3.88646718822509
Sb 4.9238592503665 2.5916172739736134 5.822345750287576
Sb 3.4878057360640304 2.130042625853748 3.389755153671437
Sb 4.88269857011488 5.427235826507658 6.037858964640184
Sb 3.857318552143112 4.459578900160338 1.774991648441054
Sb 5.8366598187306025 9.292983195224322 9.921691463207646
Sb 3.5132936836575843 9.253494085956694 8.217470461080579
Sb 4.566816833235014 11.776690351684692 9.033491880961394
Sb 3.758217088571737 10.043097231426382 5.478894836679743
Sb 7.276712512335205 3.4621442702296705 8.854018516113898
Sb 5.4076064908885675 6.272967879764094 3.3651698367856215
Sb 6.694865148045658 12.128467784947398 7.005951878618358
Sb 7.429849346173986 2.313748444119999 4.462712422277663
Sb 7.431768013614338 7.7192321778071085 6.88522935314416
Sb 6.595519070136452 9.893730048698572 5.135694059886418
Sb 7.586986395768848 6.048586124005379 10.062288069323273
Sb 8.157837317286289 10.86826437957137 9.121519883671002
Sb 7.9368875342185845 4.800409831928909 3.0966359050651144
Sb 9.05015301178214 2.4515300854918163 6.847381592295744
Sb 9.431216560040932 3.835795753319835 10.692902214749344
Sb 9.836866701795278 9.137900366764198 7.53458838565359
Sb 9.233811619788021 6.670019488758453 4.849274638876869
Sb 10.129384664427851 7.408003177705174 9.826631464771731
Sb 10.772117946175523 4.580181873306478 6.15376284018666
Sb 11.47928969857352 5.036690720856099 8.925757619435698
