22
Energy = -85.41237438 eV
Sb 9.277312922053998 9.835752537369373 12.035560271646174
Sb 11.162349959742253 5.787320851708274 6.224111968062464
Sb 9.239995000176986 6.36228254741467 4.239581130603753
Sb 7.277396226783102 4.829410302393327 7.956312532378442
Sb 12.43558336438892 8.158100672711154 5.232680272581767
Sb 9.125521961415055 7.725978446438226 13.986607454597861
Sb 7.285098417238599 9.888136199419645 14.16826615130629
Sb 9.418014521374985 7.023586834232201 8.248792663185982
Sb 13.478953021626117 9.27443914046019 7.714862870877471
Sb 11.372675064756296 8.889985386571475 9.591828987927075
Sb 6.7921028379111466 5.0791417282987705 5.148198390452616
Sb 6.438926520680913 7.401248505401018 12.972206113072131
Sb 10.4796856394952 10.263137889262593 5.2959210640400585
Sb 11.286014048931184 11.203725842890345 7.917277996430303
Sb 7.28768479543956 8.316356805328965 10.352385320777922
Sb 5.278094631713979 6.374812986575716 9.125840513815717
Sb 8.272455816891924 8.62586192310079 6.127417593404008
Sb 5.750341363253804 7.718390590927521 4.921640135992395
Sb 3.941475091317744 7.85000128171036 7.091977178970502
Sb 5.979253896147589 10.851414551734557 9.993638830054156
Sb 7.292765608242258 11.210358586770012 7.462856614220883
Sb 4.495280034505247 10.693154826686632 7.5491748635609905
