24
Energy = -93.9288362 eV
Sb 6.7013478198889835 3.3309395225579186 10.201982929361039
Sb 4.371707810526959 6.792793759676394 10.559118542978991
Sb 4.253393568809528 4.346285019639181 9.083637111744642
Sb 8.059748015154835 2.2669198298061866 7.884726285529983
Sb 8.811561018367378 4.813557474272063 8.943825574868555
Sb 2.009999264975356 7.993826401768884 9.42657513577064
Sb 6.6201424341250705 8.247532734477279 9.373596516094148
Sb 6.029799206630161 2.7133569802024096 5.89867353616969
Sb 5.076335311373092 5.330768875996298 6.547932156033168
Sb 3.1685517929758737 10.593545977005137 9.471997345318089
Sb 7.525470952984305 6.643210068829527 7.1759489672344925
Sb 9.67290570449909 5.1370796555342 4.469200643397818
Sb 10.142395909834066 2.327099586715155 4.32387032778319
Sb 13.258261068865977 7.333450874177742 1.6217084415413987
Sb 10.686092290731159 3.992161624606173 2.030814309734181
Sb 7.572931988833369 3.3648265404144335 3.537907313918909
Sb 5.401347459897604 10.276669939589603 7.740125166568
Sb 13.43211419816389 4.684772890620896 2.705100022970648
Sb 2.0358049629814654 7.394987980690789 6.640423808420783
Sb 12.733176174732877 7.0165081157154345 4.225111857390484
Sb 1.4273232444458008 11.798649214186778 7.535941968322943
Sb 4.248945188018198 8.862084571036071 5.552888018023486
Sb 0.25088872225428654 9.623988197170197 6.073061892414348
Sb 2.4924503467672126 11.097678621148534 4.958526584248389
