24
Energy = -91.53667253 eV
Sb 11.80357497263865 9.658661564361928 7.141543164050011
Sb 9.167617569355652 10.10146153521978 6.375164329401672
Sb 10.376008994461499 7.317063290122824 6.431912775189297
Sb 5.284869128725445 9.76324776327359 5.800521217627386
Sb 5.453110324588565 9.084822276385745 2.996261177784278
Sb 5.651465503294908 8.41909361067838 10.60255833216038
Sb 8.426049796306085 7.578031523897108 4.101387805208908
Sb 10.673239029597154 3.758208782406091 3.9830352528308968
Sb 3.5974835895424704 9.767533820729414 9.331948845089942
Sb 8.236852859910636 8.125162928308647 8.219125831697852
Sb 11.03743629885917 4.0112675221518 6.848158678489711
Sb 8.554669582782104 2.6866282463334423 7.439090935866737
Sb 6.410488471115938 7.089149150773349 6.114236083313836
Sb 2.846579253043392 9.295898195608538 4.259556875897247
Sb 2.9379177186837704 7.892754744802734 11.406594216186084
Sb 3.2994454408592504 7.1683853013146175 7.6652765670967
Sb 3.6860976470876974 6.772866071813721 3.169946644558029
Sb 10.473072336284076 1.4265471882828566 5.703371562319664
Sb 5.226542283823023 5.541475708372117 9.127736197593867
Sb 8.082911974518373 4.7721745796267365 3.362274054940768
Sb 2.7561287162872206 5.275755568587774 5.495419100746542
Sb 6.744290483304805 3.0762400818088884 5.263759794296624
Sb 2.4371359187372224 5.441991005158927 9.797091807998838
Sb 4.44364019234882 3.5814820582769 6.964884184022159
