28
Energy = -108.46384226 eV
Sb 12.932246042277447 7.842369041693566 12.337122793083404
Sb 12.776779144407818 7.042552571426879 9.491523752363564
Sb 10.437789590982874 5.730765156585552 10.665157237069996
Sb 9.602686957780264 3.366074866490283 7.70609879057776
Sb 10.040655299014768 7.780053803840991 12.657571393688867
Sb 13.419206021383502 9.753957629117705 10.293785616295985
Sb 7.397283379091449 3.8078744672309957 9.845038463640593
Sb 8.479118578677186 4.249817199119328 5.242728908447057
Sb 10.096084935823523 6.026509746960134 6.817293406915697
Sb 4.65510992936119 4.9570265849332475 10.049379680270654
Sb 5.184188478023727 2.763512087909789 8.284462143079566
Sb 11.213610215407249 11.584701449810813 10.461220803777586
Sb 8.344848923803617 9.108134223799969 10.658942976589962
Sb 8.211924472605723 6.585195679775867 9.015709361360644
Sb 9.976471283830538 10.01209727891535 8.430395008143236
Sb 5.632491412383089 3.776110780821013 5.668107431907849
Sb 12.414660648272342 13.315928546465791 8.487015445707428
Sb 3.764621812018387 7.089012889943925 8.35697178766139
Sb 5.651882920653929 9.268999289125091 8.321056264538036
Sb 7.271374729874404 8.693339179271504 6.058925189916337
Sb 3.8347253672483137 6.005793935011064 5.682979099814291
Sb 10.348331773951038 13.771287589474998 6.8464859452334945
Sb 8.154857020967953 12.211537470057516 7.872422949142065
Sb 5.323285815412928 7.897763604194956 4.1346384912539085
Sb 7.543366296410202 11.391924219675097 5.156931728406292
Sb 3.487248026741379 10.79312172439043 7.198919128419917
Sb 3.3096275419815364 9.916706882071987 4.470332294584032
Sb 4.793841468445863 12.285506545567019 5.137431382462893
