26
Energy = -101.38865755 eV
Sb 6.170821846268185 2.856993451502824 10.899146786493501
Sb 6.517202300574271 2.127792396659874 8.141191967903238
Sb 3.777830012132423 1.7635473412505742 7.417584162033196
Sb 4.411832184831591 5.046042324143552 10.296342573208662
Sb 6.965509426089961 4.854814580131032 8.95018585209293
Sb 10.846740801942694 4.139638641444967 6.345684211662721
Sb 2.561054198245881 4.2204689335693715 8.265797497437584
Sb 3.270843362069986 3.2117702958221828 4.90517989710696
Sb 10.226319160557402 6.126761177484268 4.355723377290018
Sb 5.076039566354282 3.3667141440980775 2.660269320012965
Sb 12.344668873180778 6.562831974067455 6.306293646318024
Sb 7.615762914378055 6.426552491243694 5.576727478446401
Sb 4.158110377027995 5.569401477916156 6.186334560214952
Sb 3.0063328945479713 5.198478881173447 1.8241498705955244
Sb 10.616002480361619 6.043853128526883 8.547384723688642
Sb 6.46240231147181 8.593399819968905 9.106552513577233
Sb 6.798472864085565 5.687012443486272 2.8654325640940623
Sb 5.0075474434986305 9.263107799453527 6.685018667252163
Sb 9.246898007587504 8.607903872743645 8.514430354675234
Sb 6.9742719462994325 9.080031342079707 4.654600709885765
Sb 2.517010858672164 6.8464009314391046 4.172772370464033
Sb 6.839040965171355 11.44266715112971 9.568863313420469
Sb 4.652637687557352 7.566839133193301 2.392047405416693
Sb 5.374712245884406 12.110762895091915 7.154761200364264
Sb 9.342183255142462 9.961393085723287 6.011216132263518
Sb 8.229230564522382 12.33429883511244 7.205787392537084
