20
Energy = -79.12465455 eV
Sb 13.041831421480591 7.680721837909314 5.583845074558143
Sb 12.769282411797523 5.808788216292405 7.74294823339561
Sb 12.427512689457092 8.65088452176474 8.226301476879053
Sb 10.539047604473414 7.6589896933091355 4.177448262018357
Sb 9.541595037141688 5.1709475250376356 5.166103966768911
Sb 9.886450009374027 5.503736760015158 7.9590732478670425
Sb 9.240057296657618 9.539730111743928 5.852704293298242
Sb 9.5314204860665 8.312930781372112 8.40832999691125
Sb 6.714516761333529 5.904416778037999 5.145485385323484
Sb 6.709674287993701 8.789749281296508 4.698890699588947
Sb 5.146577140650062 9.001040360733912 7.117488800730603
Sb 6.435676404688021 6.518775914822564 7.953875360822568
Sb 3.175477619826329 5.8019634809218426 4.319404592229617
Sb 2.664223071690809 8.007783789067034 6.049493222092034
Sb 4.224937213834689 4.714991016835858 8.568763563306419
Sb 4.035400362629277 3.617476819411462 5.9645945006276415
Sb 2.159364515270364 6.683958064404879 8.50620200332953
Sb 0.417901856031697 4.903518419910491 4.671763978641705
Sb 1.300648397200452 2.714939315798431 6.362166038505241
Sb 0.03840541240357924 5.014657311315361 7.525117303106372
