21
Energy = -81.75165529 eV
Sb 2.064905638071198 4.503372749777799 8.4031772276168
Sb 2.3102147426810773 5.469789239286584 5.68768897149111
Sb 3.000465367475742 2.739600235247965 6.292606739237004
Sb 2.44309817432435 9.824903727862601 6.9746826375834505
Sb 4.205937767554257 7.724036856554788 8.66828406460399
Sb 4.076871080940884 9.358523963139037 4.6978711137632985
Sb 4.7611733055594 4.9559923429858745 9.379186464705985
Sb 4.86520527777139 6.819911471742119 5.866983788767555
Sb 5.622122349191711 2.9302071856716925 7.450358608656982
Sb 6.5221917289109195 9.315058832261315 8.708271565527252
Sb 6.978663673962363 3.14647685821256 4.9303412557995845
Sb 5.02669067443036 11.029894426953733 6.8589332129838105
Sb 6.091396908896721 5.484288543963595 3.4629941195990024
Sb 7.847784985872274 7.884876128184501 6.453265089878439
Sb 8.63290844081092 5.65475606130812 8.07703862866032
Sb 9.510600784869315 3.782784328280456 6.12459989554824
Sb 8.258844393019379 7.237974746879416 3.5536324525910095
Sb 10.4561266970657 9.17091918973103 6.829476438637044
Sb 11.269031119857557 6.844370462709909 8.391915933773038
Sb 10.439405211086104 5.465163558521447 4.021284992995958
Sb 12.11636167764784 7.157099090724921 5.667406797579589
