21
Energy = -81.78119284 eV
Sb 8.575964405558787 8.605177150183952 9.439760576054022
Sb 6.603135697256387 9.937019081705515 11.109801643679708
Sb 8.280535714075357 6.338877343448553 11.215106676394727
Sb 5.713381263393098 7.438854952532922 12.1509448627813
Sb 4.394211421159275 10.700708238119631 9.460714661792087
Sb 7.143190690921701 6.255220879831091 8.589988176441402
Sb 9.178142097334863 7.270360914986795 5.165447728466839
Sb 3.7526955514186784 8.387578303581096 7.890235481665835
Sb 2.2455821337065016 8.971539191609962 10.267194640275351
Sb 6.029982934021504 7.740749484906619 2.2895368609498266
Sb 6.315874931280686 7.464875690953773 5.1288278243252305
Sb 3.730677083284297 6.090556200870532 2.00444370376967
Sb 3.877161238443745 6.582036869571709 10.123072213403008
Sb 7.843057917038576 5.921278740612359 1.0319084459194898
Sb 9.969744063191413 5.610279636909223 2.972844963534734
Sb 9.471013399613248 5.240985593463779 7.173160619860564
Sb 5.315739046284649 4.83237702584821 5.7534509990032445
Sb 4.52358761711795 3.6640317707797805 3.2592634125683637
Sb 7.670485540478902 3.2369794459190424 6.152081122358343
Sb 8.992053675711585 2.9602488311361084 3.6362391222720674
Sb 6.873783578706853 3.250264653027418 1.6859762644827712
