27
Energy = -103.09779921 eV
Sb 12.438621657896896 10.9606800439955 5.161663829099786
Sb 5.92017953471045 7.792315189248413 10.23578474709706
Sb 5.232126746495527 5.117252329471156 5.927104154236097
Sb 3.7798012401703707 1.5647663608241071 9.307700139117333
Sb 5.786737585138914 8.965303838300295 4.366483127623453
Sb 7.912954380648753 3.369459432535665 9.768467435115086
Sb 5.27784851750473 1.380019651840176 6.837163818628221
Sb 9.885040372570288 7.28142768018343 8.4039228908524
Sb 7.884779428740165 7.061505218477295 3.973908039046271
Sb 3.185543098850031 6.837573839914233 9.76485669890288
Sb 2.0100127098130196 6.075059278516381 5.0161542574860825
Sb 7.291201330819181 8.855402741955519 1.863950337437142
Sb 7.454031916478842 3.1732826466559056 6.88975759906041
Sb 1.8875760053987423 3.2250808019334514 7.806664184434428
Sb 3.183651560047808 3.168576995933378 5.214061403131975
Sb 11.541387821590133 12.193895105904135 2.9320938232445792
Sb 3.6273134280774117 7.4445337019862805 6.930527288063583
Sb 7.1148481645619945 7.261866549520787 7.634026207983961
Sb 9.53872317755374 10.908411828770799 6.294482493380767
Sb 9.629920614727247 5.5120028502332215 10.70385893554156
Sb 6.866808497147679 5.403220992454702 11.541756103862612
Sb 4.378046981956149 6.592251135236946 3.391798204975492
Sb 9.499220459891028 10.086506632568662 9.101550441785939
Sb 10.454160623222943 8.510537504439352 4.995264774637149
Sb 10.003172941615869 9.861435459437338 2.5025269368142022
Sb 4.318859372276875 4.357321582826329 8.867570557041049
Sb 6.978754207288169 10.14156659450486 7.6722608077339345
