25
Energy = -96.98426085 eV
Sb 14.104481773613582 7.927958989187071 5.502768512790791
Sb 12.092085577584692 9.83726809501159 4.54132408208946
Sb 10.376745062557987 7.54137991581773 4.267080718251728
Sb 12.078237596733983 5.8802414461738906 5.910569766314787
Sb 13.217117174359979 10.073924920707508 7.154476060596806
Sb 6.042831067443486 7.287463286907695 4.4910244259759144
Sb 8.22415066828059 7.925503041555228 6.130909210121844
Sb 11.596475363020387 6.177549796023302 8.716614195072198
Sb 11.935506777262654 8.923423085797685 9.433765783539583
Sb 8.76224944179277 10.693573089025703 6.841363318020208
Sb 8.637284602859106 6.426250976075509 8.916233865074188
Sb 4.985403267445838 5.397014507007786 6.305797475618514
Sb 6.140833934633909 11.855476042044893 7.085656876514474
Sb 9.08560910322149 9.768656783149808 9.51472748178044
Sb 7.17468657960195 4.178150450903709 7.809486030801676
Sb 7.334880788963285 13.931625507734852 8.747949905694949
Sb 3.8263050251188813 6.6132801943988 8.74606923636694
Sb 9.161992691328757 12.507939185514694 10.441468902614519
Sb 6.100775401569799 8.241149336254493 9.374895777341072
Sb 4.815672363954038 10.865872577988645 9.438504692633819
Sb 4.977281387810207 4.164186019644675 9.686375934034261
Sb 8.688991935427325 5.891018715315115 11.850755325280252
Sb 6.367661311143663 12.603367591916522 11.159849062884208
Sb 6.054698793480736 4.906851888639633 12.27917957309884
Sb 6.485249497000226 7.738771971237008 12.212483129337846
