25
Energy = -97.02931398 eV
Sb 3.663903962162738 9.467033412139132 5.994474762205517
Sb 6.140816503281308 8.451015232468507 4.893009203572119
Sb 8.090378792825403 10.559424493306555 4.674851068333037
Sb 4.168603831673228 12.205247686482785 6.691915579716027
Sb 6.554031355329685 12.87501934187085 5.25814577399886
Sb 4.197522219154034 10.16585163239805 8.730347999939609
Sb 11.594662268065845 8.58817622594065 5.731019415495105
Sb 7.474295972326126 7.302309472285161 7.173155261433124
Sb 5.5727135659659455 5.217009968854211 7.859182266928387
Sb 9.483117764329696 10.0578422405315 7.157723884907263
Sb 6.702394157114245 8.961811259742435 9.42858205092665
Sb 10.697402285242418 6.0096567136852155 6.642623260026141
Sb 10.13199274738098 7.0525346640537325 9.266002381668693
Sb 4.767542015503422 6.812386464450528 10.096677914295773
Sb 7.456056183514207 3.2598705658528746 8.786699493774874
Sb 8.446495362282462 12.286468926424776 9.473057839791982
Sb 13.839994460616452 8.510949572363451 7.556928177968867
Sb 8.121148285104749 14.134419920495176 7.347120074442822
Sb 9.78237819692674 4.317197329170519 10.113096120497906
Sb 10.583873863633166 12.692669978186492 7.60129273516106
Sb 13.565215741025883 5.639038407365082 7.404861738325996
Sb 12.998718231209475 6.996177535307799 9.845605505542656
Sb 5.703456060597294 5.363991784515192 12.38837952389485
Sb 6.398394339679554 2.7560495823252436 11.458875896422192
Sb 8.415499658961144 4.510151244349687 12.651886354293678
