29
Energy = -113.28343447 eV
Sb 10.588360775395783 10.444440346860546 6.591588812554353
Sb 8.814649089407384 8.164872753475626 3.0403266818946273
Sb 9.889930122678043 11.295476443589298 9.265482795186898
Sb 10.905858333358028 6.283564322956304 2.488184285080944
Sb 7.865770388449172 11.088937569985475 7.248502767546213
Sb 11.386774582225696 5.7132329843576 5.326022647427209
Sb 9.564973485585345 7.758540919529652 6.305932505159124
Sb 7.439883948278375 7.4398366093953765 0.5699361483226386
Sb 9.591581244693156 7.064540514123552 9.071436402823352
Sb 9.254798608683542 3.914877292027759 2.3587673977442556
Sb 4.790080569594453 7.7364175384615095 1.6744517780067938
Sb 7.816738140734734 9.285348996586672 9.538596199552073
Sb 7.101062321468851 6.2777146757666795 4.457462929920451
Sb 9.05244580072947 4.027621897357914 5.1974076602648625
Sb 5.36706136999664 8.760529766852605 4.203949086048147
Sb 6.474254386988504 5.060905106696701 1.8083838176665168
Sb 7.657749812003383 5.083335066976087 8.278488316644111
Sb 7.533730609058517 3.562056669162284 10.685131108309493
Sb 4.739565799295484 4.64058193180277 6.394404694238639
Sb 5.1254178429171295 6.916530217392607 8.111437386781128
Sb 2.613991157110365 8.0802050645206 4.799685762627679
Sb 2.234091105585853 5.223343950048959 5.144118576128021
Sb 2.6330815441932067 8.466560774434843 7.6450694055909665
Sb 5.103448791233877 2.016901344091111 10.36810545169276
Sb 5.137637993824709 4.322683955380147 12.093771836123256
Sb 3.422720870739754 2.7574827104788007 8.129633809195454
Sb 3.7801585386206478 6.349893494989622 10.580967114581691
Sb 0.8198034662317962 6.228910731543048 7.47548582143017
Sb 1.7943793009183553 4.534656351156115 9.647268801458612
