23
Energy = -88.95511883 eV
Sb 12.024242417054579 10.25519835978941 6.798364254463925
Sb 13.995123795203606 10.155134404610394 8.956487426185566
Sb 15.60666415184543 8.549050045159584 7.105090934307495
Sb 9.759697329923217 5.849010485375681 4.801917456952182
Sb 12.97439394133984 7.684542241596979 9.993570775233199
Sb 8.369680541990567 7.8622819885847015 6.323164995668296
Sb 13.260579273377969 8.00324241191429 5.47597940911693
Sb 13.933594692332433 6.270674724239115 7.6792552446931435
Sb 7.613906718702126 5.996633592883881 8.308773973794896
Sb 6.230817133745558 4.232107665879133 6.5048078996071705
Sb 7.220739786616215 4.824163574149479 3.847092774659872
Sb 8.779199038924675 3.232960939674645 5.61448410893447
Sb 7.1851996001161496 8.867794611758402 11.346727787575556
Sb 1.933380740122212 10.543060145698691 10.227904399107391
Sb 5.466447615100113 7.762464407164877 9.347853905151611
Sb 10.429272161482784 8.483782327475778 8.379139971921187
Sb 9.041069615270388 10.516044857279761 9.94710290758651
Sb 3.2789664429266656 10.231916932684825 12.74244134545183
Sb 5.349598837710256 9.760027960995185 7.330750009981322
Sb 7.4131575567695105 11.635220890928263 7.888068478562256
Sb 5.797226186853109 11.31775275817964 11.717189088580797
Sb 2.747693304409718 8.034137813441832 10.98813512217092
Sb 4.698787611643685 11.912117990318116 9.131812827333023
