20
Energy = -77.75961176 eV
Sb 7.164815654619182 10.802063639103382 7.011641710489755
Sb 7.143669885395386 9.111931782424985 4.687354419281566
Sb 4.372310802617919 8.896490533233449 5.52741714182316
Sb 9.24969548484751 12.013980553863087 10.503318593853876
Sb 9.722978389850093 9.948219373994059 8.256752480307089
Sb 10.502805353743618 8.283459348889846 5.967735864400117
Sb 4.906476034382581 9.48199385087933 8.299071965983655
Sb 8.325072438892066 6.557111065004912 5.321735252523873
Sb 11.107751959770233 11.026760633332099 12.387993130600249
Sb 12.755903716870018 10.093550438860483 8.302753477721147
Sb 8.55211532883634 9.764451218758987 12.139430384945465
Sb 3.4987525634515797 6.1625987980818016 5.4880757162332205
Sb 8.974614736885718 7.8192026241500034 9.97798251756413
Sb 12.547273375194008 7.294398872829006 7.734042223383882
Sb 5.628057946134993 6.962227496555288 9.400157780613602
Sb 3.38135865733308 5.444220531266909 8.258932063739582
Sb 13.009780229616089 9.275064987668335 11.008377684858747
Sb 7.493697451486294 5.455562522476297 7.82503822793686
Sb 5.255085393393885 4.120658143185828 6.505764730393632
Sb 11.593022341529466 6.813492482191792 10.473586710091435
