28
Energy = -109.54997625 eV
Sb 10.173419660234856 4.837629181530394 3.8518506849209815
Sb 10.677039830785098 3.848950788267671 6.495809636750029
Sb 7.021864342207084 6.899179350089097 1.6442005026158868
Sb 11.13762590436156 6.629744991454562 5.923225929116188
Sb 7.409847630624839 5.652986956348383 4.248041280820233
Sb 5.578386902537784 3.6760017935050002 3.1665198323997075
Sb 4.282327823635643 6.078743301785002 2.1324610883887622
Sb 7.981046292059751 4.231791237117097 7.4935118153833855
Sb 8.968922175383545 10.385391246880943 6.262517455888217
Sb 6.914004381230149 1.7571069980439402 6.460638679686504
Sb 8.314829578447574 2.880525395510789 10.029784555455139
Sb 5.979019646219716 9.567421688104524 2.329906079755318
Sb 8.470169364544892 7.567887205464017 6.68297560093919
Sb 6.178306289627135 1.061150338504816 9.161947887372902
Sb 7.105395437153363 11.3857755251411 4.323669277378961
Sb 4.309225528003149 2.5675733094824826 5.5542061834556575
Sb 8.570961041740151 8.085567344364373 9.570104244940582
Sb 4.810168892446964 7.965852649500589 4.3341166804531746
Sb 6.252612335085276 4.464592716745154 11.311978941195061
Sb 7.66812921184862 10.771637366402352 8.812081460268688
Sb 4.152599884550859 3.0227593939320827 9.924449310542824
Sb 5.396430743194308 6.484230450585858 7.296134534686691
Sb 5.922893044368672 7.07510172762403 10.105537041165253
Sb 4.578291830616668 11.786740998015118 5.714713180573153
Sb 2.6665027892559854 9.59145137269707 5.274526577455623
Sb 3.369546593069134 4.444970308724726 7.5459985823487745
Sb 4.80622957867242 10.854933330668231 8.4321032987409
Sb 3.304203268094744 8.424303033509867 7.916989657301316
