22
Energy = -86.63989577 eV
Sb 5.715062363774193 11.492492942868973 10.625553898424853
Sb 3.858990924401911 12.052530199918913 8.454050608752395
Sb 6.460421569328072 9.005017227978536 9.325094407716907
Sb 4.6220773886454305 9.556711343720382 7.180210074263785
Sb 2.8947579179460883 11.200221345473562 11.013219321905463
Sb 11.292961996719395 7.2611825240179 3.808782736077387
Sb 9.222998481410677 6.351837771429506 5.653886133380659
Sb 4.982576609979174 7.23322876065922 10.973556476279537
Sb 2.3368638308124976 8.041202266024337 7.9114667109688375
Sb 5.95256562660525 5.684264127469578 6.850530903615382
Sb 2.369419957476356 8.393261041572638 10.754471285447002
Sb 3.8024712096810935 5.677895736606279 8.797703247075255
Sb 6.303499190632348 3.111080651370737 8.059685004419064
Sb 11.152879670116103 5.376124603058085 1.6543850306679844
Sb 9.284821896195366 7.555893717203687 1.7335594266327727
Sb 10.1757963458563 3.6725584133491322 5.4660765650898675
Sb 7.242362744750227 6.637461313613025 3.599175574790303
Sb 4.316745994726853 3.4988812833515284 5.967001840444118
Sb 8.074090880457945 1.8240893073874174 6.137335703331959
Sb 9.748795074026372 3.1014334573149385 2.713100129001493
Sb 7.135089901942497 4.128777477564925 2.263247889404262
Sb 6.069827436436506 2.1589314999668563 4.07298404423137
