20
Energy = -77.79131614 eV
Sb 5.924027628833174 12.343447365528037 6.277200907563234
Sb 11.445089778624872 10.49747924854569 9.80448162259483
Sb 9.015303915078746 9.405740043443217 6.353392869757912
Sb 5.253785899873194 10.74464606517555 3.9889957380404124
Sb 7.441504659665498 10.878691099435617 8.233108897536738
Sb 9.478049142825341 9.69460364428586 11.656686758691189
Sb 7.73018848412066 7.061132373242037 5.32800732536273
Sb 12.21747830613963 9.037289482789811 12.126281353812495
Sb 10.578918060806979 8.088919577522582 8.391401049351385
Sb 3.2859218400390238 11.260492632744496 6.085691734441281
Sb 9.123968040004515 6.759127696457922 10.481143129587522
Sb 12.519054104216057 4.583755995682442 9.538996682576846
Sb 5.326512409255226 9.274901395686635 9.308001964578885
Sb 5.061570544236729 7.972886136498884 4.760931997122724
Sb 6.89140306401538 5.24936035689433 7.364977057166021
Sb 11.672940358744555 5.7282023366349755 7.051529316627005
Sb 11.75727062275901 6.185902299599801 11.700855811538132
Sb 3.595537736461343 8.574000636307815 7.1611644021155145
Sb 6.127315264175777 6.543608729406496 9.701142414262998
Sb 9.669253563875916 4.390631055144519 8.498105372104911
