24
Energy = -91.64272156 eV
Sb 10.992170885525141 4.728998383384526 2.713094567742111
Sb 9.098619843974287 6.766488862522206 3.4272139328478133
Sb 3.77714229121707 4.731607043859025 6.590453187412841
Sb 5.407908506560633 6.9716995205506125 3.4913881079628664
Sb 11.52113309743883 6.475321944060552 4.954832258715016
Sb 9.468461536126778 4.500273234367923 5.1353793956178775
Sb 8.121924588197546 9.012716666135848 5.91844182482164
Sb 5.63992467649968 9.739311112613743 4.199923147799134
Sb 6.020696351374819 6.576151181565061 6.394656289195697
Sb 9.43039156283643 11.588446398953105 5.816564136561603
Sb 2.8619203075669803 6.942722857729428 4.907470645309089
Sb 10.354269821243484 8.083622663647406 7.866752276356254
Sb 11.539615631231625 10.69138323028138 7.417811177796769
Sb 3.3275049853713456 5.726949524846362 9.223142197033269
Sb 7.058996088338322 3.032847778214236 9.098947107020924
Sb 4.230591381665088 8.926455888105293 6.558572557780739
Sb 8.022224527855705 5.718128978257171 8.453961629998838
Sb 7.080477066046387 10.950018877156843 7.798880158155606
Sb 4.275384627454486 3.1067293265603286 9.912623163611585
Sb 6.107931292391154 6.646647033606829 10.381967870718093
Sb 9.347943177702733 10.240741319108489 9.502457419527639
Sb 6.354067395923244 3.7902774026893202 11.753256029342882
Sb 7.824633600899269 8.838155236639269 11.66531299404475
Sb 5.635257666944903 9.573441218000864 10.107879058199513
