24
Energy = -92.54398375 eV
Sb 15.006736714343386 9.772447030180686 7.208644959961365
Sb 13.425885500185052 8.156858879533482 5.44283696120929
Sb 13.402904009169836 11.977302464629073 8.068138129133953
Sb 10.746998230312531 11.644000141583053 7.043192604796055
Sb 10.820420337872052 9.378054414390968 5.272335797947193
Sb 7.534095085230627 8.936190599819684 3.9468625458264466
Sb 13.826315484002958 9.668351994368871 9.809263405538289
Sb 4.629044844031739 8.582947197794839 4.078777347957966
Sb 11.227379208043345 7.096898903395367 6.963348175276102
Sb 5.96788604538145 10.380499206040124 5.825486407703415
Sb 10.072314258161901 10.677391190960696 9.645785181396816
Sb 7.946642060446241 6.292335771443706 5.082199176182806
Sb 11.40076750551298 8.142332956438247 9.634275403497083
Sb 5.4940040007881095 8.94828881238853 8.27880356527524
Sb 7.199252659412814 10.687053775664713 9.82638034004598
Sb 6.620045152617088 6.391611942921716 7.6374004515513
Sb 5.081888012767517 5.923677283880704 5.25540857987271
Sb 7.741474079226948 9.887638500916353 12.557420899362643
Sb 8.02083101611283 7.037024267839348 12.787825604779346
Sb 5.6658726977664795 6.995075295932961 11.130178177928858
Sb 4.4268019421502185 3.9768265010789854 8.621901570045694
Sb 2.2926950684732237 5.182317045497418 9.73440179930011
Sb 5.602747433124449 8.31957766140649 13.67529191363016
Sb 4.42686276409444 4.406167295699407 11.484545446549227
