25
Energy = -96.39389577 eV
Sb 8.970648723453708 4.548451679993743 10.230240773626473
Sb 6.142822490313219 4.281039935526237 9.703416605354871
Sb 9.339307225382752 6.749851464515164 12.13192444767104
Sb 6.012555236889073 8.943558951570369 7.851489020361972
Sb 6.2501875185281435 9.78780002064516 5.193435656797054
Sb 4.995145328166399 6.063373263296616 11.595255082521984
Sb 2.546789676137994 4.8854929926891275 6.420395759709011
Sb 8.706540295264551 8.32452419098965 4.721669558293189
Sb 8.040382171354825 7.10767818999054 2.132511949024667
Sb 2.599598408116153 5.387124074922935 3.6037099370219847
Sb 9.21699076248682 3.061659162086489 2.818488840983976
Sb 5.049229176229598 6.024521854048716 7.569035942136767
Sb 4.66548494165702 7.335162450899322 4.457499776608114
Sb 6.894195414314485 8.17792675143384 11.872268727320279
Sb 10.422885577283413 4.4178612180927335 5.0667592009498135
Sb 8.170338775649912 5.914149316374077 6.216913248966578
Sb 4.6093188176317765 4.663967617484369 1.5500347324264003
Sb 10.662725336001587 5.482614971973589 2.4350180011606355
Sb 6.885884526744023 4.76265505156669 3.324545584689719
Sb 9.983640185154389 6.511337232634581 8.398709533396561
Sb 2.989946221142039 6.721371684697332 9.513002352082703
Sb 5.027553320538983 7.499216599405333 1.5339991784489289
Sb 3.186975379668861 9.322111765887037 8.253815029847624
Sb 8.944069037291559 8.724022199467164 9.960855814671476
Sb 2.1867854546003627 7.802527359810674 5.945005245929824
