29
Energy = -112.04701045 eV
Sb 11.297446138343423 10.28323109648052 15.022301941792698
Sb 12.974531824339046 9.647128294073154 12.712608901126522
Sb 10.467739666887068 11.262620687496907 12.547978179192675
Sb 10.045613547140048 7.650937568953771 15.236656697964374
Sb 7.560063971598962 11.98631218530246 6.106291885569997
Sb 8.420310811879267 9.381310938545784 11.67423409682742
Sb 11.916823972246167 6.93460586201279 13.129262037286173
Sb 7.644494057074078 7.950819192912873 13.916388210792931
Sb 9.395853700479913 10.355623279639643 7.697540989140474
Sb 4.841615753780163 11.422490138657952 7.001911279248073
Sb 10.931272361616257 8.213451123503123 10.8500503453324
Sb 3.9828316477000945 12.233368394093057 4.386648542296158
Sb 7.706976476784987 10.207208315008724 3.8879821185727432
Sb 10.165366721172461 9.178477394196328 5.123090613452082
Sb 1.296598465715826 12.936475888360107 5.138126394867361
Sb 11.832219075931642 6.944733730347459 7.186812533689142
Sb 13.552885507295708 5.7398948603995175 9.16740947934371
Sb 0.5957699021833324 11.267669563454135 7.355956329152954
Sb 4.172800251997515 9.462098674901808 5.009895289558476
Sb 7.502327169056084 8.23100752185383 8.044798975118788
Sb 9.498983875635409 6.214769707069115 8.726302524592255
Sb 12.109108613250344 3.346594686782435 9.848898267044204
Sb 14.44255938645133 3.173899385663798 8.174593222053185
Sb 7.8151907655116375 7.502517284280644 5.2318800683001445
Sb 1.5637835911106726 8.88123132629568 6.093755551761212
Sb 14.44255938645133 10.584359673382698 4.711472094591916
Sb 11.27507259288682 4.703144676592511 5.445460593841329
Sb 8.587369164754707 4.687877286233486 6.426027826286275
Sb 11.863419093590455 2.4661279218808545 7.122485710515097
