23
Energy = -89.46213282 eV
Sb 4.63537183798554 9.802732301105475 3.491149383252167
Sb 4.6599732466517665 7.525248912131099 1.6981980224871278
Sb 4.374402508964203 4.91926881800438 2.9518302922978887
Sb 4.503909367232329 7.977114946456235 5.6933077245459875
Sb 7.151226277910823 8.66703695031938 2.568136753777681
Sb 1.7255175217154486 7.253861463911529 5.777241010524061
Sb 2.4530963032766957 4.564244217012587 5.129601129018522
Sb 7.059161789808236 4.654584698440694 3.8700267747032546
Sb 7.757657387094993 7.204223879142348 5.0118144644292375
Sb 6.759885203366086 3.2109711533016805 6.339860821495196
Sb 2.063183742392689 7.443732170076161 8.64302135560551
Sb 4.057955356562456 3.579221959213595 7.3043189134288316
Sb 4.173932488605766 9.418045407804174 8.208193510450613
Sb 10.495706652200859 6.441614966955497 4.164911122583612
Sb 9.59196281942151 8.161402479351583 7.955954834267463
Sb 6.250242733164931 7.370869324086489 8.593996668081196
Sb 4.130178623775398 5.555998857615371 9.381418980015182
Sb 8.505407780916741 5.297006736955106 7.591386233946168
Sb 11.905962383178094 7.098643949086125 6.581425947657334
Sb 10.913314065674719 4.427070976593649 6.184030848606668
Sb 10.138462217476699 7.256612134591365 10.651852139687376
Sb 7.3432685097033685 6.993148904691012 11.293276184820384
Sb 8.85022118291927 4.677344793153241 10.415046884317661
