22
Energy = -86.24252357 eV
Sb 4.714583992855643 11.3446158188302 9.169297029324095
Sb 2.235206286607564 9.929365326875631 9.554269986521232
Sb 4.475645300982404 9.481479573426993 11.306167318462329
Sb 3.0144888510866488 9.122694430272853 5.444680684248628
Sb 4.72535382305711 8.27806031754496 2.0616338968774475
Sb 2.4631320581466536 7.077028021581186 3.4797302377392643
Sb 5.653442153808616 8.622428292815684 8.776378912586372
Sb 3.0770281670153468 7.636408203635301 7.900939880409321
Sb 5.5620570324347 5.431302005897414 6.539024608419118
Sb 4.110569429037333 4.770401396451193 4.158124748023748
Sb 5.740615918344098 9.457280367830807 4.548469218268115
Sb 8.197971986046692 4.950032416515495 9.534312497563857
Sb 7.4232934620348825 7.428252571113517 5.72549321968171
Sb 5.871071101334275 5.625561017442113 2.0196791835723618
Sb 10.030144145072061 6.501597880703111 7.9812643792658315
Sb 11.04754581089428 4.474448188880918 9.837858534288987
Sb 6.892206991255075 2.994360988344002 5.731808278354848
Sb 8.334327669730106 6.421559750415496 3.203586784674011
Sb 8.18624056275796 2.3973183639888798 8.251238569073747
Sb 11.117367939275953 4.754225157321009 5.969650870101983
Sb 9.126470571670016 3.8356522623941824 4.1262107910224195
Sb 11.008228455211775 2.472919356377771 7.687172080179934
