28
Energy = -108.86005816 eV
Sb 9.44533941833617 12.278572210442283 8.743840973171476
Sb 5.344381716102136 11.924804716159805 9.476363839859797
Sb 8.507483173951519 12.964535075070454 6.145534142071334
Sb 11.687748996049109 10.60346628240891 8.142098567271876
Sb 8.735152634185436 10.177351704603444 12.021090039343205
Sb 7.6311997878840145 10.138417824755777 9.33763249053766
Sb 5.81640045796652 13.468228208564403 7.034559096170979
Sb 11.423355154664723 9.818012205361399 10.965859766065705
Sb 3.6223086453484137 10.18591402119155 7.878575716424291
Sb 11.312545208119408 9.749738848933697 5.3381671181769
Sb 8.871798567001031 10.762251191641058 4.257349103760098
Sb 7.808266393669292 7.531272625648716 12.712639550417105
Sb 6.027446741162463 9.507904831930025 6.4109909922430015
Sb 4.3229355529880555 11.583594199684208 5.41867000320609
Sb 5.405069666995822 7.331367236267683 4.659826541249977
Sb 7.9567395894637905 8.078663031666071 3.4825977264882253
Sb 10.372004072868451 7.0659206575359885 4.755221904467109
Sb 7.607205587065214 6.527876799086165 10.005208673010111
Sb 8.927325374543846 7.267427635009743 7.270486146078886
Sb 4.424990807058012 5.4989864669715285 6.707768920154965
Sb 10.19177192346809 5.898321511695604 12.779675751424731
Sb 12.07931953615837 7.052047051672508 10.945902997302902
Sb 5.00242701688533 5.426071939458087 9.537412060989247
Sb 11.505368640552259 6.35766098317403 8.222424560561679
Sb 8.765690810952123 4.1042997331479825 10.990998280420444
Sb 8.601089141615718 4.404406713685212 6.718955034872519
Sb 6.079037670812495 3.4136548708332337 7.745336693611275
Sb 10.550079733737139 3.6771797654484515 8.765276616622781
