27
Energy = -105.39388725 eV
Sb 5.340313991626549 10.459294728624366 3.997034587565158
Sb 2.3066429616427384 6.532643952577576 4.395874907999953
Sb 7.421685633560378 8.949579602568793 2.7980348134616437
Sb 5.526255399206667 5.183755965364534 1.806756734867244
Sb 4.410563159709009 8.15537033627012 5.572272208770398
Sb 7.954707847436175 10.28784754787843 5.213956937973118
Sb 2.2293130390602296 8.744372010324543 7.459714415880342
Sb 3.514425873107782 4.022047912307731 3.535385582345548
Sb 6.871435816122478 6.281927151142539 4.163488323837196
Sb 1.8951288123224568 5.916972155970194 7.171785399221613
Sb 7.472927766350217 2.9971572178829016 1.9140231820493403
Sb 9.16518308033966 5.111705018440206 2.8442266298410703
Sb 7.399467846619682 8.111925783365052 7.237138544453929
Sb 3.454480562430832 7.802559403504127 9.919454983091105
Sb 5.077244117774586 6.22361182340801 8.175915018474997
Sb 6.704628349918116 1.7561499048823805 4.401068801347978
Sb 9.109460357104364 1.808694920602445 5.9995747672428505
Sb 5.4558909573862024 3.988319215300123 5.674693598060816
Sb 10.717464216419007 3.9732277649913548 4.999256653209398
Sb 7.177120266941928 10.440996500748026 9.012605549605471
Sb 5.346864893385357 9.620750807415467 11.065874594468589
Sb 9.993594921114767 7.672307865196402 8.515598276690714
Sb 6.7088782340643816 5.177709285718151 10.429244744107114
Sb 8.561467777091389 4.51460796827224 6.831437961023453
Sb 9.140907729099116 9.20927017435339 10.799645557763732
Sb 9.453012176654363 5.041415070699401 9.52738036590137
Sb 7.100634027112034 7.525479725792459 12.04825667434615
