27
Energy = -104.06601268 eV
Sb 11.56325082478874 7.353218362264969 3.8102189025167656
Sb 6.243327047921122 6.531437959399004 7.540565812067593
Sb 6.269477199915216 2.716006880218542 10.234149833305269
Sb 8.71385634255804 3.372728579914287 8.929136370399407
Sb 10.568827329775097 7.169287191960027 6.5335841362835145
Sb 2.7011005579994034 6.136564293685373 4.66253480807152
Sb 12.57467303985726 5.322726816029871 5.561819547252297
Sb 3.5373787162847297 8.312702562969264 10.86582722578339
Sb 6.6814703397618995 5.134804793327802 11.728434542219949
Sb 2.3220228074182807 8.414023153790458 8.239846740330462
Sb 8.196449646995429 8.807193837319197 2.8601257328148524
Sb 4.364448516136974 3.9813725665157396 3.8900167837172694
Sb 5.13908071776455 8.992208519228166 8.551758919629586
Sb 5.146303557783696 12.112290858363465 3.573804342371559
Sb 3.8929706519613467 5.529690774579234 11.260865622975397
Sb 8.29155450137431 6.224958132830232 9.505369167295768
Sb 7.718093399718381 9.224703119151249 5.6225894780006564
Sb 6.61506623557096 6.000300409150108 3.039554565091045
Sb 5.549105121521412 9.662479387313574 2.1535733248413194
Sb 8.465629362549645 5.353461144217256 5.211596038764798
Sb 7.816975638231234 2.7095350690862516 6.215684150254358
Sb 2.0332830936763426 5.688384908288286 7.377761137257164
Sb 10.684212337630264 4.610851116778656 3.5021141276017964
Sb 4.503353561977691 4.515556927485191 8.55579871146996
Sb 4.959069225346303 2.569479655200298 6.270329296549572
Sb 6.407776364348676 11.742725683101403 5.9158653468911915
Sb 5.171237883413837 7.958290310969459 4.53081687426595
