26
Energy = -101.7784725 eV
Sb 1.6667298885214719 6.139642341311665 6.527673769288586
Sb 3.1290675410100475 6.725319633900787 2.9075071931768193
Sb 2.0989395278685805 9.167650411119864 3.9826400923369447
Sb 2.3291887804338636 5.531463894686759 9.255656954634249
Sb 2.077260757674075 8.972635059345047 6.903753249463353
Sb 4.409849886402873 6.100529250471696 5.560491964235866
Sb 4.4087563882361485 9.28211875209104 8.678157116972027
Sb 4.627939126657209 9.183524506378179 2.6212358743763757
Sb 3.751901994922768 3.0233699721478473 8.879930875216198
Sb 4.99326074672651 6.4252510738115 8.548541475285067
Sb 4.718622513013088 3.2531584780269536 6.128849236855474
Sb 6.257667090963599 10.524514307904377 6.841781831749687
Sb 5.610211961789565 4.422614090740979 10.605103626754063
Sb 6.570842411190493 8.65949325518064 4.68459849409595
Sb 8.6118620938425 9.2809439532757 7.927359799631811
Sb 8.849603687447477 6.142476649257046 4.499884510644352
Sb 7.986950209164142 6.569208975552297 7.172913362717632
Sb 8.641435717894847 10.346786019685911 3.4977112759046767
Sb 8.079237606933567 3.230803065647091 9.705680762583887
Sb 7.147596677901719 2.1535701792210906 7.233043759829682
Sb 11.005724972463463 4.2380030373015725 4.726985196874922
Sb 9.720013319223252 1.950656876176078 5.927492674592389
Sb 10.326379213890668 10.311491803717082 5.839067051894727
Sb 10.658744486493646 8.302074976653255 3.8428718764401575
Sb 9.833863717733148 5.418907045756519 9.021354073803188
Sb 11.488349681604559 3.643792390641984 7.479713900645205
