27
Energy = -104.69473459 eV
Sb 7.096759388445032 9.60068519177525 9.155910235284724
Sb 3.989055268636457 11.657729912518015 4.379428639416206
Sb 6.756119382316587 5.837055064907813 7.723971829777501
Sb 10.91860437732538 8.964912651894132 9.052485641043926
Sb 9.153865806278818 6.593613783777876 9.30630125044833
Sb 4.912863158434113 11.451480704121611 8.922976467393768
Sb 5.5913746809157425 8.309194242317686 11.237639274625412
Sb 10.846982397653223 4.76217266039685 10.94180925074032
Sb 9.258441806429698 10.668635370538599 10.734052462299525
Sb 9.307446167439062 9.300466709609138 6.433740464877218
Sb 12.305937419500008 12.072782181382962 7.123829203245172
Sb 9.378276220234953 12.090828567158045 7.189743098648454
Sb 8.980118224553602 2.668456723735808 9.847191563320578
Sb 11.82723112896352 7.529931778033991 11.53209750487877
Sb 5.790885045424056 12.600636592474881 6.445466044473071
Sb 7.561385818302693 6.372597573892805 11.999967327314105
Sb 3.318118373715477 9.272263327589547 7.914485122717151
Sb 6.625038348751723 10.394999085581924 4.787651965038211
Sb 10.274524891305365 3.0060616132286113 7.274804979084519
Sb 6.579559668535836 4.117387191241939 9.987806252489754
Sb 4.382559413098437 6.812697437470119 9.088495832061541
Sb 9.481150562423958 8.53383920096009 12.73528904752611
Sb 12.520156556386077 4.2962648894873325 8.59299975033073
Sb 4.19667630028073 8.92704739109196 5.220622074439177
Sb 11.852125474008067 10.03865389039865 5.142667713278573
Sb 10.747509697379236 5.80276221153528 6.911837093604848
Sb 10.85200355233866 12.718703842828539 4.7620702431750885
