34
Energy = -131.58250222 eV
Sb 9.216253758659835 4.26945403641408 4.727803446619113
Sb 8.054382175066113 4.154843269902612 2.0407758989526075
Sb 7.488910567487403 4.051465529488893 8.704957679458115
Sb 6.528435489984072 5.094633443224993 4.2468602739104755
Sb 11.776990348131436 3.348417525933392 9.529150725062241
Sb 5.371479179841352 3.3880046528164804 10.579646327108193
Sb 10.870971138244837 6.531423515585239 3.927827274065716
Sb 8.99126725368822 4.580575878618209 11.149472526602565
Sb 6.477133236518051 4.903773244416403 12.548125049377443
Sb 9.737034246487092 6.370166266553475 1.2416481806372897
Sb 6.09946058532942 6.541001956819591 8.266235101469242
Sb 12.962120649433313 4.687045150941127 11.818039535557848
Sb 8.250624482413963 7.652351538128246 6.663881167551185
Sb 6.615397586590723 7.94680553312798 4.304275773840756
Sb 11.214995895617584 5.418303685382253 7.635445749214447
Sb 9.511745005276572 7.385802029704198 11.316340118057305
Sb 9.0648040521243 8.527612956799873 2.9643073593332336
Sb 13.196446114072966 7.441889705390559 11.095667384878663
Sb 15.130013220758668 5.60928607987576 10.09841653255349
Sb 8.479796657173091 10.3652277793631 7.689084443222143
Sb 11.249320736609288 7.896351639283243 9.057243018587878
Sb 13.887498665325143 4.37405609818811 7.782768361189988
Sb 4.153728603034354 10.295299210074564 7.946709853778416
Sb 4.582650935169899 12.173846150813967 5.878628433874279
Sb 6.710726833458291 7.731320997807217 10.79840620260722
Sb 6.403170084917321 10.502619217620621 9.778460926783577
Sb 7.373405429156808 11.653410217612725 5.362015232375157
Sb 2.471927438689662 11.816229030642086 9.684216367842001
Sb 4.191999922764848 11.114859298955567 11.890002442606935
Sb 6.535945235908715 14.176626382168608 6.518857217391461
Sb 3.917021640634472 13.801670572547037 11.23081996422995
Sb 8.363083126138653 12.466271900590453 10.883374098628279
Sb 8.247408318626984 14.460191779385703 8.846282256775492
Sb 6.740693660233016 14.722366984736908 11.289971459658481
