32
Energy = -124.48202553 eV
Sb 14.551432780657136 4.770105189253163 9.506161249892484
Sb 4.160262726414891 8.485946168251964 12.342884747792839
Sb 13.26547531586477 7.223688899508859 8.552272914107679
Sb 12.078905787774197 3.9020657585935163 10.751571659656664
Sb 13.851955248004938 5.077357635200958 6.763220619980204
Sb 11.048566195237553 6.544144567861033 10.279875290001467
Sb 5.40436497139757 7.284255893278548 10.032411655507017
Sb 6.706580301521691 9.480271692401656 11.39407939500755
Sb 10.979862881353915 2.250672147413164 8.69962933305042
Sb 14.551432780657136 7.715952621796426 7.374691491359252
Sb 11.52817785363671 3.5147098004312034 6.1843949467743675
Sb 8.289968625510216 3.1791107624148567 9.113601496091956
Sb 9.491634505062585 5.544670874767703 5.986408731568231
Sb 8.69838256334004 6.017143554318474 8.696205561116818
Sb 10.355956821336761 11.646478909742864 9.459168523168952
Sb 9.015867490710885 9.90413178764528 7.649195136502919
Sb 7.758869721891702 3.2221246954959937 6.258732404953466
Sb 6.483318443998979 11.164151918591449 7.306525457427314
Sb 5.80812192489351 11.856424216175759 9.996526949941847
Sb 8.29603194575945 12.976139525693345 10.929025407559875
Sb 9.515927244535517 14.236965625128345 8.530653017163175
Sb 7.204700849329863 13.863314815919418 6.858180750167154
Sb 10.136018109852046 10.906102157842563 5.152227628021157
Sb 3.273775341045827 9.173933083950338 9.694837497838039
Sb 5.175054596477426 4.515151546915258 6.686241096601405
Sb 5.934471028728924 7.251005781940824 6.365573702167833
Sb 11.106447247425248 13.48063686804093 5.857608228793671
Sb 1.2522300774425732 7.083860641840901 9.73197752931328
Sb 3.106552274890548 7.54936187851996 5.698833215313767
Sb 8.65335580760763 13.257797777920262 4.41992407739528
Sb 1.725716485442662 5.587891512349415 7.307673464812827
Sb 4.828786926803006 5.8024304479277165 4.140929633379551
