30
Energy = -116.9626836 eV
Sb 15.38986102009648 8.007796774289337 10.194033709936035
Sb 13.28292540810967 9.79132143755419 10.98083569711923
Sb 14.652914762132596 10.163662198313135 8.463223649776223
Sb 14.208978567058098 5.637238883404077 9.047179630385559
Sb 11.497038981859648 5.690783021049123 10.014818478094055
Sb 11.132407245757456 8.470187418631731 9.503758017761205
Sb 5.8817478767823275 10.691594059123192 12.095111700157561
Sb 13.363146228513157 6.435380833593536 6.4132383169356
Sb 12.391934680784892 9.04241539236905 6.993621872556058
Sb 7.384455727433592 8.379148436260136 11.193472140997297
Sb 6.515548131155302 13.078267327046174 10.56701170708161
Sb 3.1216225978880177 10.680145712718389 11.312563640065042
Sb 10.970751722294928 4.993040231507263 7.26595735226762
Sb 8.353735859938729 9.293910966324322 8.680934874071625
Sb 3.6114443681045256 13.372532002787631 10.33104326322558
Sb 7.520535896063206 4.955960283571391 9.321886426890956
Sb 5.240386960878661 13.072461628491565 7.992988901911849
Sb 5.4331679165028985 6.295887298921452 10.786179156310098
Sb 5.575432383957901 10.231418546202178 7.674798751582669
Sb 8.491255118194188 6.634190976378589 6.951706827934538
Sb 2.9424053335513105 9.670335012380624 8.649556953540847
Sb 9.400423248516873 8.511138691722403 4.718110128862703
Sb 3.2641498156968636 6.82665056202424 8.926913997772232
Sb 6.573476425082112 3.152081526373012 7.366812459661711
Sb 7.677656778399346 4.380338452115392 4.880553480638243
Sb 5.30447871185487 6.938265394501467 6.87649468225328
Sb 4.530977187804417 9.148114008718315 5.190524830897497
Sb 6.913378659883741 9.305157523007118 3.507500279140748
Sb 8.118103132581314 6.771050961532628 2.9473233194385484
Sb 4.879642248042499 4.499185653533174 5.446933820628864
