35
Energy = -137.06875 eV
Sb 10.35134833384385 5.1177455708355355 9.643419223743411
Sb 7.241345471948407 4.437924219994658 12.310455411649817
Sb 6.977899787331259 2.5893815589941047 10.044107220427154
Sb 9.854052207974922 2.1326110693717557 7.007746657653632
Sb 8.669805416012561 6.7470140767684175 11.329481633295362
Sb 8.118737838217866 4.269310881692817 8.02237395613739
Sb 11.456926861648219 6.933525438402278 7.636554881852494
Sb 10.959290360867072 3.6145761276929997 4.7874262920723725
Sb 8.700572042124984 1.85810283377746 4.391193385856318
Sb 4.81029968788588 5.535300484460579 11.08723587739101
Sb 5.2564725381369914 1.3803872171095881 6.751284220916156
Sb 6.544543899231305 7.150151227481648 9.367902511899995
Sb 4.201319181974932 2.8669816788243248 9.013418816181034
Sb 4.538503050571667 8.404717388318693 11.012977352984
Sb 10.394891396395163 9.595485906105417 7.997575408678845
Sb 9.64156745530696 6.085710893190225 5.542508700861132
Sb 10.723239012608119 7.8707259936586995 3.5732919470780824
Sb 10.14288046711106 10.188901634792176 5.177902388655574
Sb 4.347630150829985 5.336554915504772 7.508259655176196
Sb 6.433249466117841 3.5702021298958946 5.1990461943555575
Sb 7.825478822519354 9.122430828423864 6.567196330104223
Sb 3.8473542691712543 2.4230854949983445 4.45320026167854
Sb 6.436714819298979 6.912251028007903 4.7541447525727625
Sb 2.7338913016739173 7.473540522167464 8.909752663846257
Sb 8.008172340390828 7.853711359905558 2.481173448839958
Sb 2.1805578470175555 4.41363767277843 5.772214318850131
Sb 4.065642335311593 8.578499786088521 6.542988833179955
Sb 6.8131918268909635 11.550354530415664 5.340317993438178
Sb 4.636115568480556 6.562950756032285 2.520663994162998
Sb 6.957318591245446 10.536503868926774 2.585433703599036
Sb 4.011361623544742 11.445881703152581 6.060730656513643
Sb 1.9852894678506507 6.252147766672856 3.5379106282718062
Sb 1.5528145880828628 8.567362458014545 5.183132490577295
Sb 4.435341038279507 9.380834884937657 1.788790648211233
Sb 2.646180934102239 10.741496092604324 3.5981875392882716
