39
Energy = -150.65933406 eV
Sb 10.341935866899687 3.2539667627187576 10.443909696288122
Sb 8.448323279244182 2.6215945269017107 8.362160186541834
Sb 11.080566230141565 5.9078648456162055 12.611424129721494
Sb 8.75822840633032 5.236087436492915 14.160919379099315
Sb 10.200543651372515 3.2320906597644523 6.172606868314216
Sb 12.38393269911805 8.20215718970899 13.829716475733608
Sb 11.345225753747066 7.336508270887125 9.518876644425145
Sb 12.928777594735735 9.236728659750339 11.13965108943174
Sb 7.883030397183045 3.5202220481416493 11.93320048219479
Sb 8.416191470549368 5.222586441463721 9.616428969090022
Sb 13.612104740870452 5.980888623735876 8.377694986652013
Sb 12.195390357859772 5.3593913199938985 5.97570440941156
Sb 8.61006634294174 7.474560855825314 12.365141246419661
Sb 10.725983387012265 13.433937494352715 11.695811796644861
Sb 7.985366962939746 4.090201345719691 4.52176169773105
Sb 6.668563521249057 6.024843281348988 6.223704402459329
Sb 12.299764825161335 8.150502428052611 6.864095704083986
Sb 10.368920876658612 10.594256636133757 11.427965324085033
Sb 9.798187969173089 9.532851454128853 14.064761570053184
Sb 5.338577821335896 12.256753691323013 5.373796269301346
Sb 5.834510264327828 9.379087153630733 5.611712381660913
Sb 5.185078212681478 11.93915868942206 8.325567440879
Sb 4.041101751943618 10.615870579034723 10.7785397007807
Sb 5.1913346794540125 8.597815789996892 2.943970397309346
Sb 6.006751158917066 14.55651775103307 9.168928915305946
Sb 8.068098718795593 12.27656257552349 5.9645833908795565
Sb 8.268512037175968 14.827558542290904 7.409141439883822
Sb 3.4088931409346546 8.464065732788697 6.930612708234677
Sb 7.354292068326535 10.035618493644803 8.621689916508608
Sb 9.23409948066393 10.087869671646574 3.59280721113593
Sb 7.899747843023776 8.15846868035284 1.8957780673100704
Sb 4.935725440882253 8.256895880038371 9.40036458002527
Sb 7.726941763775385 13.269281163104411 11.27901440122991
Sb 5.076872053662015 5.8650918400390974 3.765864699740611
Sb 3.781715767402673 5.63660132388361 6.3166656807363175
Sb 9.232852759406612 8.280639326280614 5.717701394525071
Sb 9.534307985081151 12.76086780546344 9.070874264141835
Sb 6.823439185014182 10.448328180413782 11.484107099967808
Sb 9.518928666965609 6.388591982311014 3.5556301150203424
