38
Energy = -147.43352093 eV
Sb 10.854597757858043 10.498309263142824 8.03919219234357
Sb 8.897308067469993 7.969490537445815 10.30838566646438
Sb 11.45613664471609 6.933541202888175 9.458610444033935
Sb 8.289907568628825 11.783344178747328 8.309578556028843
Sb 5.108396987423051 8.179110926823046 11.018671746724422
Sb 9.745397857664825 12.007453282045681 5.832184824290977
Sb 3.918348646683272 10.425567775765721 9.63828297839555
Sb 7.772693301965508 5.291283745261453 10.320978287605717
Sb 3.635859468804284 4.389619781346672 9.689810729733823
Sb 4.804712505832074 10.87943411322851 6.919176295060645
Sb 10.290007061193156 6.421722401791826 6.801870082137346
Sb 8.443513263726702 8.986317895107339 7.562186727540686
Sb 10.500914247254258 4.265847416247067 10.175166844232983
Sb 8.558625485819016 9.832580020986805 4.316500606196931
Sb 2.494843090463319 7.950343498498475 9.857526649985386
Sb 5.5321718206890536 2.257332883355438 9.440207310471534
Sb 10.904111893688771 8.408281511396638 4.544418137037123
Sb 4.746484034192006 6.784900978898508 8.478775966074442
Sb 2.6519487537122326 10.286642262159207 5.054299527149728
Sb 8.742458939157128 4.161201291808532 7.8726439096936085
Sb 7.123676049779058 5.973663224850889 5.297635454101104
Sb 1.7795371410782843 3.0316851832729164 7.881330999261112
Sb 11.271651593008889 6.268689837790678 2.654282522235821
Sb 5.15364273295219 8.865477286632068 4.875614278806042
Sb 2.768863887467127 7.411818263948717 5.621110615242112
Sb 11.404194849820291 4.452589530189199 4.935405368432363
Sb 5.988067500449122 2.0384941286785847 6.609051807104493
Sb 4.696218825429337 4.387833245969815 5.577753086881934
Sb 6.875893576899134 6.992803042180705 2.546588269478852
Sb 8.822302783001227 4.991579387977568 1.7175668874970134
Sb 3.6075790215327976 0.8246254739337976 7.756257888647178
Sb 8.64426911929342 3.658951804337878 4.293886451617079
Sb 0.6854494381140358 4.491486479175032 2.8375272515537064
Sb 2.3634660939792975 6.836133563221837 2.789241461165229
Sb 4.6023117876303985 5.5079321559406 1.5394194470710374
Sb 5.072897117344229 3.1292095387106804 3.045462037687874
Sb 0.876339146833428 2.734998437147201 5.114188920921
Sb 2.3651143819124787 2.139616892562954 2.7191222145600316
