34
Energy = -131.54428953 eV
Sb 9.690704943253001 10.10590032130203 14.501457238322066
Sb 10.922773285131566 12.647107962947686 14.02010448459587
Sb 12.512710039121044 10.208923384992636 14.146584645143552
Sb 7.0131351119133996 13.98943673368006 10.707303934510753
Sb 6.380812401459723 9.461576404011526 11.74798567844423
Sb 8.89413331823794 8.187169691983932 12.490102589176566
Sb 4.534736218382734 7.035606022451783 11.337030509689695
Sb 11.690596868515833 13.011815260437032 11.254160905775823
Sb 5.708426522945798 12.383965670091937 8.689179209412103
Sb 9.109145429889026 12.045817854659632 10.313299505788432
Sb 12.767866309484674 10.323870235926089 11.23524315854614
Sb 8.197924024818777 13.725007796607976 8.120902628790475
Sb 2.480371662674433 8.628376227741043 10.262060526787947
Sb 7.013882609831391 9.800028118042167 9.028602669146077
Sb 10.437753555635698 8.932241878599902 10.180588842466348
Sb 12.029842886927074 6.50017039547775 10.10457828097557
Sb 10.108618856535545 4.470225698373055 9.370183064238262
Sb 13.090169639432592 7.435177078334643 7.622844914630696
Sb 4.606465675956571 7.919050366332629 8.609305533525538
Sb 8.513323119132519 6.970489520632655 7.094013396831966
Sb 7.694492717641785 6.146958895964 9.747427343656629
Sb 3.9473884191758355 4.174249906479079 10.023499844462597
Sb 10.813740588076632 8.625793562799645 6.306194606142676
Sb 6.286268981137207 7.676217316961533 5.325825903096153
Sb 9.742860256486546 4.455827096166983 6.485670537918299
Sb 11.925392620251317 6.043087876435084 5.397493389386029
Sb 6.364064943465577 3.854070065541137 8.496869637317252
Sb 7.669721844884266 9.796675087463184 4.000627173865753
Sb 6.8942900161479015 5.3887301992481085 3.7467296212117205
Sb 4.020610356641562 5.1194804604094 7.433571955603177
Sb 7.538735531284744 9.189357819521655 1.2146276109675276
Sb 7.09695789101752 6.322838147861603 1.0674383155461347
Sb 9.962534087518252 8.677243016064539 2.7751786387352104
Sb 9.50436753040319 5.807448478604682 2.655126919298914
