36
Energy = -140.61733755 eV
Sb 12.346350997247301 5.943616706663295 7.746729919963443
Sb 10.298928575263092 5.683620386335647 9.75370803310557
Sb 11.743151497733708 3.625629742213026 6.138132892804848
Sb 10.906823164184269 8.197743841979818 6.544519076776416
Sb 7.600118006574841 3.6148141439331787 10.783839259629078
Sb 9.888031395299594 8.610915197128369 9.2301752612446
Sb 9.217003056081603 2.6235072573579585 7.10872780978295
Sb 10.971356354088584 5.371374048399254 4.010821528490352
Sb 7.9900141935538755 4.991148345936379 8.184030663478401
Sb 6.376135526752479 5.8310656025275565 12.128054918612694
Sb 8.760141255692082 6.730235160510586 5.271126230563781
Sb 8.238704513685784 11.023357290624448 8.356036127685558
Sb 7.003548245448306 7.926938877255579 10.111947109968302
Sb 6.593888416827076 10.686523316264012 10.647652861362152
Sb 9.193738195615259 8.187529027803102 2.7619722103266025
Sb 9.422788892531427 3.562716593764432 2.4495912205197987
Sb 8.073220256488977 2.0062498672583855 4.534771514383482
Sb 4.718615228041227 3.7786932697904763 10.98824841572417
Sb 5.0170191864061575 7.809506632886556 7.877629475249369
Sb 8.276540498495153 5.924066469350133 1.1841493953551339
Sb 4.434933502502614 4.6508827456853155 8.247337734963804
Sb 5.374053087612975 2.9136486883107686 4.145352552590155
Sb 3.9329755434030247 2.235360006747542 6.5699506090617055
Sb 6.048424870935753 11.684429665264366 6.480090123121481
Sb 4.316017256642481 10.587455656977527 8.512827687145126
Sb 6.530374611282377 9.187550977013048 2.1991001052077643
Sb 5.800308790946685 9.119540471142662 5.080281760112815
Sb 5.520657758468295 6.4778486065368694 1.8923801763367065
Sb 5.3174505272475 5.739714331872213 4.724242901084615
Sb 1.5564018388417826 4.955516381791349 8.237170121271989
Sb 2.18967352390066 7.616365477047644 7.194762299324442
Sb 1.8203250852102135 10.463498031551602 6.8504110567388485
Sb 1.5006142825224087 3.539443063975684 5.704071213651944
Sb 3.0835309757257665 9.940668757871645 4.316485540534651
Sb 2.6921929308290906 5.2285449451995465 3.6336901949630174
Sb 1.3323272695605641 7.616659726671972 4.48636131050756
