37
Energy = -143.82932737 eV
Sb 7.530395166778048 7.0307391527422975 12.11053003580047
Sb 2.8284523455704753 4.9689131041749395 11.788606333444958
Sb 4.616712417379102 7.2901465782891455 11.654310669287744
Sb 9.256969933513641 4.606266223824967 12.072301583059438
Sb 4.0193981446539695 2.7050488365233583 10.40480184831563
Sb 10.224359936978548 9.258019846430875 9.628106778886544
Sb 1.4663809232503726 6.471995892839835 9.788101548083137
Sb 2.531543723406788 2.3626324036377766 7.971522230818162
Sb 9.674213575982868 10.841027434717203 7.282523144176321
Sb 8.589401882740987 2.94835927744872 9.815594096495486
Sb 10.137071695831603 5.323589392298141 9.405121027917422
Sb 4.149628873851796 7.6691724898041365 8.815281690044925
Sb 6.163659490167084 4.4865255191070315 9.828050114195804
Sb 5.654937657410211 10.281850435203392 8.582399892101453
Sb 0.936893527108426 4.706211723199619 7.613696278760344
Sb 8.039995310165798 7.392554360155996 9.294737541391683
Sb 7.2676998375195305 9.48188516890265 6.337327038201178
Sb 11.497133037603625 8.595339066342847 7.113733744765531
Sb 8.12445908097073 4.154720985622642 3.8134531088779906
Sb 3.365445506544203 4.343937025213899 6.058642239781071
Sb 9.460739028183578 6.848279093548509 6.010145772917729
Sb 10.97493634208206 4.863196026647646 4.466015726994158
Sb 3.807707388734739 11.239070214904388 6.540439958700175
Sb 3.0895692715949346 8.676004830658863 5.440105643380839
Sb 4.945981870379848 7.063533347211336 3.9033848841399315
Sb 6.1741405952718225 11.851066448931267 5.066598006586158
Sb 9.190969553545433 2.650211545682108 1.614122374830599
Sb 5.521471848260509 2.4155995988069496 3.7485991388315747
Sb 6.473628337144695 1.5726784800417157 1.176838892011293
Sb 3.2931488052084235 9.131108195506744 2.6196438847987698
Sb 5.064971865360332 4.073491742717785 1.5756826685289504
Sb 8.014085588464868 5.218084087840424 1.0845691592353162
Sb 9.542529919441863 8.63488539380369 3.7189234256765364
Sb 10.61032821978365 6.4020131409319605 2.1323092128060623
Sb 7.013716690078479 8.37390639697943 2.348769380296664
Sb 5.598440867372444 10.898765241728189 2.396241763562871
Sb 5.648881741664291 5.669171297579818 7.278769162296522
