39
Energy = -150.14075303 eV
Sb 6.668616641637736 7.973872902823455 3.101218783928408
Sb 10.138345355903505 6.769030803924657 4.556805261600148
Sb 4.063630244939554 8.752007720790726 3.990919402111802
Sb 6.429844126122954 5.558855089329705 4.6623022848399405
Sb 10.868400322895178 9.784670544966003 7.202950416343338
Sb 3.6595183477730013 5.499186822826041 5.609167296421051
Sb 7.88615215045158 10.038454907392785 4.744012233900981
Sb 12.526943787713114 8.27794252346619 5.286937285259589
Sb 2.173315856368668 6.694786482150343 3.389018480799888
Sb 7.299885281054149 14.22139098965201 6.596130620591884
Sb 10.658590037428379 3.9659966711803607 4.945359477504503
Sb 3.179899493368137 11.370324977557988 3.311130814227614
Sb 3.535975798196335 8.153086068221798 6.815419531694863
Sb 7.314747466178531 6.207717086222656 7.382302578657397
Sb 10.286078423397278 6.997387843788294 7.424086974268649
Sb 0.8694383752539735 8.19656282901926 5.548723569190384
Sb 12.09893524464443 9.429479014567924 9.778464981086671
Sb 13.180363666139229 3.835191853379185 6.31900042576606
Sb 5.81932428801957 12.065141713582504 4.954738331352786
Sb 6.210617049833383 10.168114583475488 7.098063562876163
Sb 8.6012591518468 3.6024449452158125 7.0098832112779395
Sb 6.014379138899608 13.999801829278878 9.015992176672675
Sb 5.320433131216766 4.508210648409029 8.758443874567556
Sb 14.107420305673841 6.4748629447367385 6.9015996267518585
Sb 8.01013424755001 12.114014198627483 8.435945196245816
Sb 4.22675588154208 6.59985660329684 10.424803396590065
Sb 0.8029917447110392 10.895566709870112 4.613196955347485
Sb 13.556341685777458 6.969361672294467 9.682269835903684
Sb 9.868769569174301 3.2064989319835386 9.548329069209199
Sb 9.352271352604545 7.942254760896192 10.414677994478069
Sb 6.2927165224463515 8.595194418076142 10.096406082819797
Sb 5.859569944230294 4.527911984981972 11.570061870149537
Sb 12.630485526090217 2.654393439887555 8.930311696252323
Sb 11.993582427789267 4.788994099388569 10.718860217440604
Sb 8.886919838384829 10.546579008393032 11.664503837130928
Sb 8.401785256250323 5.741976629807801 12.271328101285945
Sb 10.235510990992273 8.500375004992122 13.245157892939329
Sb 6.3100579656597775 9.722335279992492 12.718508223848715
Sb 7.656754907107042 7.646927006819433 14.25972997393166
