37
Energy = -143.61974361 eV
Sb 1.3457200686550197 5.932989230918987 4.078768053493084
Sb 1.76030553828996 5.408596358226143 9.457089862047308
Sb 1.9016548012348236 4.314176770203818 6.413961085104398
Sb 0.07436041079627305 8.215694512821939 5.322682389140768
Sb 3.228605249135207 7.868212280226118 9.68819976211833
Sb 4.260571792330122 7.900391222456729 1.002369354481305
Sb 3.6818670106096905 3.333686792876398 9.986778540683165
Sb 5.334839262542429 7.332568469089701 11.584123727421089
Sb 6.911026907505716 6.811907479332849 0.8220637930037474
Sb 2.1784859957988676 9.478876424661474 6.8355646822922385
Sb 1.9931004662039824 9.907397712408578 3.995446741730804
Sb 4.664904924546029 4.8578580353078635 6.7218419160709
Sb 4.592703744886837 7.818822353081583 7.099242444883685
Sb 4.86086433212199 4.308449941364325 3.8747867116702577
Sb 4.796576434668601 4.602157128413799 12.318960038986999
Sb 3.7268606847688623 7.571987333451771 3.8117928632039795
Sb 7.434607419476898 5.554245520178937 3.417102964144911
Sb 6.544386523256252 9.550163430050878 1.6814913110079188
Sb 8.436655989528097 8.302543328107962 7.861572115886461
Sb 6.955857480166343 6.2607051746029185 9.505127681671244
Sb 7.165251167130122 8.585428975772375 4.370050038118348
Sb 7.91097823631529 10.73132656852794 6.216293492828378
Sb 6.6782340917255345 1.9589598117325397 4.140483460264971
Sb 7.821849550949923 2.6901112362157384 6.641311425509302
Sb 9.330751707360232 5.211458914106194 6.872477956477309
Sb 8.513034871690078 3.14457083945589 2.2533548119300555
Sb 10.042926939239189 9.905739275976112 9.625058723275307
Sb 9.194653753431716 5.609815761063235 11.216679057052346
Sb 11.036325708563814 7.807352473457262 11.304969348954225
Sb 10.648226175007414 2.6067331419950217 6.258278741017296
Sb 11.31368715918534 5.72200024633948 9.25408389951476
Sb 11.520547044066777 8.477208130441761 7.573141972488688
Sb 9.890107374824321 8.409928548843203 3.342089198896342
Sb 10.61194089050446 10.343426593272188 5.409120009513766
Sb 11.092655548712587 6.222260521776424 4.808238465313248
Sb 11.058629101537669 3.551324115248701 3.5608533950154992
Sb 1.986245643234337 4.190925347993782 12.174549964787667
