39
Energy = -150.61911651 eV
Sb 10.150454816626445 11.09607644048637 6.207249847074175
Sb 4.791409717684437 8.835662376774428 7.142447257443161
Sb 9.120177427566473 7.024884886350382 3.4955306874749072
Sb 7.166209138773139 9.06452537763333 4.234656254365466
Sb 8.222614879841323 11.75578981034227 4.150662585559933
Sb 12.353823767568349 9.792407279902076 4.934436020995396
Sb 10.71789119186008 7.551187339010806 5.843808461597104
Sb 3.9185810009929 11.317779661248451 5.996137597112017
Sb 11.04423448276615 13.693309451136903 7.021450861260527
Sb 6.4006187645124495 12.850959258980525 6.16571295051201
Sb 2.4120839270033527 7.351638817063261 6.696830435427518
Sb 8.853790376250943 14.106401428120849 8.620563713689002
Sb 14.138360435348488 9.978713285299387 7.382676166811645
Sb 7.316140968897753 5.7712518594830495 5.514051327810696
Sb 11.672675127678161 4.862882957466328 6.5226019272484725
Sb 5.9044554334373265 7.661297938674072 10.281357407599668
Sb 9.052024017056064 4.007470433911405 7.031430236063244
Sb 12.579784292922625 7.987774517288219 8.945419906484638
Sb 15.038957409558945 11.144686039136133 10.407202266266667
Sb 5.301106529780765 4.1097502465634275 7.824619908506793
Sb 3.453285983127204 10.77598526141668 8.81559897436041
Sb 7.957155379842409 8.237527900479037 6.957096255213903
Sb 9.04607946863495 5.915563415979576 9.360038632217492
Sb 2.765167851307563 5.190012000547095 8.554823688149668
Sb 11.810020102029497 5.17033106534158 9.57146456351553
Sb 6.72146072719523 3.899923314323549 10.17976618684575
Sb 14.525405728541086 8.459566587595015 11.035787609675008
Sb 7.642343494045249 11.498897107133896 8.421314627058765
Sb 12.534353089354179 11.69621226890917 8.987142099968079
Sb 5.583314786274434 12.043535204847995 10.349311395794425
Sb 5.8361347257617355 9.76593660276817 12.21727414434196
Sb 5.439679102458078 5.5425043707001675 12.198256003037534
Sb 10.373530818572737 9.760267054796369 9.539978726901357
Sb 8.914402817765016 6.3406973269310996 12.412174916263284
Sb 8.45373521985455 9.035741616490679 13.36914607289402
Sb 12.64130737839309 8.683146393412438 13.222799233906288
Sb 3.2225029658676028 6.842808419094132 10.853557338094122
Sb 11.67999642060824 6.057838845455421 12.65090522568095
Sb 10.651780406537709 10.526106011202772 12.29176865907412
