39
Energy = -151.02950552 eV
Sb 10.284985486720359 12.035504613852304 3.804530246813142
Sb 10.310515724860714 9.221055029569666 3.2261360598521653
Sb 8.484222500148315 8.71200269177997 5.357300287676348
Sb 7.85817006594356 5.830395063447136 5.465170353628206
Sb 5.0452262977694184 5.5884775000054265 6.119130650118527
Sb 11.623519173309555 8.98693463124388 6.129229217502805
Sb 4.500656655323517 8.196012243785948 7.169078187069985
Sb 12.765433521804571 11.468939176884032 5.2148215529978
Sb 8.670255678267385 12.687881840178738 6.128778493977811
Sb 6.448242183911709 10.850859773318128 5.856427654623856
Sb 8.589006358855036 6.147372014540493 8.250266876035752
Sb 14.180857617340342 8.889667944541035 7.761348969770377
Sb 11.316802643721557 5.700880105609692 7.4680355437928245
Sb 14.208511848676991 11.419884566948246 9.17133641786809
Sb 12.349887803673708 13.015176012941597 7.627289685782737
Sb 5.0690904458726385 3.8232937788932535 8.426935916642911
Sb 12.564458419002943 7.390388571524715 9.568237468628332
Sb 3.102799414119443 7.908068988890911 9.546110068829936
Sb 10.19353394074803 11.163674041456362 8.087903594190195
Sb 7.154705706568442 9.1257403652651 8.213463204928901
Sb 3.8599641146873696 5.3421424307716086 10.547753063808727
Sb 5.082413917381941 13.129205094253294 7.73695139001268
Sb 12.329175366415845 3.4158405802600997 8.996064061846763
Sb 9.235717116681235 9.211400169189115 10.849582470677317
Sb 6.283141371529597 9.230079674568604 11.015406913171148
Sb 6.276276919270547 12.96615085439824 10.378178973313084
Sb 12.606594174217305 11.49648106801843 11.598489770189447
Sb 3.6908836214445504 11.746588903744847 9.800123079523237
Sb 14.183553633818917 5.120976421429171 10.396392393589878
Sb 7.840759382109695 3.514908660295301 9.169795407727031
Sb 12.02675866312304 3.8616716706070315 11.825849628636325
Sb 9.81091530327451 12.008844566779732 10.910240498669683
Sb 12.900208146596952 8.727859755832707 12.211980607290249
Sb 7.778033376168173 4.3761600947820485 11.93535350148971
Sb 5.042230082087085 15.484332659775419 10.979501020536244
Sb 5.914304726612087 6.558433914573525 12.110192620558731
Sb 2.99269785717003 14.557846094536789 9.2782564287769
Sb 10.129499006332455 5.9684507221274385 11.376674078482187
Sb 10.322313313323079 8.146739288262411 13.318005219852358
