39
Energy = -150.52823298 eV
Sb 10.31750857002303 9.14254298934748 2.432042420840928
Sb 7.811922278500324 10.502991560472458 2.9805783596044235
Sb 9.52180940491476 6.533163516187951 3.2814444054471092
Sb 4.815034494038479 10.312474334010327 4.401009708198793
Sb 4.859032312573255 7.564988997280083 5.395003434796863
Sb 11.908422250462106 10.139559213904429 4.588473040393301
Sb 8.06179896618622 12.211599399519509 5.364521263947171
Sb 7.284249707207682 9.379198875239762 5.656268049639589
Sb 6.655051595870347 5.941668225747897 3.7866756082334128
Sb 3.782980408490761 11.788902247741664 6.699362030855986
Sb 10.517249738942198 13.115250856310045 6.285387803682127
Sb 13.300822372956699 7.728511165770934 5.437542053529141
Sb 10.861833866589505 6.239085149350043 5.819156902335224
Sb 5.777783131980633 13.835875788380637 6.213394226455756
Sb 5.500380711086142 3.6386856360451536 7.590613072778199
Sb 7.398665542681705 5.5993913110737115 6.580958473743062
Sb 8.187500908783607 2.836309656589068 7.035036850843784
Sb 5.614852183706579 10.578033707899236 8.549427560153699
Sb 11.130014218039193 8.83593931072731 7.0222477986381815
Sb 5.413537065243792 4.511557957002103 10.36904100489792
Sb 12.98844971301881 7.169057960370996 10.919831520947874
Sb 9.79177342080276 3.6267446843377757 9.32409037770491
Sb 10.240635034096774 6.532859324160758 9.972407523311873
Sb 4.5382079848773405 8.896470155861051 10.605974728897895
Sb 7.0129527693215925 14.415997149156704 8.783607977924657
Sb 8.946776112091086 10.172552947728883 9.479578203859665
Sb 6.399325360315947 7.085195860554901 9.556142871071259
Sb 9.55330649113456 13.016268986287546 8.959005409085266
Sb 7.7587079273915815 3.1036879684474443 11.266049241490188
Sb 11.77458785300631 4.755995735696125 11.861900062615385
Sb 5.441621011891308 12.685565755140018 10.462951543135866
Sb 12.405237806481711 9.066282544867597 12.922443555363916
Sb 10.631399689366225 5.3545246080262485 14.358823889642824
Sb 8.308408425378838 7.408615746953071 11.927924493462498
Sb 11.171873599597056 11.136293044123054 11.262070907616172
Sb 7.079406016705754 10.532712764218472 11.712272258970179
Sb 7.925104226624946 4.952280910195901 13.457027441511496
Sb 9.960732761831515 8.391237664413408 14.249061927634983
Sb 9.374831760254208 11.285713983326035 13.454439689204627
