32
Energy = -124.57796379 eV
Sb 14.645137263217155 4.330956841454121 8.70469089086374
Sb 13.818709785539566 7.0164446910071865 9.424063600611909
Sb 11.648344424943097 6.091291842382465 11.037950400633036
Sb 13.649310239522737 4.73919576019345 5.998157518332761
Sb 13.053145484464295 7.502212224637283 6.668062524424651
Sb 12.150056174562277 3.1812073360331574 7.895155499531611
Sb 10.519171644913838 8.724853655914888 10.883123085020445
Sb 10.338894606893726 11.563869114490846 7.924574779212123
Sb 10.194289769487465 5.120030251171939 8.78553391307723
Sb 11.090334634644215 11.470633711489699 5.155628007065784
Sb 9.007145981272725 9.010371690899184 8.36354888804506
Sb 10.214114333278463 7.27195255438675 6.2987891323400405
Sb 8.148487027912747 8.291582462766623 12.488630768327129
Sb 8.909880101347927 13.167570057459596 5.963664435724422
Sb 9.907626332913495 9.117714924015571 4.026082777707878
Sb 7.236896616887077 10.565886831199961 10.930568372706002
Sb 6.602123871742251 4.022327691283516 11.527249836725112
Sb 7.296292599275681 9.145465669120293 5.2501223550757175
Sb 6.576580120196652 13.25334470480611 11.895167209171309
Sb 4.420773905436736 9.90257303136909 11.165646771661438
Sb 8.597662120153633 2.9083375036928723 9.791599026542835
Sb 6.178643118738097 6.835604156197232 10.945741889945632
Sb 6.474014216937568 11.89785631786049 5.087250891077328
Sb 6.8418010033010646 6.467985791528821 8.140024936463664
Sb 3.808506148949337 12.770689216522012 11.30918976618186
Sb 6.207457224114889 11.217061111114164 7.911590873281388
Sb 6.040020321169873 3.668930970832606 8.713900733788682
Sb 5.328665106267321 8.700273338114654 3.2221733740618252
Sb 5.518467936834838 13.75761433615078 9.227682599865899
Sb 4.066751144655239 7.248005848298137 7.6242033534550995
Sb 3.6295302473597832 9.99942346228827 8.382589789429149
Sb 3.3827603206252856 7.918444668230431 4.903398533847364
