36
Energy = -139.47918515 eV
Sb 13.069280117516717 8.201587112440787 12.894222110587004
Sb 12.202388733558793 10.90581296703009 13.283801310659506
Sb 12.06145140210207 8.451475144384716 5.817011107765861
Sb 11.181645288652513 11.54539294507449 9.070035268497818
Sb 11.05789219426649 9.462710237686913 3.317320355675539
Sb 11.42753988632119 7.298621266059238 10.68258521524429
Sb 10.669229970964345 8.718696520381835 14.406874763572352
Sb 9.883005640326232 10.030661351869249 6.948906921022411
Sb 9.417508923109601 13.43416232553467 7.7987342545925475
Sb 10.675906826393586 5.981344327369984 6.430324199335373
Sb 9.866840591744465 11.30006611262298 11.611451474688232
Sb 10.668894120420177 4.9318705930568045 12.185148769738985
Sb 9.859313426809193 7.265472839498698 1.9186125805736713
Sb 10.232971031269006 5.087846251104675 3.729483423134585
Sb 8.184477592409205 9.269651536898747 3.1614910717493028
Sb 8.22300576125158 14.839128402198105 9.961214315746181
Sb 9.122490286684089 8.53150662717491 11.897984188919146
Sb 10.049114950729207 3.6881412658740382 9.647892723513547
Sb 8.020568996003313 5.138065949515936 11.033153272887798
Sb 8.573979036445891 7.510026264998762 7.696463694393987
Sb 7.268487637084994 4.28011333145799 7.397503449078533
Sb 8.003019279487564 2.2375282561566214 11.091009570555045
Sb 6.571293058554869 12.773847582224379 11.115235519953114
Sb 6.972470480183332 10.57242888918779 9.242772718580884
Sb 6.847791668944286 8.475428058503569 5.596539600213846
Sb 7.519869988846017 4.406975552760845 3.1055658177595453
Sb 6.181775341601884 2.0990906809604644 8.883683464810224
Sb 5.52443714409433 14.408955390887169 8.970773579253358
Sb 6.201037757776345 12.299666063743746 7.0752510706295135
Sb 6.733185805341865 2.5229353559873884 5.1832880692969345
Sb 5.62371239975309 6.3498048443376565 4.083349362983149
Sb 4.71874792481161 4.415871535174792 6.069049671264707
Sb 4.520929610326595 9.484428104471068 10.240005686717854
Sb 3.318601274869376 11.872305284568851 7.0176734613714
Sb 2.7771900728704337 9.226275463344821 7.9717702485163215
Sb 2.51505228639862 11.490665705955044 9.746138980310462
