32
Energy = -124.19505338 eV
Sb 7.96454820378598 7.321800371613242 15.399472656873348
Sb 10.316160544862047 6.753576132605385 13.778081701554996
Sb 7.81053431330757 5.496074290286612 13.193618102402557
Sb 4.871589559810029 2.707489951638802 6.66857686620735
Sb 6.66194035545169 2.2996315376762424 4.473817988791387
Sb 8.034724854805509 4.656388213776873 5.382279019112552
Sb 13.236876346446065 7.8709902064862725 4.173541200789221
Sb 3.7056853027748224 5.3026991121311005 6.237753828241513
Sb 10.046067861897127 9.353187340776055 12.507945321935361
Sb 6.646744683065941 6.927572613243071 10.9245082845379
Sb 2.7212836600861845 2.9846884839366066 4.761788142415942
Sb 10.427279432256075 5.047436623681827 3.751920124499373
Sb 7.68839929032476 9.88849770414662 14.08953595534475
Sb 10.698891603669871 7.561232851372126 5.06843889721123
Sb 5.473933021372689 8.933212676220595 12.592276963767805
Sb 9.084137264927985 8.182423935969164 10.102400481130482
Sb 4.720518823272366 3.449330854039473 2.6297145034305442
Sb 7.770143241139119 5.507016490972609 2.678308152086068
Sb 11.978571537698361 9.313661636877892 7.803376484269264
Sb 13.654329816946923 10.28367976273287 5.652802249320139
Sb 4.070861376890303 6.110355095987943 3.482746075361916
Sb 6.317557191231408 7.936110840714436 6.073268781919445
Sb 10.838803162815076 11.003396279687172 5.780781086371793
Sb 6.345523349916166 7.951604896152559 3.17523040993538
Sb 4.380788731555077 8.839310030673293 8.899793539195075
Sb 5.229789626122216 10.935837983737583 10.537007737416715
Sb 7.879712874569425 10.64883773780912 9.258961292618043
Sb 4.495829707748454 10.18452763037444 6.391959441561103
Sb 12.46314942505568 11.68888344697405 9.479334863257641
Sb 7.3872477110311925 10.596574235482352 6.414948825049299
Sb 9.850133834719381 12.778679698026364 9.81001667219245
Sb 11.31752696573384 13.373168545848259 7.423090674092258
