34
Energy = -131.43180346 eV
Sb 11.798705067333325 6.504894070648228 3.792019096637833
Sb 8.33712623966999 9.890795597947287 4.893707036829181
Sb 9.065512574626707 7.1411754593244545 3.632933185099731
Sb 7.867252265925286 5.942482488807276 5.940300854912415
Sb 9.886186151463342 12.37471202958485 5.282189952811881
Sb 11.769349547194068 3.7369887588245843 4.707719311634382
Sb 11.93567604889 6.898060834857037 6.654177817489146
Sb 9.129898036014678 3.346675892381632 5.847308607739754
Sb 8.238215278185764 14.253389970244227 6.780832501083426
Sb 6.310816844997942 10.450815348320331 7.150004001639408
Sb 12.845520498429698 9.44539493029861 7.649159456381925
Sb 5.397250664649196 6.932120151625133 9.161694556394306
Sb 9.513770641904218 6.598516310336836 8.294657193751863
Sb 5.897176921441581 13.26796217751914 8.171901306410236
Sb 10.042616457801055 10.31499738399238 7.277997454262955
Sb 3.8780639435357496 9.18871754827284 8.123137594242513
Sb 11.288263840332375 6.490581858265963 11.563953403698418
Sb 7.478416705806332 9.009169517078572 9.376984820885184
Sb 12.999320782300424 4.271583606452199 7.309937648932261
Sb 7.030939874985636 14.755679620071609 10.435874552748535
Sb 10.365832147047138 3.7593089085076175 8.490526582458008
Sb 9.673299124680097 14.411856377664517 9.289065421729184
Sb 8.975812779666105 11.783219010718538 10.41142387598934
Sb 5.163998902342841 10.356035712537851 10.550799121262031
Sb 11.290426707476913 9.07824236205171 10.105849252633327
Sb 4.631305150192874 7.7621312803391245 11.845433797928214
Sb 8.570763731384707 5.674992795292712 11.175188634995505
Sb 6.857939459071004 12.514076574792627 12.361755666041537
Sb 10.869117548706726 12.529853111397967 12.516249947202088
Sb 12.683472618976579 10.2178080504259 12.402274093859088
Sb 8.707979495213918 9.45305789988643 12.790383857414982
Sb 8.863861145094354 11.825481588129595 14.46479796066623
Sb 7.096831741152341 7.090812642348288 13.249798437233471
Sb 11.10049629945778 8.289625367004492 13.861178232952595
