37
Energy = -142.88820524 eV
Sb 8.915886256428053 5.497617749492127 1.0290193411369577
Sb 7.116353167407123 7.796496051917245 0.7917488517527281
Sb 7.862773944016162 9.981532710610193 2.5634134464230347
Sb 6.97389879381105 3.8275492098355457 2.4809777829976145
Sb 5.140070168907775 5.802708412081684 1.481487818424575
Sb 10.395428047146137 5.418793919724835 3.5524345769954158
Sb 10.975189537688783 8.116582411277326 4.479874105333585
Sb 3.2550744871176343 9.171919466364196 1.5232835200962318
Sb 7.919102996662834 5.017284430266597 4.965503445157909
Sb 8.212075424971319 8.553388910531439 5.073221882143666
Sb 5.239063174648927 9.403091933518498 3.592892154104703
Sb 2.739348821825171 6.691542681250401 2.9096836096032903
Sb 4.648428745478765 0.9958707676231013 5.681244741772525
Sb 9.039405714891958 2.723692864528596 6.358104742362363
Sb 11.323450050210816 6.617394512772486 6.898672975429742
Sb 3.0327111892212817 11.24632095084726 3.5172098326768464
Sb 8.516122466540759 11.226703929065078 6.142630616340849
Sb 5.560741874667558 11.66855067035047 8.180537733524483
Sb 9.01497894447466 4.830823137595351 8.422049732516886
Sb 6.330969031392378 2.5838751316804336 7.414116419853166
Sb 11.108988823472181 5.826987702176644 10.214319642461659
Sb 2.933039989894958 1.1112052091976046 7.988987215919535
Sb 1.7842963252471777 9.95877586681262 5.828185747773513
Sb 2.8036145206752545 7.274694026675527 5.731433549143501
Sb 10.443858192832305 8.389784069646778 9.001993495722035
Sb 7.545928291453204 8.006761794988982 8.691223084939555
Sb 4.891684771003756 5.657875445893861 8.038041393165864
Sb 5.732340712393364 11.668550670350472 6.730452658806263
Sb 4.18513987144716 9.3127338606129 7.365543367578851
Sb 7.600908564009365 10.953861517662073 8.852334480475303
Sb 8.440562479935716 3.258564253565602 10.860747893913317
Sb 2.557496227760407 3.973205457930896 8.466001204291944
Sb 9.151372613209794 5.591963253458352 12.297074559768951
Sb 3.646985173740982 7.303679492846548 10.088211111119605
Sb 6.742510265145675 7.330483024229278 11.428176607888185
Sb 5.820501388217562 4.711280869274538 10.642243074001755
Sb 2.9140961589904952 4.751698759721503 11.231320791321751
