37
Energy = -143.95039005 eV
Sb 5.37429514949029 6.950878349329188 11.436590759350123
Sb 8.441619640105568 10.555493603799144 8.598517359141349
Sb 7.566031508443289 12.376364707466102 6.482335736248743
Sb 5.802956523004256 10.162779899773081 9.701417343903758
Sb 4.994420719550361 12.293714817706498 7.806612607294748
Sb 11.295093520861258 9.509239693192066 6.287253454485294
Sb 6.844687642452477 5.317974144505033 13.32121365276712
Sb 9.673300981189556 7.997370786728511 8.104716555193939
Sb 3.2029233340973438 5.125231663570507 11.876880296360957
Sb 7.565931465893092 5.345905181371952 10.486029161649272
Sb 6.868207181640597 8.79300452216885 4.3723110544038155
Sb 11.069312779094954 9.29527403480532 3.4054229773482994
Sb 6.976780275374447 11.619928060808334 3.7888115008316756
Sb 12.742050612709255 7.465403130035334 4.910035584567101
Sb 3.543003789083611 10.163537638555308 6.525217340162843
Sb 5.206272480211635 8.104828214094114 7.71426759893687
Sb 2.545792960679154 6.902806981391085 8.128408862664894
Sb 8.231950680096812 6.376059610594188 6.183191275599793
Sb 4.441331058941968 10.223339221712571 3.7926497628748095
Sb 8.533451318935072 3.7343645860036263 7.4744844249219184
Sb 2.4473564664078893 4.233602373926297 9.263396525603952
Sb 10.498051801380372 5.5331561589580724 4.559276151671959
Sb 6.593006118823986 2.643087401608525 10.51735110820374
Sb 4.989023329284964 3.0938999227383355 12.861048827869075
Sb 3.5813491318041644 6.0651941347013105 5.51877958029437
Sb 9.975995034375531 6.9636613611867535 2.0815609030848172
Sb 6.120855377165304 5.269761884851095 3.41619443655995
Sb 7.15258908569874 7.480832046182535 1.810381364303444
Sb 2.089834596385339 7.373054557225418 3.361488219507197
Sb 5.835236460901527 3.5997523373955715 6.467165633665676
Sb 4.4709137568495665 2.253117676515483 8.645857652064134
Sb 3.5831301489366236 5.412785819401333 1.8996114418751784
Sb 8.359681003860631 1.1782434332412288 3.61489066913351
Sb 1.708161574086262 4.57337843948834 3.9142999623095327
Sb 6.378864146337132 2.687217815926297 2.1312510721596327
Sb 5.68644069941187 1.3402920412835577 4.619981331315227
Sb 10.11009764643711 2.485463747761562 5.4210978116734685
