30
Energy = -117.53222934 eV
Sb 7.883888413548536 2.6432166427451977 3.307908283024238
Sb 10.350402569670397 4.0536520938037945 3.765504674510271
Sb 9.808423429345492 3.8117209629928683 6.690301176573162
Sb 7.011411712142241 3.6597847124048872 5.932227084577501
Sb 7.8937366982009305 6.8625865646808935 1.2034458070182272
Sb 5.906524847993768 1.1138358996273865 6.864504449004549
Sb 6.4798723662598166 4.375802384737943 1.4268852597892963
Sb 9.109236811048705 6.60268655711906 7.181058558553327
Sb 8.825942626938456 6.451433825975506 3.8972171830692797
Sb 10.249684842381374 7.742165344928954 9.578004089173428
Sb 9.451185028329814 10.305473153013661 5.689998559795541
Sb 7.364138662890633 4.548334913785364 9.37983969379239
Sb 10.939220871299895 7.885668365501537 5.241001736014505
Sb 3.153650081882994 1.775885485542703 6.306012823507465
Sb 5.254263292539965 6.788705900707953 2.4477952906123934
Sb 3.7778917426230194 4.568835270013552 5.647423568194068
Sb 6.267583925673828 8.154597162919893 8.677950111307462
Sb 4.186814982698442 2.0249407631414766 8.99088554081438
Sb 4.683244408242826 4.808318986045196 8.446661517676354
Sb 5.751551315283933 7.134320993922067 5.350139955874314
Sb 9.711609868358458 10.43124744604399 8.591546326310471
Sb 7.7397320314528475 6.984797966711883 10.863762868471762
Sb 1.570086731251823 6.286142313195979 6.617403912532046
Sb 6.777382880947203 9.808252747332164 4.792349909871971
Sb 2.3763625835670856 6.309814644760729 9.39998322531555
Sb 3.714389041231699 8.811400598473403 9.851326201593247
Sb 3.0458131340273753 8.374354512822151 5.307563707098765
Sb 6.952722103534704 10.842040231464054 9.311467313651917
Sb 5.671769447079497 11.544900717049162 6.805243431552784
Sb 3.0837990767414265 10.287418365722434 7.42692326790619
