36
Energy = -140.68680959 eV
Sb 11.425233641335701 9.022551018231816 6.874725986934501
Sb 11.284699070299721 4.110705969168246 6.857338816663908
Sb 10.346395729647163 9.223150988356359 4.170675420389839
Sb 8.773941851857913 11.675523468403679 4.106173319025913
Sb 10.747381117266949 4.296328270745368 4.010842370942731
Sb 10.168017747326948 6.472706376487136 10.025595081149246
Sb 9.861041578189623 6.582831492256771 7.146092236741355
Sb 8.156708168429526 12.29789170566837 6.8402427573899285
Sb 8.259821140392607 5.368162767874759 3.1076077893996827
Sb 9.21144412977444 2.7767773700204397 8.3778875017065
Sb 8.76315782888989 9.610354511514458 7.767538179528901
Sb 6.973447190293193 9.785816026546833 2.7657804384320737
Sb 9.05130449764894 9.097963326130554 10.608911024319196
Sb 7.896360912287746 4.666861274073619 10.182194222270168
Sb 7.86843714711328 7.798064707298417 4.6746570291795475
Sb 10.005448204848543 1.6925609866101512 3.0585960271067423
Sb 6.240106759109444 3.813258354782996 4.3974663320679825
Sb 7.051517842605993 2.1215582509094073 6.6254030871142175
Sb 8.43815159518607 0.2288556150876628 4.962186893235949
Sb 5.823701704817365 10.48785477012483 6.569021576615926
Sb 5.139962724291334 10.511019340515487 9.417809160210265
Sb 7.139511002800586 1.5932656575455384 2.743162914173999
Sb 6.257012412742606 6.435394733017373 8.529262841587537
Sb 6.291558928697866 8.23807547089713 10.780662591202267
Sb 4.596622517937592 7.358948899075935 5.816173498227204
Sb 4.299677650431309 8.623781043344575 3.2606836452043204
Sb 3.019671632493028 11.432218797874283 6.447700125101816
Sb 4.000422216487876 2.869209683965784 8.759535314572062
Sb 3.1227895999660817 9.055186132190595 7.973836842809672
Sb 1.921499086025222 9.930103776098061 4.222326557291579
Sb 3.1803672952642525 2.4120912442514095 6.047802873751463
Sb 3.5349966211506123 5.60560834324445 9.458363586152524
Sb 1.836433250143716 7.060868124896773 4.996979815531053
Sb 1.4121279609746893 1.7052754161911217 8.229575388929447
Sb 1.2220444592783446 6.248506836836627 7.788913886867732
Sb 0.678984783993558 3.7906692497628978 6.398274868172827
