30
Energy = -115.96154918 eV
Sb 3.202823417950072 9.138404925544195 8.358270646254683
Sb 7.052848188805295 4.614179275400573 3.662038904026203
Sb 10.458036198617904 9.98272290344225 8.076482718119006
Sb 8.142253145680732 2.750700633505679 7.65958038579522
Sb 11.834666739241348 7.570910290249091 4.893730644997704
Sb 4.482311972758367 5.03576743482576 9.9164752600778
Sb 5.9510867766169095 8.171158647555107 5.622674020573034
Sb 9.605265828930188 9.150487337197525 3.91334433098464
Sb 11.191919824730336 6.404055418370132 9.002510984113448
Sb 3.5659919914682137 7.422586899795491 4.2199482604634415
Sb 5.797861303652433 10.814370063077925 4.562083894647508
Sb 10.23799477005345 6.924843173225045 11.75988089335222
Sb 6.554342587895345 4.847911063702873 6.490149743300394
Sb 7.061112897986146 11.720109674264437 8.264776004963746
Sb 6.961735455637288 10.133306599169929 10.615683705655409
Sb 4.290850608036666 3.1700549802786253 5.9219164394013415
Sb 10.890112909235148 3.7944106683642165 7.596085253124647
Sb 9.858688900930368 9.717496606388734 10.905372396778075
Sb 4.1088294007179575 4.671233900251191 3.469145381186591
Sb 4.475760208260891 11.463059403755778 7.095625911427324
Sb 9.827807898767302 5.608041499440882 5.660651460275906
Sb 2.592415693762594 4.556049904222536 7.780847748649632
Sb 8.501202708590991 11.168897686038575 5.745351502079115
Sb 4.992262677850537 7.9279272020114755 10.274585257599194
Sb 12.786142256387715 8.47560713924091 7.495782177537133
Sb 7.293149760087705 7.500505026428457 3.1922919828213403
Sb 2.0111269506789506 7.141598730738045 6.624756381093299
Sb 6.994802871207463 3.5652195998475915 10.19579799277427
Sb 7.754630717435093 6.369060515815264 10.494776278622265
Sb 8.802191910421683 7.469549370246989 7.809610011701067
