38
Energy = -147.61938213 eV
Sb 12.102694469782993 9.289612898561634 6.283133205991282
Sb 10.286058533503365 9.408008400654404 4.036868887038245
Sb 10.206723079973836 7.2029989530751175 7.034140325337124
Sb 10.908096059949074 6.632079333750082 3.912696132559381
Sb 9.252884811188116 6.25393916953123 1.601241611400045
Sb 10.7630779654064 11.00132929890334 8.188330849307647
Sb 8.266710209902998 11.369651051894316 6.8016939935378
Sb 10.36314224029885 5.295204995887886 11.017891054669477
Sb 5.845737629562179 3.55113820017645 1.0747683826273557
Sb 8.229290809268916 3.816583474042139 2.6386093926587577
Sb 7.003456118968832 8.052534829025205 1.618274015324358
Sb 8.010516309662615 8.716245998633163 5.760048910136029
Sb 10.307556273336024 8.585379511925202 9.696613097386294
Sb 11.146785029666528 4.680896362145674 8.335138286162914
Sb 9.879117353525125 2.3775563582443615 10.81752226442875
Sb 4.805768459635853 2.9102932517784534 3.725709131825731
Sb 4.822375917014374 6.262053649016275 0.9859146959899828
Sb 6.997181260821213 11.586743044388777 9.367619937926737
Sb 4.539341218098458 9.846678729663823 6.17192542213704
Sb 7.0223290051486025 4.0118031983415285 8.395283347004622
Sb 4.021075478538277 11.812745904224187 4.118209539511135
Sb 5.160012033346155 7.205699315972077 3.6759709094755317
Sb 9.415366703465766 2.4108016601810442 7.952002246205536
Sb 7.596722672015783 9.074933474084053 10.601038959113104
Sb 6.662813252878134 4.622767895924976 4.902572952375517
Sb 6.470563069040809 7.318667005662439 8.608266717099417
Sb 7.693975495355094 4.242335444488922 11.217510046930986
Sb 3.384288473752673 9.425208162338361 2.6604574566391994
Sb 5.117892357812008 6.56665454556927 11.113982510453924
Sb 4.2077233660715905 11.037576148498127 8.823297642074921
Sb 2.9640536447940917 4.550370141484509 5.9611504423613795
Sb 5.013652009912791 2.218239177233978 9.434235638074474
Sb 1.8995558950081977 10.102642201672893 5.009646318394443
Sb 3.7669643970383975 8.161362092751068 9.035846190306385
Sb 1.752469979087237 5.277040215418313 8.549910241557038
Sb 3.6721558103606675 1.9063125340834612 6.91140629583941
Sb 3.3669507715139497 4.2592815518576606 10.664545302789188
Sb 0.9744629088818145 2.856172892503345 7.196068720936518
