34
Energy = -131.73636889 eV
Sb 4.812479869642029 8.035614868403592 1.3199041803765441
Sb 9.053458080329012 9.3815856961561 1.6439011321031454
Sb 4.355920206503498 6.656595377109052 3.8113029244595413
Sb 6.403647684060584 5.711663512971162 2.056789385019607
Sb 6.533254985686135 9.769269355941567 2.978637201534071
Sb 10.748219349153995 10.404270970875011 3.8202397139857927
Sb 2.4204301498095595 4.757972993141066 4.825488808787889
Sb 5.909196006047365 2.4196509145262373 4.576412786955716
Sb 9.493125506089328 12.818520898000621 4.81130220220912
Sb 3.3452369550169627 2.426507909785343 3.2946052531634407
Sb 7.7507069890882985 10.93933009602624 6.09313557539521
Sb 4.569164947780566 8.635060749034567 5.937836322332668
Sb 8.19870151481219 7.456278355752421 3.576914618463788
Sb 4.418910012944091 3.9556118813666665 6.689667564716943
Sb 9.826179268391328 8.960442991247929 6.237161088280647
Sb 3.777183276950739 1.0733440147113855 5.777280600772285
Sb 11.507777474608345 13.082597072972666 6.857217332411969
Sb 7.591169205555408 8.280258315545801 11.397316136875723
Sb 11.926596529435269 10.352345334893634 7.653917528374636
Sb 6.511804061657539 7.421558118534724 7.697816064114167
Sb 6.5271015486093225 5.592123075379711 11.25018398779439
Sb 3.6833713748018653 6.858265638402311 7.95206838370467
Sb 7.649095294509869 11.983628621485185 8.737114989437138
Sb 9.071766448383464 4.903289861093359 10.048848297170181
Sb 5.985500736992944 9.679615887268875 9.453174934275262
Sb 9.915654450142515 7.680690860182492 9.835700653610443
Sb 10.452259584191333 12.04061854261063 9.406524096991616
Sb 7.574206300068875 4.849351978801616 13.901940127928503
Sb 10.073788928013446 4.002602262400948 12.640621292084822
Sb 8.366690423229928 9.599965771135405 13.87275929180676
Sb 11.973504535248557 8.123184091221992 11.776045213945634
Sb 10.742975873256722 10.474035858594434 12.738848803385395
Sb 9.006167472142499 7.076058982179134 15.103596300886187
Sb 11.453851303779858 6.227185489181188 13.854823553579802
