34
Energy = -131.76090118 eV
Sb 9.39603560325477 14.737194646620353 11.342391859222701
Sb 9.750515932109481 8.89632977017485 12.643057634476005
Sb 11.711437633736024 13.104305947665656 11.793903291867842
Sb 11.736096569515512 7.0812522322933775 11.534047165369952
Sb 11.576510684552362 14.736619545493266 9.425209304040138
Sb 13.205708882771829 6.647268076589358 7.352921958340947
Sb 10.387105230377207 10.84158891946419 10.553298676537958
Sb 7.331827358880846 8.220831318511854 11.202677145836981
Sb 6.923033623752672 6.063087372674279 13.029332639991578
Sb 12.03747334744299 4.23004628110222 8.390255571941834
Sb 9.959918869172743 5.163226968250319 10.239164364612629
Sb 8.081851519999425 12.537555124768645 9.884375568603492
Sb 9.5086506899628 13.696109670707743 7.672165519490768
Sb 11.517326109631782 8.375804069397029 8.934050250997254
Sb 12.827389532680735 10.676554220711557 7.663666186664779
Sb 10.920046137996865 7.260881693994511 5.703508509099161
Sb 8.248180844986228 6.9828760151054015 8.770815479294628
Sb 5.978001500476766 5.13067250048951 8.829485778160796
Sb 11.989173633311792 9.904142850220028 4.977698857091074
Sb 10.096197351166603 10.890773082811169 6.994734175297549
Sb 3.1928165638726056 11.079577656254843 8.256939212353261
Sb 4.037980621889135 7.213715520025706 9.409864391568927
Sb 4.720353182564406 8.894508517339164 7.182949454879085
Sb 10.98840371576153 3.2676054192694353 5.818717841303261
Sb 0.994844979723129 9.923985160780195 9.698577389855451
Sb 5.793451017603818 4.164328879802625 11.530347619483686
Sb 11.807670537741945 5.232181731272514 3.8678685754721513
Sb 7.468864388882581 6.03421365040786 4.527015451621656
Sb 8.17915132007752 3.739916085924231 6.097300619123405
Sb 2.7713061799068197 6.853802258708722 6.852567936279095
Sb 9.337695001200954 5.396132319534522 2.41833880799229
Sb 0.6011738453718362 10.929105786408256 7.031849526344429
Sb 0.30690854850133475 8.127284842307176 7.57115775028716
Sb 7.46396681701105 3.4101489160646463 3.328827279551943
