31
Energy = -121.3316584 eV
Sb 12.820650736291022 6.499034846814053 3.5860977553050706
Sb 12.055210737353478 4.469500868380705 5.483109256938493
Sb 10.980193541829857 4.426463624418264 2.788200726958301
Sb 10.637955952118558 8.037582732402273 6.8301659308529965
Sb 11.214410425686895 8.816968384677425 4.140093343906028
Sb 9.38735194867272 6.572844058408263 10.293396951700744
Sb 8.044968261459088 4.420288802284484 11.677744345040194
Sb 8.01537306731607 8.393873918105118 12.123437010554012
Sb 6.976045776229616 3.1097109137164884 9.341151336530634
Sb 9.509640710242405 5.456716990608562 6.47555684146397
Sb 8.24848128294033 9.629489668171058 7.144427958376934
Sb 8.435647710384833 5.433085116334517 3.78639600000152
Sb 9.062665796216526 7.898372838462776 2.499690935922054
Sb 7.124969915831446 8.13986305583693 9.378405791035346
Sb 6.076418721056728 6.304037900388975 12.622442787215311
Sb 5.898346256233434 5.3463255661164855 7.916534337997102
Sb 4.0166916509378705 3.3270292675452238 6.978423081754445
Sb 4.270510907142843 2.1422271182121007 9.665871001136775
Sb 6.470946949362317 7.932749616602107 5.5702168276097535
Sb 4.953060703951052 5.547497835033797 2.3533944571430756
Sb 2.5713338850795022 4.287983640431979 10.634431240420463
Sb 5.3212366057013165 8.238543983728693 1.3993510725880036
Sb 6.933776456405559 9.68130991876909 3.314148298046211
Sb 4.3772052497227385 6.462191566129554 10.112525207292292
Sb 2.1799865213132166 6.109368137924038 1.6118709131490627
Sb 1.7458009692173029 4.8672542377029036 7.861143767462196
Sb 4.13871774859947 9.33182289624087 6.577010911124755
Sb 2.3581379829487816 7.72001622436301 8.174295791062152
Sb 2.6166500089423135 8.96520380298683 1.9693882164824692
Sb 2.932502143008072 5.611442933490764 4.393887378963687
Sb 2.1251113778071775 8.321199535714154 4.7971905259671
