39
Energy = -151.82168193 eV
Sb 8.220671505006145 6.876931634832984 2.72206153669288
Sb 6.712927992748253 5.944210553046002 5.120115958238775
Sb 5.88937662239456 11.073215697874979 3.2296237826001724
Sb 8.458636035256307 9.789146612145524 2.8808061769341244
Sb 10.95808163179342 7.582232044171248 3.416267842384023
Sb 5.282020395703511 8.639206716984035 4.683757731661231
Sb 11.728111293277191 5.004945987721631 4.477732566514551
Sb 7.920179638413225 3.6201273910371365 6.577728326518095
Sb 11.275982712917918 11.183443844321447 5.529910841412174
Sb 2.6432153971777654 7.775725752035984 5.488205257575746
Sb 6.510933439723461 12.648165646863673 5.58322531241498
Sb 12.819629466280059 8.441215747045435 7.000342065411921
Sb 10.151355659239597 5.360511061512093 6.828154226248546
Sb 6.347653738403943 10.15854978331532 7.089256863284911
Sb 6.406308296999358 7.212212289677236 8.101469951177716
Sb 13.801485767090938 5.812498329677498 6.363202067788134
Sb 9.393252156182571 8.959844397648917 5.497661342506
Sb 10.43127826078785 8.163689753859053 8.693233961129302
Sb 9.28028240235884 13.364246428016015 5.6347706679888505
Sb 7.704214302796185 4.879508221633992 9.206475433269432
Sb 12.3724132460175 4.317973233588607 8.393243831659403
Sb 12.039484808281276 12.187854373291549 8.145482330603873
Sb 3.6700339394804558 6.316451595866643 7.813124279794939
Sb 5.5680412870568246 3.8072347009595684 10.86336756373975
Sb 3.9279637901131195 10.922575542873464 8.486515886119454
Sb 9.399962374134315 13.365241293503423 8.542640767797627
Sb 12.041777379315429 6.413386768656457 10.386568994753965
Sb 6.462260482566882 8.095841187680904 10.943939449207523
Sb 2.1180524668984764 8.712313250223811 8.137442238123926
Sb 14.010075730411664 8.42429375037166 9.63600312649574
Sb 11.75998881257909 10.231078801094117 10.26663874246519
Sb 4.302955838630971 6.2827478704368565 11.577009408228925
Sb 7.655000893440208 3.6253497941673736 12.82117786053282
Sb 8.197037171020916 10.911621547335935 9.469414013427514
Sb 6.350446563758382 12.470554140184307 10.843738294301986
Sb 5.023723777986633 6.489131148533896 14.358441341907595
Sb 7.874310540780127 6.137669975845323 14.200613972380923
Sb 4.567299814281703 10.248873050449705 11.206293445559032
Sb 6.217802535248359 4.04440824806998 15.278570707701483
