33
Energy = -127.09835491 eV
Sb 7.601825908476999 10.712225390971282 7.563730920089904
Sb 3.6388692891803487 10.338869490188491 5.555045666531878
Sb 10.833713144935285 3.39836684976569 8.276959594698157
Sb 8.498574651046114 1.6990830246282784 8.335937951177131
Sb 3.252484158918513 1.0519032747942516 2.263818904373835
Sb 0.3367053925337757 3.818628144301669 7.319571557085014
Sb 10.50829174820781 3.7448351327710903 5.402552671182942
Sb 9.625920773809518 2.029682108302321 2.079589059313578
Sb 1.1934494998372782 1.6577554743269451 5.542651862881195
Sb 3.578900472517793 9.689857873270126 8.459299926847535
Sb 7.282483060148088 7.985631744104591 3.622449245540217
Sb 6.403916469388229 8.22998766237471 8.31706659586013
Sb 3.6964663272146008 9.460872239743658 2.49858888034048
Sb 9.32151343850399 1.1333295410611068 5.53675576475833
Sb 4.023403973552539 1.7641966128108002 5.213927312878619
Sb 2.8211853397392628 3.86626985286299 1.706058971862084
Sb 9.12545882972214 5.6278677851958205 9.112469764163938
Sb 7.745945508592278 3.999370014587645 2.5399966799732603
Sb 2.8261140335552155 4.991699397734841 8.189448880481185
Sb 9.0869194476988 7.3354867729955195 6.786139663575221
Sb 2.8467846742525116 6.256220497317893 5.632901240371336
Sb 7.26460581929139 1.3179836130774303 3.4956145922350657
Sb 3.973152128258242 2.337615013616607 8.220301864126531
Sb 6.918072707631028 4.047830371025025 8.042612614478758
Sb 5.059488294681642 6.965098097425105 2.0826453961141893
Sb 4.446243348634784 4.511166140730266 4.003135657099939
Sb 7.933454297380624 5.011809850731959 5.47107059729499
Sb 5.223008069370204 7.9749011861087435 5.7586194423965384
Sb 6.29416209486934 10.539690303576762 2.7116992460791054
Sb 5.12788870657729 12.021027617184826 8.427525740745612
Sb 6.042027929942824 11.946440690352135 5.46574899578805
Sb 0.7127618506921016 2.108655114764918 2.569503544997664
Sb 1.2949175656909064 1.415688774534067 8.573069535011415
