33
Energy = -129.36592701 eV
Sb 7.2498192908168075 1.7556307523784809 8.093672527068517
Sb 10.858802429364102 3.516895081529581 9.97864443732809
Sb 8.776469040121526 2.8990835325811206 5.910258206069969
Sb 10.98912582392682 4.276704719309044 7.2073560594377994
Sb 8.029692444984066 3.360488529311677 10.358829746595806
Sb 4.501339837042807 2.732753145123276 8.131054071227547
Sb 3.2968276952733335 2.8008798915904314 5.4702207857928515
Sb 5.586986969610876 3.323731504928527 3.8174821644212367
Sb 10.672103392969685 6.099144514382897 11.312025736435064
Sb 7.235463413412243 5.271952786634093 5.1615051880687295
Sb 9.024065031595686 5.262202179516959 2.883572372580922
Sb 9.473548029268825 6.6784977536469725 7.351953977689156
Sb 7.331054499648661 5.81506408270273 9.104525783579543
Sb 11.155443258474273 8.001389761672684 9.24259165769627
Sb 7.610707049925275 7.382534959608013 11.504654599720107
Sb 4.487394102811415 5.599286096384446 7.6871514370789535
Sb 1.807961012252153 5.01948630998636 6.648812013430515
Sb 3.324700461618602 7.048994607703665 9.928576659865954
Sb 7.3196505033747785 4.670219738148265 0.615749036579177
Sb 9.172533857601271 8.064019607908323 2.1656884386776425
Sb 4.654865586648978 4.923715765033091 1.6117292514215695
Sb 5.227508654627741 9.061330646635197 10.657333512076221
Sb 8.86145665904306 9.602753976956103 10.159057067343465
Sb 6.717293067108699 9.076464075492868 8.20359698482608
Sb 8.007436485185657 7.3013538129075854 11.504654599720107
Sb 4.899962120134812 7.93035128928465 5.110068489057553
Sb 1.8431517725743485 8.798440032389607 8.11060368966774
Sb 2.0341653259734778 7.64761494666116 5.466528948529503
Sb 6.624689500733658 9.06971650284281 1.341941688118473
Sb 4.295687304016648 7.712008611047201 2.2734473917815365
Sb 5.880498844074582 11.671294360236992 7.2834916098346
Sb 3.0154746966474724 11.311231800925714 7.260504766301884
Sb 4.5341218391390194 10.81476462454155 4.8583652614260275
