38
Energy = -147.15275751 eV
Sb 9.230977026606235 6.672063855451106 5.755420955825825
Sb 11.86793036467559 9.529623208159428 6.662234548195351
Sb 11.209588535779746 6.960543688772265 7.826010984631942
Sb 9.944663524171807 3.1354317758902503 5.253084126365328
Sb 10.525234600576354 2.811631618594652 9.801445480793669
Sb 10.336727489791416 8.938218970911349 4.265935778755374
Sb 8.554920113338056 5.019445056296403 2.648021475278735
Sb 6.855380523168173 8.572059496212116 3.9819345653873537
Sb 9.18045211348613 1.576606771424203 7.579109806054518
Sb 7.611976009471834 8.788601128039451 7.463264633526861
Sb 9.016438647189064 0.9113382069917031 3.5135482460319234
Sb 9.58974788304662 8.794205924165858 9.490957095901567
Sb 9.293456269671557 10.816596725698163 6.204406929760968
Sb 6.668751801400741 6.9381244790294385 1.5780872120329204
Sb 6.2438113984881785 11.034501938923126 2.6036789128907833
Sb 7.736075716816645 2.4331815112295168 1.4462812558966482
Sb 8.965257736231974 5.05268957198865 10.701738505009676
Sb 6.113959211503856 12.615692506827795 5.006347558664079
Sb 7.923299745871997 2.349526727613484 11.000768794476253
Sb 4.2468869123923225 7.199317377982534 3.0948761477786393
Sb 7.2503486381141355 4.135306829550594 5.04354327090669
Sb 3.713573590068594 12.033945922510114 3.5213921536735517
Sb 3.9925641268011893 4.7199857785917345 4.6343665704732535
Sb 7.04991776277702 5.522319600779869 8.598815366118687
Sb 6.260650821968639 10.462556532460972 9.6347210860375
Sb 4.508029595121554 8.191691232110099 6.07685140848748
Sb 7.582022918537319 8.99565624856272 11.678701844570341
Sb 6.248120265355144 1.6435259336686359 3.7537339715622586
Sb 5.050905803572788 5.059040449423882 10.66907403702711
Sb 6.62096198203385 2.6339779160762062 8.366162403594124
Sb 5.8706000301710155 6.931796077110823 12.722238410598406
Sb 1.6247058925986193 8.256697798120266 5.466003177875897
Sb 1.2506621504465274 5.361283400494097 5.265559642797532
Sb 3.1795257749395343 4.857306224177935 7.432247525238819
Sb 3.9911208426974323 11.068471454387401 6.231177790093148
Sb 3.3412977965041346 7.292355224803484 11.442099086026595
Sb 3.5643102676568432 9.471069774426118 9.591069908199996
Sb 1.9755889752307534 7.404055920815742 8.185532191732621
