30
Energy = -116.64511377 eV
Sb 6.348634968332388 2.887074457296911 8.158061183748448
Sb 12.00033074123806 5.298942804551611 3.8753492251142925
Sb 9.533711036286206 5.983866233498019 2.456024469880113
Sb 5.4919660418243375 2.197315409475348 10.870293529191786
Sb 7.813214503868248 3.797520422954524 10.440828712430303
Sb 11.836092679010303 7.650225411211057 2.2785507507843024
Sb 3.844381437550291 4.316965975808444 7.934957901479993
Sb 10.767628436539649 6.069718425009371 6.383001081609513
Sb 8.315275222802851 6.6328639226043 5.0216787425916465
Sb 3.307902148215326 4.107215854344235 10.751760396316584
Sb 7.051220107975771 7.666318486955665 8.463642854185153
Sb 7.2050000322267325 6.515895705357474 11.092720815077444
Sb 4.392803870165658 7.123144118622014 7.529600401630596
Sb 11.454527104217803 9.890769932410153 4.024732875265505
Sb 11.472848505953603 8.880967174218881 6.696940695677956
Sb 8.95003945820912 9.472272900644864 5.368724427463696
Sb 12.216980512259312 11.218311396821179 13.647855879037078
Sb 4.454785794037873 6.456460789782119 11.89815718239572
Sb 3.2849776437752114 8.220529550309813 9.942436184890044
Sb 9.862904098860476 10.43710352767255 12.172425042053167
Sb 4.849872460400581 10.941319626082063 7.190405756161176
Sb 12.4457912865069 10.284303680492279 10.92495362272059
Sb 5.665106395636728 9.901566203419254 9.724172605313498
Sb 10.196765231761313 13.16445615203768 13.020689563985755
Sb 12.920046207462619 12.695575872507968 9.499197921445452
Sb 8.757418152175173 11.406741265785396 8.929351997873779
Sb 7.2705336632295685 12.036145470295985 6.528959040683731
Sb 11.23835451797052 14.59829317520245 10.79620074347429
Sb 9.127506874310203 14.253515591813844 8.796095842775916
Sb 10.92582665738733 12.445448013133614 7.3738823143639545
