36
Energy = -139.28057482 eV
Sb 10.514152225891213 9.709380426905355 13.4880485091835
Sb 12.002847808410218 6.837384833697746 8.537232377980951
Sb 11.055469966919729 7.191774185955937 12.023185108181705
Sb 11.82196252818392 4.277975913025298 10.051724868892212
Sb 10.497947792838762 10.80570467445926 10.836920158414033
Sb 9.731410472345614 8.202120009242776 9.644596651115199
Sb 9.700109229809916 4.629493687345225 11.993005379065368
Sb 10.75401881837133 5.418343379004368 6.325707564857766
Sb 8.054457086729826 10.633225324677694 12.344181813654256
Sb 9.735759106068649 3.41988380144721 8.225448125369862
Sb 7.286793223416592 7.831163463072183 12.099067700360177
Sb 11.199500150394092 8.734534989881164 5.17313248525913
Sb 9.388575676162885 10.20274546028966 6.946830352656978
Sb 8.054124449012711 5.292357948345326 9.683489130267565
Sb 8.011993362264468 6.469480412976304 6.283152578660019
Sb 9.470246779618947 12.783188625577415 5.347239283112478
Sb 8.301937607452587 8.840269695685143 4.652398837307665
Sb 11.082814109058985 11.103047757695956 3.452710409280075
Sb 7.562287392457199 4.497873619589101 4.25643522393293
Sb 8.57862679659005 14.410290471680122 7.739265781642422
Sb 5.084453552358357 6.331333769281055 15.336977541144703
Sb 4.631406337207121 8.129703170974267 11.047193092803631
Sb 12.817943897353803 13.323645609362151 2.712424073906686
Sb 5.106224027183787 8.725828259788129 13.827769109640824
Sb 4.748192069218299 4.268684557307905 13.67446232207344
Sb 6.666196092930048 13.392010551327502 5.862707772905641
Sb 10.377427807734295 14.725161263566765 3.1237234700609715
Sb 7.195144670018507 12.071050289749417 8.31453662066886
Sb 5.637376843905719 3.67834678585664 9.763755231827236
Sb 3.81137335447552 5.358773871518291 11.243667345240057
Sb 10.53760663610406 12.838904430031711 1.0599272533625472
Sb 5.265522018319277 7.30880569301156 7.269134221036692
Sb 5.163622517128752 3.2681187601358004 5.212303677234896
Sb 4.834873319839292 7.876531453637225 4.621184700591533
Sb 5.005156364056543 5.364724322650389 3.2518183318365854
Sb 4.182785926032901 4.700867202121898 7.48177098188569
