34
Energy = -133.09163873 eV
Sb 4.378397733321737 11.310725126941238 7.016134190228962
Sb 5.1248734085450325 11.160028539306351 9.807727350197093
Sb 8.463453732441335 11.211624952674965 6.346663278916432
Sb 9.592035269417545 9.867382527134069 8.672003996171732
Sb 2.80557782045263 9.788296229871046 8.845891309619308
Sb 10.095787377092032 10.279227298871149 4.136453447475068
Sb 6.311323404130353 9.285605411763596 6.33585759926588
Sb 7.177814490288241 9.154268617806387 10.268073140303217
Sb 8.852888275459675 5.7530561146648145 10.471005855881149
Sb 11.099759100909687 5.6620783257071325 8.668527246931076
Sb 11.851257377274449 8.317314213985354 5.40296508662537
Sb 6.730999489977615 6.761033303601244 8.65606857180184
Sb 9.612750112361413 7.496264414387038 7.009322322649332
Sb 3.09717286027246 6.836425804729826 8.312260786072217
Sb 5.6111073801369376 8.863144966038211 3.567250112870204
Sb 8.294982918718095 8.689065566423947 2.4813368336354205
Sb 6.8161210730948145 3.8787314708139675 9.660761772490435
Sb 0.25952508749350656 6.761149998925932 8.903735848414366
Sb 11.431924275595055 6.124139214130094 3.496008751327337
Sb 8.638041865103748 6.24477692746465 3.9067031863552075
Sb 7.697685648009528 4.241722224677268 6.903295493400596
Sb 10.32659641081364 3.207464342598376 7.362885462242115
Sb 3.367266218795971 3.801654213958177 8.788328017597879
Sb 2.7020866106732178 7.179973014982764 5.508015208618665
Sb 5.455335073983281 6.2657696060640005 5.010655272826206
Sb 11.396503189308866 3.4537762859313204 4.697793628543593
Sb 0.5072601757371209 3.902325937033453 9.288553471134145
Sb 11.851257377274449 4.920148865534509 6.8810982152606615
Sb 7.8888336728093345 4.449799385573613 1.8198885618182974
Sb 3.473421979631402 3.052127152991458 6.139320718551202
Sb 6.701684484628812 2.197385853522171 5.129650945965308
Sb 1.4735891660212515 4.673602136577926 4.92321073862866
Sb 9.07922435738018 2.2910370925501655 3.3275332277203447
Sb 5.3169970212675715 3.9188748627622267 3.25502035045876
