33
Energy = -129.81872041 eV
Sb 10.757501956021049 9.425947736272992 5.880383183121185
Sb 11.107328863311645 6.54042313459373 5.829978015130198
Sb 8.721473335383244 9.456523425801537 3.772644288680764
Sb 9.298359696517839 7.016800670251648 2.329940136641667
Sb 11.662602249791348 5.985010406114774 8.532427590748021
Sb 9.398061238629706 9.036324533876943 8.39280280074665
Sb 6.775914966457873 7.326543890649863 0.9378548590072114
Sb 9.920244442601566 3.021394158524051 5.296171463375563
Sb 8.147582391070797 5.045112356168769 4.143784337456244
Sb 7.3806749083282055 11.128414965756233 8.437087359527053
Sb 10.676406008250776 3.3063625607508382 8.091505863530363
Sb 6.389213544435806 8.502899956461794 5.203149580397671
Sb 7.34418167848584 3.049086552715234 2.244979146002842
Sb 8.442457249481995 4.6505960530876 9.289726480662997
Sb 5.347201383191465 4.772625235027018 1.1069651222933723
Sb 8.38274278601189 6.611843148041652 7.122349096985572
Sb 5.631146308662477 11.153720014852732 6.111682844265199
Sb 7.69297702089508 1.388806744184766 6.202905189869145
Sb 6.053316628905675 9.454250891906003 10.325940578998534
Sb 5.6400278174315615 7.082027713271263 8.793445517141274
Sb 5.590394870303647 2.207624777163137 4.376504693943469
Sb 6.50034092697458 2.522534482403826 8.623223465979882
Sb 5.3085118054223726 4.854899730977159 5.605481200791567
Sb 4.752115357582084 8.296255162385249 2.8146415445391813
Sb 3.65936581045488 5.640847203410356 3.337158546922268
Sb 4.268964661614314 6.09900193684667 11.083220094746578
Sb 3.07194130346495 10.364620010694976 7.227608576742934
Sb 3.4187029669718183 10.519164829996305 10.085992820710073
Sb 3.8819430023216515 3.0835214680892786 7.490037599199405
Sb 3.517127709910584 7.571578017208862 6.8702013470099015
Sb 2.420780384453236 4.466373242768016 9.58044899689337
Sb 2.1023336359277036 8.051776187496397 10.9299575864437
Sb 1.2380630907333596 6.867088802251021 8.429800071498008
