39
Energy = -152.04476433 eV
Sb 10.67419799529062 7.95254400306086 4.825529948702063
Sb 8.534740905147904 9.755693258212839 5.758039415488422
Sb 10.730692151791922 13.842553850464192 5.556053924828928
Sb 12.771298012872922 11.856609132910531 4.826255980244482
Sb 8.537575547402328 12.305679867947408 4.401844923244743
Sb 11.79026190745799 9.871036807859888 6.6935681992156795
Sb 5.7016611426551576 9.895257567211278 4.920713722497529
Sb 4.905953962799534 8.905787886059466 7.497184148434899
Sb 10.422270257338331 6.436356303100132 7.260567009749723
Sb 12.76400917832787 12.137311084273612 8.886085546210632
Sb 9.99408797424704 12.772632972172703 8.130189608108045
Sb 8.362693146125336 4.5703821743057595 6.53173515242376
Sb 6.887432532398671 10.738435502112152 8.545858698772777
Sb 14.516235651902504 13.046980030751573 6.768407311068923
Sb 14.244560875578799 8.4484636139443 7.233532186029823
Sb 6.207966795440432 12.442948984691885 6.166991199351617
Sb 15.90584473353741 10.746953811433551 7.925839405518685
Sb 11.0094266736453 9.760929949520701 10.098661415258492
Sb 7.441380725811485 7.0943578086983 7.589008086489624
Sb 7.374359986961712 4.7403822545693295 9.274479427704746
Sb 4.851769802577755 11.658509167555025 10.449321790251593
Sb 6.392179593695717 13.304209897804013 12.270551149019026
Sb 5.534443193488333 10.677426786228333 13.084715223653433
Sb 13.297793986015511 7.914435371766629 9.971418249725605
Sb 10.253322944151545 14.552794466429345 10.47605338713277
Sb 15.187499326233327 9.988689315149498 10.712092250509794
Sb 13.080039196143709 14.020191813791438 11.019535235245053
Sb 9.656295289832505 5.682775743588349 10.793297207202295
Sb 4.945060669802976 3.8775724994264236 12.042431147553645
Sb 8.493973198080106 8.356588961241883 10.664252359387376
Sb 8.883865534565347 12.159967529511675 11.367885836665497
Sb 7.976329771351521 9.117121033779274 13.460010823353066
Sb 11.870344762847736 9.725532626521494 12.875462573063379
Sb 7.247570209160239 2.7567848918519378 13.346551230967691
Sb 5.934375260500583 6.288881927429697 13.336167947253635
Sb 13.881383562605174 11.753487431967674 12.667186862560422
Sb 5.124230615286808 3.9588603067912924 14.890457424758075
Sb 8.643163525552687 5.31614819964463 13.491615008640544
Sb 9.750331829644553 11.349347594489668 13.971071411983532
