32
Energy = -125.39034551 eV
Sb 5.545464952655595 11.318619570891672 4.620514223117118
Sb 8.153329304617742 10.308308513949486 3.757601144403104
Sb 10.359350809735055 10.468104494976203 7.074441029850754
Sb 4.670688798608938 10.09752730364165 2.131820044178812
Sb 9.913841914945323 9.898717544767479 9.883079836318299
Sb 8.461804229309829 8.495965114896018 6.0002793020719825
Sb 6.998740611011533 8.327153798687572 1.9478769361556023
Sb 12.124436832318013 8.709276397295353 8.462556341745115
Sb 4.900034556542822 8.619097798493971 5.500975121758476
Sb 10.486533090994488 6.874660836633298 4.691139508866755
Sb 2.7472468466311755 8.4954066950993 3.6050374455487173
Sb 7.205400209407894 8.99221189806073 9.3847146673773
Sb 6.4206073481189705 6.328207090520459 3.9933296811425323
Sb 11.932694607944594 6.175311512569602 7.061888263932036
Sb 3.4647369000754824 7.730026468326008 10.485415482404033
Sb 4.389930143204537 6.9419839204885765 7.846175438788159
Sb 6.100310882556542 7.690871168282648 11.755488042029759
Sb 7.5836390938360125 6.305819187320215 8.347242956174066
Sb 1.805268368553675 5.916375284803562 7.133999749736308
Sb 9.816304965170344 4.0639135394684835 4.436000633519908
Sb 3.799023574523176 5.946933837944344 2.747589403843652
Sb 6.629261198000344 4.9820087443926795 10.806786063885104
Sb 3.731416912321393 4.892248202778754 10.998105027675416
Sb 7.542804513343097 3.971305324766419 2.618436066864358
Sb 6.053582508677924 4.120685505147666 6.570949584954158
Sb 10.091376196010998 4.879580903558223 8.813179924299522
Sb 2.0605480984555897 4.587983742111302 4.586261591922746
Sb 2.226257727202783 3.619871613495952 8.816305111680977
Sb 8.78329594899838 3.0637133464251622 6.991816922397579
Sb 4.279275856322016 2.0184143225283413 7.594773761139856
Sb 6.316496416950183 2.1414848253854184 4.481986829796067
Sb 3.4062965829563936 2.0182114922946237 4.854233862422234
