39
Energy = -151.61285198 eV
Sb 8.943296111645509 11.062127470550204 4.56393578913085
Sb 9.477632199439014 7.5966615398724695 3.7151144095340527
Sb 9.187329973607595 4.830288283924874 3.033422634726374
Sb 6.430108380856059 9.560038542764884 4.253309509854555
Sb 12.321917589956424 7.811229761648938 3.9974136459506666
Sb 8.156034425269588 13.580302462062516 5.878166876177805
Sb 4.51625879267703 11.420399549737871 5.451103380160415
Sb 6.382579005448776 5.500086945870189 5.355148289390526
Sb 9.860830445113786 10.103703517989983 7.196813770759559
Sb 6.569728174402052 11.758151058921161 7.404429847593205
Sb 10.531862854429223 3.93517792939859 5.3860507972325475
Sb 12.590722130128489 9.385643092133945 6.480738177876179
Sb 9.06206796794595 6.279349501554214 6.3012929754401865
Sb 12.986145654639913 5.479395282852575 5.551179884708794
Sb 10.487415109846488 12.919665320737256 7.496348763964893
Sb 6.2512028077874495 8.098612246456966 6.767240043094273
Sb 5.8521634023988875 3.641845693269607 7.569932008995616
Sb 3.5632351770273103 9.197838352340096 7.034782159671795
Sb 8.537730356788419 3.980399681595047 8.680868679165107
Sb 11.9924611871344 6.925988307991218 7.8954751714077736
Sb 4.91142916692155 12.918744216565349 9.485336123176232
Sb 4.063374523414048 10.162608423899002 9.85335330003923
Sb 11.036518726868692 4.975627964678981 10.905994934675292
Sb 9.359325948499027 7.271743728276168 10.15531055292079
Sb 13.522687716215064 6.378223178776695 10.352569863700154
Sb 7.357169579763222 3.739166960030331 11.363958918857698
Sb 6.304426548886597 5.680351746911325 9.53894923054158
Sb 6.876972473909219 9.388225376962126 10.03648382412072
Sb 12.67857980398257 10.554177997246617 9.697304713376116
Sb 13.163293328005004 8.816339141186658 11.862125304326458
Sb 9.4829006697269 13.658681388439513 10.08495260259819
Sb 7.202437924353783 12.09810797160216 11.086696018248892
Sb 11.188323192704603 11.960453521249537 11.664822852654224
Sb 8.883319698921008 5.867836179235722 12.694582670713757
Sb 4.471242744154576 10.299265243347786 13.377937573196707
Sb 6.154433920471125 8.090574358135326 12.557196798331436
Sb 10.205851174848295 9.258300111036768 12.221899520991013
Sb 6.70498420821181 11.834547923188936 14.03096036677076
Sb 8.047055549873818 9.295168673832332 14.331846662199002
