36
Energy = -139.19456552 eV
Sb 14.732197775416807 7.785158546467303 10.28109607838697
Sb 13.669418960496689 10.161062114599567 9.044925541465078
Sb 12.90840298702513 5.623318534491901 9.611144034058492
Sb 13.05806953684048 8.373334207810421 6.874436804366675
Sb 12.760356924782553 6.930666773490595 12.178034627832204
Sb 10.845542224174949 7.0750734962755 8.17967452764567
Sb 11.229019785158464 10.238977291226988 5.5818554262478015
Sb 10.8859829459533 10.358576710685666 9.71560393709608
Sb 10.5103895560889 8.71618378778201 12.039747739448384
Sb 10.964308899797661 13.044126614016312 10.76270155351607
Sb 11.459025498042951 12.760464229942178 13.56432607130393
Sb 9.107517728768064 3.580545664665782 5.944232079572531
Sb 11.41041135989786 5.354517749666122 5.886985832331855
Sb 11.517911845510028 10.188380827557113 14.25482907648694
Sb 8.361543938629048 10.278756561790805 5.476300963746507
Sb 11.710501809704962 12.975194876385503 5.4412000124481175
Sb 9.734045288533292 6.3886279523757095 3.7615757807131
Sb 9.270125527782817 13.652655843600822 7.697512724841815
Sb 9.930733856454191 9.224687483153296 3.2265475386670017
Sb 7.308956241719627 5.725379851712639 5.268774620599381
Sb 8.06826500754011 12.817344085203043 11.299231506493667
Sb 8.671933011308768 3.178548797940298 8.742514278256419
Sb 7.35498200780789 7.445075768526057 7.581350443322692
Sb 8.888366712519055 13.109123740896768 4.885284618113443
Sb 8.059935759129242 5.750896761013562 9.829104435982444
Sb 6.742314014990368 14.312086265881597 9.244377993920898
Sb 7.488624345564589 11.610802115495563 8.739779566550421
Sb 6.208436939955858 2.0203859721469013 7.86791617876481
Sb 4.4627162348783616 3.9696973785884366 6.699759407237171
Sb 4.56404115558195 6.615817951513789 7.99168428078135
Sb 5.220980152025897 5.553800233256716 10.56688267804619
Sb 4.134959362562964 3.086542263305482 9.491980327261333
Sb 4.228558906593196 9.980505878154169 9.257168313555196
Sb 4.46762747778998 11.284168634229008 11.79872231469681
Sb 3.001362608083229 8.833422806961075 11.58906631019128
Sb 1.9476173515776358 11.234104860905799 10.440714486477203
