37
Energy = -142.70120523 eV
Sb 12.206623245442069 8.111790038393757 7.886632194610451
Sb 10.110986645306912 8.652207459554509 10.148343481755203
Sb 12.188408831345816 5.301314202155524 8.238673695637786
Sb 10.516107802197197 9.298864112352547 5.963151110100746
Sb 7.690703462340844 8.107467492271368 12.020605690253834
Sb 8.607993013205599 5.481772769740328 12.587677844373667
Sb 7.631352370361249 12.033114094861437 7.172760758749021
Sb 9.634449680736939 7.831377526122323 3.6916228105334827
Sb 6.214986243979415 11.070556040150816 9.488891699930479
Sb 10.898067525207434 3.7543141575849854 6.173838560936515
Sb 7.002343272280847 4.969405381696212 8.767569887389508
Sb 6.710541421046404 3.6689815979820435 11.320248275320393
Sb 9.708035758342588 4.918686378812939 3.775495875429039
Sb 8.193498277056381 9.318463190058967 7.917620286962939
Sb 8.320747996952496 2.9079449838521065 7.1952432408042295
Sb 6.193512246820586 11.141343603181356 4.795362496491531
Sb 4.8500011667759235 7.755136062681293 11.736416432276382
Sb 6.7862655721210805 8.384755116169709 3.918728005382132
Sb 7.134778011947154 4.42780261883602 5.022225830020344
Sb 4.247937026048134 4.965895524480799 12.018276177683585
Sb 4.039357003017392 9.59233314212142 5.931536924766122
Sb 3.584825944821348 10.819644112893533 8.472341993614718
Sb 6.156963337211682 5.591850352010882 1.5695821396468497
Sb 6.028516568173437 7.613066547295153 6.599309793366204
Sb 5.753813006754613 2.091540097252015 4.013904638194978
Sb 5.646734752704296 5.758460582422798 12.86630826139734
Sb 5.539914752060869 2.8233524453643053 1.166869271179558
Sb 3.9540828325250037 5.3776383802274506 6.1094535449582335
Sb 2.844248725190252 8.314717224651542 9.773934036163363
Sb 1.8838197468581046 6.263427785889199 8.004150384752805
Sb 4.718650082983126 3.2269914160631896 7.851104994202067
Sb 2.6634665841097527 4.076339648020354 9.720145533796694
Sb 3.6508645797292365 7.757256387593115 12.587677844373667
Sb 3.4404334590297174 4.727368888568262 1.6930848140032
Sb 2.8178004332212154 5.194331865445708 12.810175443319366
Sb 3.130225696867739 3.295091557718853 4.25168862862292
Sb 9.807947415119141 5.884401705416539 9.914016209222954
