34
Energy = -132.00241543 eV
Sb 13.718482678707723 7.888819236018901 4.7348270259721
Sb 13.250583381974694 10.451087223881064 3.5438972466220093
Sb 12.043209623422944 8.033084576291873 2.4403887094943615
Sb 12.898053283745458 12.801077920215823 7.846391329312807
Sb 13.161420709141428 8.289634162706154 8.9144937526721
Sb 11.983236531010169 6.790186453175173 6.7256220060583285
Sb 12.3755615822423 6.331146704699128 10.870828371185455
Sb 10.608677209163893 11.480479134858847 4.126504804864018
Sb 11.604712862088892 12.392480417345837 10.364879008199708
Sb 10.786206366999204 11.035632151829113 6.964508565497617
Sb 9.471537522519919 8.868803535631926 3.5564356791759004
Sb 10.155937611575252 13.574020286561966 8.174820607363582
Sb 11.651640436649538 8.43973101502926 12.592411246157399
Sb 10.862182995004757 9.555440872562285 10.064351735851117
Sb 9.360365998755137 7.962551920149362 6.3044512002091375
Sb 7.913100570937755 5.605763789653208 5.328480209275957
Sb 6.615542265686427 4.059838518210568 7.315914189865765
Sb 5.886996800261791 7.552005944152616 4.6641279302705785
Sb 8.989636455560209 6.796227827579817 12.408290366552285
Sb 6.821756772989086 7.723710916364278 9.06112593238563
Sb 9.52565068647857 6.328080455409034 9.583178636018317
Sb 9.021668720848156 4.066430813336418 13.156109221324149
Sb 5.890452905632028 9.421828375956697 6.858515310216822
Sb 6.31485967648622 9.47591455639901 11.350282834082366
Sb 4.799725933530097 5.697937310172793 8.729957672642389
Sb 3.77874238874987 7.435624265380779 6.618633093730539
Sb 8.027051546712242 3.9095244891357646 10.264914612184784
Sb 5.29824408043669 11.73720243491841 9.934159819668947
Sb 3.969367798761475 8.016209469931125 12.021338038910955
Sb 6.468704106066302 5.077741192546094 12.31016942814007
Sb 2.8450147778208708 12.427646733992479 11.226465472085563
Sb 1.9659181827341583 9.980124583951005 12.52851826643029
Sb 2.8579814833427877 11.000975571289828 8.684475566528752
Sb 2.037458589540223 8.53708000070025 9.987674003713488
