36
Energy = -139.95998066 eV
Sb 13.094640265711648 11.319648592483231 1.3721029844351722
Sb 4.6492734046130275 8.053160195685072 4.915824192810802
Sb 14.354516553764958 12.100812223468736 3.6234964299167847
Sb 14.02942930528024 9.285120149944664 3.109169311113327
Sb 12.23664098619424 11.306338810516912 5.959349539028407
Sb 11.474204199471032 8.94542035570956 4.561401794456691
Sb 6.089033427635087 5.647306977209772 5.680090376670127
Sb 6.42598834414173 10.331062195996397 4.858288022531213
Sb 8.757566831401933 6.623927607670795 5.593726316101378
Sb 9.800692069303068 12.03718310800494 7.410523772182836
Sb 2.7373536048404135 8.38272382548631 7.004810334645464
Sb 12.99674446409288 8.696520493333464 6.987966202359502
Sb 8.473622341195822 9.436123210852799 6.773112915035323
Sb 5.622632511545362 4.778061846378497 8.362785654601105
Sb 2.9143590670527546 11.085487003992078 7.954231367049888
Sb 5.426466002039181 12.062316290413026 6.915459628942011
Sb 3.2456185226584933 6.339185734318782 8.951724454123552
Sb 10.074613224752456 5.421915327584998 7.746891226843126
Sb 10.788616773556049 8.238666127204512 8.810386452208874
Sb 6.333644563193272 9.925313638366022 8.740634498148372
Sb 14.048578071450224 5.4777283785435325 10.455526013609422
Sb 7.6225549982727765 7.71902919781376 10.526653474149544
Sb 11.30365544926183 11.119849542751451 9.599656284969646
Sb 11.90781741458618 3.558928923196956 10.449517311686709
Sb 8.139455396471659 4.973739323310763 9.843796996066434
Sb 3.1920932825298145 10.595981123759763 10.858471145313732
Sb 3.1729782495664587 7.7829389571097725 11.443739438414559
Sb 7.371087633524892 12.118605474856846 10.309966868611431
Sb 12.31879815595431 7.691730671126644 11.22458799757952
Sb 10.759891816544366 5.500031349499756 12.300081501847414
Sb 9.073117634870856 8.727009853599412 12.837098599875768
Sb 13.27975022386093 4.128803085382207 12.887308925239108
Sb 5.4351654003822 11.652601597157767 12.38726810570247
Sb 9.591151506231949 11.417391761182065 11.933378827628587
Sb 6.4530689287992296 9.4003857463505 13.93854089820323
Sb 5.683108756748135 6.996880681237207 12.550361519398415
