33
Energy = -129.12394421 eV
Sb 8.24348482864521 11.482788804598433 6.387871332476495
Sb 9.651815901732737 9.57544674238768 9.978998195782834
Sb 9.9477546279517 9.355249659048727 7.2894182051446
Sb 9.97001782182669 8.00907287012705 4.056119779391737
Sb 7.9749990270855005 10.10236936276108 3.8108980015169047
Sb 6.254403507187128 9.861417499923556 10.348786800735043
Sb 6.144362423376682 9.79026204975305 7.42726814305238
Sb 10.532049367448401 5.537526254431638 7.79714293001781
Sb 9.858422898353114 6.715089593008314 10.388575796997973
Sb 3.744990289415005 11.18209343022976 6.696470591095396
Sb 3.519124061369614 9.778853558873923 4.199011902980535
Sb 3.4387811182925896 9.042769170211864 10.577222501017985
Sb 8.496802382567902 6.201496490000666 5.791614420139302
Sb 7.144579459029567 7.179209338223931 9.536848854832948
Sb 5.865684015263873 8.177628285898122 4.391489521504077
Sb 10.003042279365996 4.152794779125993 4.411469865552663
Sb 2.2592638797289806 9.009134511584875 7.904894533600971
Sb 9.005687421170443 3.186209533649465 8.541745368796587
Sb 8.988133169754464 7.1134653109763715 1.485274542101165
Sb 5.84883530874015 5.075851451885398 11.030501623944476
Sb 6.296761160966453 4.242603534652065 8.258111154542618
Sb 4.055655772150094 6.755355192217342 7.325018236365019
Sb 8.801162838384164 4.206559925781268 1.8141446241532684
Sb 9.03666904320128 1.8698693337657364 5.907633372357656
Sb 6.072160224066013 7.387432423100723 1.6029087365150159
Sb 3.3415139132091234 6.200584978471276 10.089882539739158
Sb 5.567982636799867 4.493771103761404 4.770576446275606
Sb 5.897162157504473 4.4783052847044225 1.9240159755996806
Sb 6.251428183106946 1.7058271512996697 5.137437740646917
Sb 5.169748898697952 1.6321488423266 7.809277102485543
Sb 1.792304230202629 5.104827651227946 6.574771261112552
Sb 2.8495316923026914 3.585789399071996 4.342827287013807
Sb 2.494072544579197 2.326583566396773 6.910159695988411
