34
Energy = -131.7171261 eV
Sb 8.426146554569941 5.786472038493165 4.714358479668122
Sb 7.7408096567432 8.282632433998184 3.425509403856365
Sb 10.951062764573022 11.106849247596337 5.1749556570273905
Sb 6.269687348822644 5.099594193369901 6.516362947538138
Sb 8.407395048965942 11.960578869059072 4.13922724255658
Sb 10.603680450230257 7.387886857389032 5.845105240638615
Sb 7.4273562993653215 9.828927531452138 5.881772687502377
Sb 12.32470722336936 5.15521647294813 6.799743991871777
Sb 4.089702890627835 6.610887950714152 5.420410667310462
Sb 5.125723285997685 9.041183345836249 4.28944118249986
Sb 8.608640206543967 14.416460658981787 5.753644038497997
Sb 9.846510450777155 4.680189369078895 8.103539332448955
Sb 6.048926757799702 6.964109396853872 8.79943221122263
Sb 11.350388116487785 13.73278370230733 6.375288996181193
Sb 9.518000462119057 7.567726729955808 8.562371374610667
Sb 7.647901170944057 12.708632582645059 7.9155234033928314
Sb 3.22864759089157 7.078276596163254 8.226053709797009
Sb 10.323265436369999 11.548776152996929 8.00080223955209
Sb 12.441891462620406 5.393835612010739 11.503616205274286
Sb 3.0515122155120764 9.721187785844513 9.254948545855333
Sb 13.678806096185562 6.389286557426854 9.059460893231428
Sb 7.908485445275576 9.411493300200078 11.147429544859596
Sb 12.197336542022322 8.851399447022251 8.78891087933485
Sb 5.732273977828788 10.244705577483051 8.963459867015802
Sb 5.700561008066203 5.51299155080697 11.354617622157084
Sb 8.37297820668325 13.37390680302568 10.663569057055252
Sb 10.607154027555335 3.3713938231469265 10.56892445699987
Sb 9.909195082065652 11.273003918624322 12.075701313355964
Sb 6.095690650253647 11.752411584615926 11.45550512105199
Sb 8.578317154431133 5.278779237804228 11.374008101851466
Sb 6.61516883761384 7.638320552412027 13.161632018902228
Sb 12.415204860631917 9.813147659616703 11.490562212635304
Sb 10.541183056842062 7.59631352023371 11.92315035020922
Sb 8.978976052478059 6.183925331150969 14.034247395300866
