35
Energy = -135.28089802 eV
Sb 13.548372969326849 6.40146045514702 7.81490219708449
Sb 10.369485401754336 3.1948492538955913 7.194214937734603
Sb 11.495482020451368 5.569035725258147 6.0083509951209475
Sb 5.5877811606777 4.049252183816637 5.809165515813049
Sb 13.36053546320469 4.759536631688591 10.151401005954542
Sb 11.039105200417474 3.2251565276625187 9.94589659184354
Sb 3.5830015304769693 4.9111202106933405 7.699868879737088
Sb 7.815592356894662 4.554340786942666 7.625074166470241
Sb 11.810470385659153 9.403573009984258 5.891411042831114
Sb 5.96915692679609 6.84336112409262 5.059759601068971
Sb 9.223022390462598 10.24708019694318 4.965627046443323
Sb 10.934544899824655 7.638700854377077 7.978715474697417
Sb 10.110259823010132 12.889078934887673 5.803123702834032
Sb 7.170829137441461 7.5282286858206895 7.69699874131144
Sb 3.221061954918304 7.176266723157752 5.878846357860016
Sb 5.257043901998818 6.342681458031449 9.56127292349827
Sb 12.562443145430644 11.999847251698933 6.987067202682395
Sb 12.213957716762815 6.960862167696853 12.254100579126659
Sb 10.3106094768821 5.091245837414522 13.219737616129125
Sb 9.19265499094596 5.712493555622251 10.641331051621362
Sb 6.836296926034114 3.992217145109021 10.232259515371297
Sb 4.497422615090539 9.252044617603758 7.427474991363727
Sb 8.382153518275464 11.344415605543865 7.564657001052762
Sb 4.887788741817884 10.464651048928168 4.851261412599786
Sb 10.598240034100007 7.438796151665398 14.79624043355619
Sb 10.501820961696916 9.317423979114054 11.041256988451577
Sb 11.881166089637569 13.65986835290037 9.342348810445841
Sb 9.046782062479743 9.51523345078606 13.573017103340883
Sb 7.851321601610749 8.344573371253766 11.241392324730162
Sb 9.042708691852575 13.808389596571626 9.549164671014848
Sb 6.442267764979886 12.663836768748451 5.8679804371826085
Sb 2.6356464398645865 11.340087895054639 8.297897696249533
Sb 2.5838664674549428 12.19036199627501 5.553200727572626
Sb 10.470032928182496 12.454205315376553 11.494449808843674
Sb 4.207720068096022 13.589883915974914 7.491275293682839
