30
Energy = -117.86207943 eV
Sb 1.930526496890347 10.11387995673375 4.7657163515878
Sb 3.2336438673336936 8.245143467118032 2.9718641110248254
Sb 4.5938437059054 11.087926007415609 5.254738074690681
Sb 1.1149330324821043 8.60879008671298 7.089075629014544
Sb 4.816763427833049 11.045926676734197 8.134947121809065
Sb 2.4549652463714478 5.573068033112548 3.791068644701006
Sb 5.547886437848602 8.361156142088847 4.690148662753671
Sb 7.38745538793479 8.859112020489881 2.4918912576819623
Sb 3.2156654667987925 8.79530934824441 9.055013632776218
Sb 2.0171547410343953 5.894891086884918 6.636387212184993
Sb 9.839927298899728 7.833525535858994 3.628379973136782
Sb 5.143388779213601 5.028113004465337 4.785723040227429
Sb 8.33144791478846 6.251734051644836 1.7419712326461962
Sb 4.661354012360782 6.712799114747589 7.56112403576098
Sb 7.075587699952523 9.230799686432146 7.7876464757426715
Sb 4.353798840940576 4.144748058919271 8.995384770429157
Sb 4.46527706141218 2.6703700525245933 6.458502391497034
Sb 6.872630110776437 3.9149680744645003 2.7145251122668825
Sb 8.621150500240805 6.621355505584371 5.984017406782609
Sb 7.392438789858375 8.253049335328559 10.483893354414338
Sb 7.255002454215146 3.3177081163386073 6.744642073922175
Sb 9.551320436711148 9.6978552114274 9.23143720168669
Sb 8.014646657626987 5.755099636055941 9.177735225052423
Sb 6.82135520198837 3.5589685441345913 10.585360388199762
Sb 8.746401112526467 2.486400243759932 4.447423577391248
Sb 10.876640184165637 7.6607949187443465 7.574682791157897
Sb 10.558892224954871 4.498145584366201 5.50604173799662
Sb 8.405744534116943 1.8196701562089561 8.871021205719789
Sb 10.807777753379819 5.698072101962874 9.714994182262934
Sb 10.89238062144317 3.260620241499455 8.124643125485294
