33
Energy = -129.33691334 eV
Sb 7.148550207420719 5.9543854457475875 11.716250188359137
Sb 8.057283314360513 8.57130323365998 11.0142486665703
Sb 2.819195977118453 6.72902018728986 11.350562110067214
Sb 10.913131173398376 8.573497693964644 10.828626503689039
Sb 8.440209522405352 4.214565241374686 9.811889213550355
Sb 0.6400719172609375 5.3380455275433 10.16598070583922
Sb 5.11314854322445 6.189043355291701 9.65313973326284
Sb 11.59839971772004 6.435961082124443 8.953468189330408
Sb 1.2126419582882817 8.021286916919808 9.337976896589435
Sb 5.675264732560622 3.3902625348139175 9.301979443259226
Sb 7.798648880048807 8.501290123515275 8.148055944881825
Sb 10.158930871740694 10.234613579002785 8.554019323754607
Sb 9.096192992652622 5.9998415680091295 7.646289692382656
Sb 2.5079864467713353 4.406226659766137 7.964558723719341
Sb 12.362785426478954 8.77210803769814 7.445847960750096
Sb 4.607066629369958 7.168031633924041 5.982730086503024
Sb 11.576213908054525 8.753710816690006 4.65694600933469
Sb 5.2410111322322175 3.8314590444319365 6.469898643975878
Sb 1.8105635114643206 6.868551464389663 6.70477605568295
Sb 7.710893605461818 6.1741007797330365 4.565385536890361
Sb 8.759245838110175 8.851285368243976 4.4577129093848145
Sb 12.266200379720734 6.1338449990523225 3.757205221993341
Sb 3.912246815340533 9.548997264970412 4.365221338206946
Sb 9.873115754914533 4.583735412713432 3.5302839744868195
Sb 4.060329344341807 5.605798846133053 3.5893284770277187
Sb 1.111643420877254 2.583825255617753 6.240858492393887
Sb 3.7118398978361125 1.5396051963972264 5.486281048578067
Sb 2.4831488599748273 7.826249403055152 2.556031146095048
Sb 9.008096499191822 8.554572772784757 1.6051538692947218
Sb 6.797433643566913 6.656779892166568 1.801675414375138
Sb 10.721547717999385 6.22633983084751 1.3305784307749835
Sb 2.2799189912866282 3.2961259448799205 3.7151482563573293
Sb 5.027042368805766 8.965534887246974 1.7918917926377274
