33
Energy = -127.36991107 eV
Sb 9.79109528788758 4.2992439522870685 11.623201398353238
Sb 10.509415139389047 6.958403283743632 12.478296331657127
Sb 13.20665064715958 7.1530307103003565 11.292938490387021
Sb 6.6769853345448675 6.618843428668342 12.733232690035791
Sb 7.599804468974783 4.018911639680257 13.53015046058619
Sb 13.268968663797091 9.8705071566296 10.281234670194753
Sb 10.612678507322421 4.857513646727605 7.995924420242546
Sb 10.416202884836515 9.811767598525538 9.761242062216512
Sb 9.281968012182132 11.022105258181348 12.130399243893262
Sb 8.4797774516203 6.582029773897841 10.443670687449835
Sb 6.826218932694932 12.130332269515657 11.113303175172913
Sb 6.275690995987892 2.277600403066411 11.686945172292425
Sb 13.613749506890535 7.702619993914391 8.443673740769382
Sb 4.514045813793234 5.998166706284831 10.980090147075131
Sb 9.916084928937266 4.266864929112118 5.245539193237797
Sb 12.54623195086435 5.265973877640924 5.911957682300651
Sb 9.040084958964856 13.857186127765765 11.723740957805294
Sb 11.073836956282808 7.501705873475342 6.970310815906613
Sb 8.106050291426778 13.606222055039206 9.008952725199126
Sb 10.249461632367526 12.035445800357941 7.9698789335547975
Sb 3.6244746382359425 3.341207388397114 11.541270138000698
Sb 8.757839564730862 6.699180022308342 4.093499625040759
Sb 7.287024957868212 7.188827962662824 6.466841288250603
Sb 5.5372523617815785 3.8296289290153025 9.394892402900156
Sb 8.548073662150873 10.165823153092978 6.4955535302546865
Sb 9.812292305500181 9.847700051241574 3.959339704296862
Sb 4.989509297055201 8.107964168329968 5.047863862825376
Sb 6.498832669503456 12.263190597210103 5.597987740326745
Sb 5.871049329222169 8.971377339602592 2.4567111249830114
Sb 4.4219440566609265 10.539059642713708 6.437593230591487
Sb 7.27380933336896 11.357080704041419 2.924495315139201
Sb 4.214829883491379 11.244704843942072 1.9704402704844803
Sb 3.4485788587961776 12.23302313508319 4.382136992145616
