34
Energy = -133.09306677 eV
Sb 10.137965092656962 8.847213577502588 9.682636199810062
Sb 11.228204007247246 6.724007715819975 6.560280951320725
Sb 9.27229237477757 10.285874194137628 7.3291974307490575
Sb 11.922732632018155 5.6214193385030145 3.958524847286228
Sb 8.88873221027158 8.681162166010871 3.3129958029741995
Sb 10.422012895313822 4.040691409064857 7.451597568729174
Sb 8.181628563782972 6.689555275049434 9.515777838972049
Sb 8.600761167733587 7.774337724519805 6.048141770567557
Sb 8.10716816910675 10.305632733240618 11.1671878268491
Sb 7.230413469358287 7.678400665016089 12.075726503132719
Sb 9.732200836395236 6.183504114974461 2.114984470097824
Sb 10.561041460676643 3.115064459962215 4.677605930495004
Sb 6.018040961286867 8.493664661364411 2.8191981447686962
Sb 6.690201958549349 10.69557286442501 8.634385741058908
Sb 7.544642962758383 4.352668902363584 7.234897011616411
Sb 5.717480341275299 10.35492438951375 5.032799469410541
Sb 8.198221249212148 4.6433892076732555 4.00476545757701
Sb 5.880476396352465 7.973780491881674 8.275243977825387
Sb 4.10134175620159 12.244108729738043 3.585477969092761
Sb 1.954533998357336 11.674625100060586 5.090278398011349
Sb 3.314543037540884 9.478882515374917 6.431357924776922
Sb 5.3191848550780545 6.3851965219733415 4.733740755238065
Sb 4.620152014276293 7.607461409400574 10.874465144087116
Sb 7.3529254725410995 1.7236560372534464 5.958731992437096
Sb 6.558901848313795 3.1456031837196274 9.702979783482153
Sb 6.522172752573781 2.429110529245112 3.2318699009289866
Sb 4.334804715943263 4.296676926408242 2.9877960433753312
Sb 3.894201723657328 4.97888682514607 7.574803734833881
Sb 2.6741448565453214 7.531197642541381 4.406180395638902
Sb 4.177304852305701 4.758539941386616 10.439980286642927
Sb 5.381413671308479 1.0662277826788387 7.954045822576263
Sb 1.4047697917389652 5.5959906279615135 6.166995601968206
Sb 2.8716531770804408 2.3647292258437833 7.3297470283226955
Sb 2.183734727765137 3.258243110245653 4.635602275347162
