35
Energy = -136.91015031 eV
Sb 2.524383231998198 8.438337115422527 3.9750279592759488
Sb 3.9326279641484003 10.959238270541988 3.9889259297561868
Sb 4.571203562282223 8.951656239871658 2.014131605239738
Sb 3.5051257743450934 10.626639792191884 8.46027537178089
Sb 5.3681890295673025 4.479702158456457 3.8654631955797756
Sb 5.900744035352655 1.7824510721335012 4.576066856445927
Sb 5.916037019431416 9.153776990151224 7.832437854132672
Sb 1.8661558222916295 8.45361357797035 7.505140307215319
Sb 2.63256657789676 8.527803246098687 10.28444160367226
Sb 8.710691538998718 2.3147180920990036 3.9536690288352703
Sb 4.955478345983656 1.9970452330735637 7.302264923791962
Sb 7.737755256812557 10.884374981280217 9.348191941136305
Sb 9.180044029392366 8.364470993777445 6.420908077550803
Sb 5.120071407840147 4.7165821277460545 10.583632698478326
Sb 9.226753902583775 2.9388149132473362 10.888270243906051
Sb 7.673318667751832 5.189689305766811 11.831353363898621
Sb 10.55716698637975 4.747240813539331 9.02574962099336
Sb 8.420857439605868 6.6813777559339735 9.457290762773157
Sb 8.510722703328824 2.9070114341150206 8.10988977398889
Sb 9.529649668774256 9.041790206369955 10.677391204102808
Sb 6.132903659932345 4.590516807545408 7.857881871260839
Sb 2.3697851251349045 2.4098279705724104 6.032817043178638
Sb 5.313284843667308 7.605399594523479 10.551183825242946
Sb 8.725610571915055 5.120640116229838 4.847831319289759
Sb 1.5644301987287232 5.134476812699894 5.508391697364305
Sb 11.174310444644934 6.3311050760842065 5.809619836768279
Sb 7.260471925761334 3.569522362763367 1.752460614073515
Sb 10.322860085965978 10.317301077163574 8.206533526577797
Sb 6.5777846600850625 7.929369284360395 3.8705399666299827
Sb 6.5238008684785305 10.473729942870627 5.210696438820872
Sb 2.6620414585755805 3.5426419251656744 3.3654966845674172
Sb 9.474946400962997 5.4576782153940195 2.1373406395782615
Sb 3.8535804073064766 6.885600627518003 6.035233251723954
Sb 10.8821576135916 8.69187542358057 4.113096295461191
Sb 8.822488770487231 8.28398044374471 2.100354666910969
