35
Energy = -135.6016968 eV
Sb 7.558609818924396 2.1059667610777404 9.078109416476241
Sb 6.321850971923209 3.402322408162898 10.84949349027398
Sb 2.435997010550749 7.030177878624141 6.10194906788214
Sb 2.180740809284166 9.73658638730011 7.097440650435387
Sb 10.802123947946555 6.645413878417753 5.718709585984907
Sb 4.05466812713837 1.4594958307451216 2.809471119144543
Sb 3.0916782964950693 10.466842638675033 4.451611923241185
Sb 9.184166790062074 4.6783558236068 3.0271678519387986
Sb 5.459355279015138 3.661093820968829 10.536799007998164
Sb 8.499824080727388 2.3319572010344904 1.3905065036190527
Sb 5.229869895691526 7.883521072155567 3.0891881475613707
Sb 7.683579197877194 9.380145114708895 5.474458024298848
Sb 7.693705593068864 6.889461426225226 1.80466422978882
Sb 5.425660625021507 7.928392876961254 8.041161481188924
Sb 4.6383832086191505 3.3661795375349106 7.0619562898643835
Sb 1.5928511152851028 5.139610434340038 8.118261322465454
Sb 7.972730326745844 6.901656728235403 9.002143053959479
Sb 6.344513514447148 6.80132617820177 5.534835538861099
Sb 7.48135552914685 3.816585983378445 5.136609853764059
Sb 5.30970736198697 4.0442272153877985 2.5052720801736044
Sb 9.67672178000528 8.726858322351971 7.486491445932425
Sb 3.9510136917713448 6.00985737199018 9.612451322173596
Sb 3.346890216105851 6.025327739185089 1.8765339509337295
Sb 10.96084466776985 6.883451116257534 4.716517560641695
Sb 9.563383046626335 8.255515995499655 3.5935040319425275
Sb 3.42532343494288 2.0530080690606827 9.370481475241258
Sb 9.144789471350267 4.849807373835777 7.292403900674843
Sb 0.8971864133962272 9.07095054002347 3.1009347870598356
Sb 1.3854379515385171 4.655148924675362 3.4785085551076285
Sb 1.986303605562394 3.1837854595674555 5.934862019170613
Sb 5.187125725542491 0.7155119077706362 0.26696980993275204
Sb 6.737207263675307 0.39271775175020895 2.715248810634769
Sb 6.354001572221166 0.9977771333225737 6.703271267027944
Sb 0.3682738141103378 10.988620005324236 5.204674374321874
Sb 5.52040395811501 0.006482150299118959 9.283615682570886
