32
Energy = -125.37572046 eV
Sb 4.049564823899608 3.3098634322966425 3.0602139328183875
Sb 3.793455040111199 2.2203553254686277 5.78517398647832
Sb 2.845481000260319 3.054466695438734 8.464773005064087
Sb 6.661752332038127 2.0706306251159323 3.530900633317159
Sb 4.014999954949133 6.21916279438452 3.02544546315873
Sb 2.404166760599376 5.787770798021061 9.344108331374128
Sb 6.284540940042924 3.6133375138567696 5.925832680621087
Sb 6.611143265853386 7.185439064383545 2.0306775377779536
Sb 9.023028298720517 3.6794740734725195 3.007232629009583
Sb 8.17206457009899 2.042403916022322 7.459033721304766
Sb 5.048462356309721 4.888565255206547 8.707954220527423
Sb 4.50162576323962 7.233522844178735 5.6692054816012645
Sb 1.8419566756808445 7.044108346381332 6.8118977496248965
Sb 10.25203362571992 2.665984831090832 5.456609122814188
Sb 3.0592102722959518 9.48420597781986 4.5723198992290435
Sb 8.032083280479855 6.055284865582801 4.294712757322141
Sb 2.135815991315444 9.925176334745807 7.268738684920691
Sb 7.232118122342416 9.815481892156848 3.1624341059824657
Sb 6.089002428876417 8.140359538672442 8.833991367078626
Sb 5.045683544856392 11.49953670681578 4.149420787911163
Sb 11.246054944866883 5.208493627381957 6.460470154271284
Sb 8.782978357644602 5.983809243858373 7.724605520473335
Sb 9.063614733564965 3.851488096203495 9.586654492699678
Sb 10.753939259301275 7.121400502638525 4.3404788351655625
Sb 7.522645510325771 9.017418660567204 5.939535742525579
Sb 4.561984825027971 10.59947016692307 8.726049350569502
Sb 6.655153678595924 4.57875193966829 11.097228816560504
Sb 6.662586235771872 7.471530255912595 11.594153472192966
Sb 6.3978279799776585 11.590958539662298 6.699863209892758
Sb 10.370855383340311 9.340822433152189 6.253219106388608
Sb 8.36144794561494 9.352809976966073 10.168915774854904
Sb 10.52272209827759 7.947915725954667 8.848149426468966
