39
Energy = -149.91500731 eV
Sb 14.539318625795495 3.4477604250755025 7.741615190136914
Sb 11.914564393027838 5.797307462666302 5.657352862201737
Sb 9.2789630641752 11.873846416917157 4.506588225823613
Sb 12.573896421187474 2.954662817337605 5.945621745509392
Sb 13.581549498706053 12.500533874319931 6.05492912657556
Sb 13.749790765237067 6.227308666596384 7.825497444577764
Sb 8.487028678392718 9.967208517656491 6.611422734892511
Sb 5.951609820663886 8.664720435174424 6.087205835095596
Sb 11.912641859621218 10.669785375039707 4.57780867029874
Sb 14.557862803044856 9.88041769359125 6.936186060235905
Sb 5.7180359882626846 8.473737812509219 8.986291375298974
Sb 8.3921888612746 7.096150364180709 6.077845118518502
Sb 8.842673566645185 13.209146590592646 7.039295468846013
Sb 11.17465662345729 4.919140732850339 8.305587795850725
Sb 2.9249992135075886 8.901829579655356 9.583098374713503
Sb 4.5691082920210055 11.240704917854059 8.87736001866559
Sb 11.569579996488049 12.361561913645431 8.106118677610803
Sb 10.780806555986828 15.127406838909796 8.131574432905555
Sb 11.811197863931095 9.040456081675616 6.989118643980064
Sb 3.803074544898075 11.96399512517553 11.546764056102717
Sb 11.964484117672601 9.447437817865705 10.247485319587437
Sb 8.748693278319466 10.536559654481461 10.26746752858443
Sb 9.082154565366602 6.965947228565462 8.986788608287544
Sb 3.976283806513079 9.176320855752364 12.265841697373375
Sb 5.0937487414628 5.5115084857002925 10.125540484161583
Sb 13.026662895226258 12.185390898107322 10.68775915745204
Sb 14.796396563438293 9.788168121671458 9.81542396225635
Sb 9.301158383546502 14.95517991296005 10.638257952165283
Sb 7.233914685318548 12.98599016145101 10.06271328169851
Sb 7.787404615003848 4.516658664178117 9.849072338966694
Sb 6.166311479630116 13.217222991321226 12.725694226516552
Sb 11.412782799696037 6.8799167596697 11.44393527140995
Sb 6.975997855820607 8.914912730678648 12.053642084903785
Sb 8.167916629371003 4.839030436034504 12.743396425916309
Sb 11.037310818382 13.546408600249336 12.447253767317804
Sb 9.441013934352135 7.3856554845467235 13.288108593190225
Sb 5.525030231969053 6.012342908206275 12.81986386885188
Sb 9.914374904883179 10.90870591087991 12.89501585787342
Sb 7.285733873795723 10.979882352348469 14.120379331738041
