39
Energy = -150.37844413 eV
Sb 4.915211230762674 8.714968826534196 3.5187823993752563
Sb 6.387827708254218 11.200561057618922 3.0931515574879067
Sb 11.12626259060164 7.5522224751919484 2.974164699561536
Sb 8.219019851016325 7.754302657371625 2.6287263103563294
Sb 3.062378558604924 10.124019703842164 5.272387579230058
Sb 7.3996636316803475 9.257098962535144 4.994530380577767
Sb 4.524000214028541 12.603120523222493 4.808726028042185
Sb 6.899777742394787 5.26135968755699 3.5717252014055947
Sb 11.624016261733887 9.342141312135114 5.1942440853502925
Sb 10.209927382811404 5.774474356165836 5.018276477274505
Sb 8.378771579006326 12.739028686248325 7.903903154635191
Sb 8.905925698053048 3.381461482545131 4.332874881307358
Sb 5.5189628579793695 12.480706346828432 7.5201326083351505
Sb 4.772480992444178 9.098612499986741 7.332186663832587
Sb 11.863333140215953 4.8686653870330225 7.143991233093622
Sb 7.210076447473375 6.193290745901232 6.3615931803037995
Sb 4.221827763600739 6.366188131644594 6.433683128493277
Sb 9.88497623573551 8.380484767158237 7.355827565597536
Sb 12.674617568892886 7.70499499199747 7.418118932601017
Sb 6.5018169307474825 6.8209943029684705 9.553651396354566
Sb 9.080895239344386 4.055680592768157 7.772690451942746
Sb 3.193688961642971 8.794773851260732 9.803906575403783
Sb 8.535406381978675 10.189984075660954 9.284893820987955
Sb 3.749448374882651 6.002350988025046 9.291597238965966
Sb 9.935399909274375 7.174089434688057 10.538490897827394
Sb 12.794068591612834 7.52672263068293 10.847275748756669
Sb 12.477253095349253 10.369849056110917 11.155220236071527
Sb 5.327433834560933 15.099501130374243 8.605807641088624
Sb 5.8555249586775 9.244335937836903 11.046427901321122
Sb 7.594696284807262 14.505102278919589 9.982229553258195
Sb 6.7961668160494515 4.989484326874446 11.74949481123902
Sb 9.480087301149345 4.38248326645155 10.827314882748365
Sb 13.38758975328282 10.736053046448378 13.844127971121404
Sb 9.386796908500358 8.255254032795502 13.139113842359402
Sb 9.7163944266017 10.848140900891215 11.882672978380823
Sb 13.21844930467707 6.556155962541823 13.527282416776782
Sb 6.60208121837044 7.497447916626388 13.299833495364357
Sb 15.106410277365113 8.51349656620998 14.480668600776204
Sb 12.365058429162723 8.544121553674744 15.39399792572157
