35
Energy = -136.94114207 eV
Sb 6.406271551834867 2.2989680858550745 9.839887579939099
Sb 7.582285608931557 0.7459460443770123 7.710950983161247
Sb 9.023304412305789 2.9864475050815917 8.847803189455453
Sb 4.571447511041023 2.664045644335144 4.64276835174242
Sb 7.520190772679163 6.675299932042398 9.672256243061913
Sb 7.105132625335381 9.339672021317206 10.543195987618072
Sb 4.917646040179198 5.5235247628129835 4.392041427857068
Sb 3.2794911717355353 2.6037986353809526 7.205730753042481
Sb 1.1881822227926853 4.501323564186105 6.591571148342968
Sb 9.383402955289336 10.084198398511852 8.940120706092983
Sb 4.4230887701954025 9.496257603817206 9.435256443011234
Sb 4.523960415728251 5.375774035901158 1.4936320991842855
Sb 8.262693592662998 5.287686349967213 3.1746089612483583
Sb 1.9668265673981449 7.245662662585538 7.031557070061868
Sb 5.9766192166817165 12.030248009870371 5.835233589469407
Sb 4.150068186964979 9.807558369725792 5.30980704353609
Sb 7.094966758872637 11.541435226342216 3.20825249942529
Sb 6.238917376150518 8.790834606482102 3.564984409501152
Sb 8.736327089433802 11.225081254615768 5.601535660871925
Sb 5.397222204246146 8.05966830977255 0.8964165266290268
Sb 4.846980713714559 7.712055749989135 7.204149884803355
Sb 3.8190190506991533 7.66101711334217 11.609433784949305
Sb 2.060625122965693 6.095716652302645 4.365213381203642
Sb 8.475833641398596 8.37514340339275 6.200375552877314
Sb 3.797454123455644 4.836096574729315 11.02887879725698
Sb 9.397355932411912 7.898620337180708 3.437240623921019
Sb 10.342895570201096 7.5557258530118006 9.93127409423346
Sb 7.194373912567807 5.817697303682244 0.5108409792219212
Sb 8.012367352619751 4.692057160202392 6.681117570385135
Sb 7.400634463383206 2.2581240148643023 5.228760693955933
Sb 6.1568698873114265 6.033788304908256 12.195190089373583
Sb 11.120794111413241 7.484606545516702 7.122028627726694
Sb 5.078726263008986 4.451480862500287 8.447348017350627
Sb 11.141908911585992 5.58870607615692 3.420663898445906
Sb 10.906115892804655 4.755733025239932 6.179873331043105
