35
Energy = -134.29659196 eV
Sb 6.217548512151712 9.228152095411708 1.951472306429058
Sb 9.731650374159296 10.579138032437793 3.223630181591174
Sb 12.953707275044065 8.519316701181818 5.1038028078086715
Sb 10.431571319242789 7.8466150428414805 3.859733118240752
Sb 10.680809766292414 3.8820018445289812 3.506629946874484
Sb 7.33261909944169 6.593275363523618 2.3109120925211206
Sb 12.870025252088768 4.296607124762114 5.266353941731461
Sb 10.804188914275892 12.40849302277817 5.2052221399006
Sb 12.433490093793877 10.73733778370342 6.876746832512532
Sb 7.089098874333214 10.808481546299623 4.198093037960387
Sb 4.546249963362349 7.046188655034569 2.8033132042953812
Sb 12.316210584417076 6.496227152551373 7.083274974862282
Sb 10.927658882085737 2.33602733337828 5.9867151912338485
Sb 6.324149465372218 6.745210489239927 5.04997666617266
Sb 8.900279134599513 4.369307910834148 5.753976891301361
Sb 9.555674734741553 7.114126424098265 6.5065676702032205
Sb 9.785509643352304 11.51248129950762 7.750152274874613
Sb 6.1810079430444365 3.932090706901782 5.54731545640921
Sb 10.866194082090027 8.49575634974144 11.206383651031022
Sb 7.562246080891673 9.770907988812372 7.042247271374038
Sb 11.148453601187423 9.513236258352473 13.711428065616373
Sb 10.28011023315471 11.25117282507635 11.594232344738447
Sb 5.664174705233299 11.913413642553518 7.552665149558779
Sb 7.527699131345805 8.468294148940817 9.817617418700749
Sb 4.683930936977351 8.32726367561597 9.735910788227391
Sb 3.800700983614265 11.06145479874193 9.721328607819533
Sb 7.411979957427007 10.652221710510064 11.595478527306126
Sb 4.016844041406645 7.988754252077783 12.579689921812285
Sb 6.042718327619158 12.762966640437373 10.25987706868396
Sb 7.96104149144893 6.235462032240394 13.548597120364642
Sb 10.074678352039257 5.7729207036629075 15.424525938002686
Sb 3.0239963934210885 10.658144149291497 12.904443374557784
Sb 5.513309517766877 10.004331714564024 13.927414518613778
Sb 8.577862939737235 8.219261299015075 15.476346877945138
Sb 7.359976827459338 5.713332019523878 16.305634327371713
