39
Energy = -151.27191235 eV
Sb 9.720178540848647 5.374403887406482 4.872075628638623
Sb 8.005120489021394 7.223975919095138 3.3341210527112053
Sb 5.813918303005132 5.400228890262414 3.8464534436992213
Sb 11.936235442790418 11.52681224967547 5.406430035131698
Sb 7.258971031432779 4.8912505629318614 6.316580251059193
Sb 7.679154547137698 11.511505509489472 4.057883020707387
Sb 10.8391813463027 9.017781540843245 4.5969498559422615
Sb 9.597275593046765 13.259764152525603 5.387499742832656
Sb 4.979212482772994 12.014836862440733 5.090966788044287
Sb 10.609077519295996 7.280190552178085 6.935350876887314
Sb 3.644106068936667 6.85245817815207 5.142757039023543
Sb 6.601472601508418 2.119421982699277 7.073811488333272
Sb 4.697322759681359 9.35800880267775 6.156194698587926
Sb 9.14655482389044 13.246142327521776 8.234030748424434
Sb 12.627038149379715 10.913068763163967 8.181691290089061
Sb 4.920720197649648 6.614234309040027 7.80020431117075
Sb 5.903012013490275 12.48611719510754 7.7987717294205705
Sb 8.027053819813409 9.096029042153289 5.558911934062503
Sb 8.917843090834147 1.4730770752426816 8.73595017608308
Sb 3.498910374804493 4.770224577605645 9.478073392277647
Sb 9.828865048849394 10.520102925238016 9.006260734635314
Sb 11.8961092349962 13.459449374223976 9.31656938040139
Sb 5.580728892966861 2.749952730620932 9.709785825403321
Sb 3.1039949853973687 8.585236264963275 8.94448484491109
Sb 8.14823731089664 3.601493611363155 10.692049535056121
Sb 13.199568202746361 6.494373831773458 7.960745924931809
Sb 6.755912237550792 9.772001164427946 8.734122357970499
Sb 4.297579446178821 11.112500923288152 9.879021895441166
Sb 4.167658338503646 6.9202388365915075 11.31559535356603
Sb 13.209085288523646 8.400615812453841 10.378006463529635
Sb 10.627603091049336 7.361372339824747 10.546722037644821
Sb 10.26888603232621 12.138138996782676 11.395188597526927
Sb 6.953680623490406 7.026588707177431 10.688906276014892
Sb 9.689559427458017 4.210284432002997 8.350128256587718
Sb 12.011189840057988 4.80709164762784 9.947267814804684
Sb 7.014453000072634 11.38812240056907 11.174377936847362
Sb 10.110176059064798 8.37367889719603 13.235435623351549
Sb 12.088696131736988 10.308441612379566 12.564980917887096
Sb 7.269418010571462 8.984543509363558 12.799403118443095
