38
Energy = -147.17961889 eV
Sb 11.015770568303871 4.565159602587792 3.8660249183151008
Sb 11.974584608553283 4.180602512428295 6.564216917725766
Sb 9.289774331998512 8.492420483930388 1.3894185083397923
Sb 10.793512312563465 1.968319791646448 5.1214543225684634
Sb 11.126731049703615 7.310512890645009 9.038540961309264
Sb 10.110431929764893 8.426516895539516 4.17109412279648
Sb 7.670038171724653 6.033968930435729 1.7325478719376326
Sb 11.533957168346449 5.396988372184838 11.200324837291866
Sb 8.35645764475866 2.3376930010710977 6.6788447741791135
Sb 9.547654518039177 3.591428469334476 10.056504308782987
Sb 9.533662302481247 5.279936718352991 7.712334660947826
Sb 6.52687850656421 10.931002980245621 3.283622721254168
Sb 8.534346467715137 5.966228090199727 4.495828920316798
Sb 6.434789028137662 8.651582715987104 1.4975385007020812
Sb 5.450549138019623 5.031220983302087 5.484248277417013
Sb 8.793219578382134 8.049962224066586 10.59864090016663
Sb 8.744327152379157 5.537148643936309 12.012383384102314
Sb 8.631023239190192 10.677438825574711 5.1797509519474785
Sb 6.937447690400913 2.899574992190409 4.233515478334311
Sb 4.003370772576549 8.062177675480278 4.789474844461774
Sb 6.09446223059541 4.0168505586610195 8.564359722325763
Sb 7.655160205379256 10.37162265170278 7.89618398597788
Sb 4.605009926005117 6.518911934562534 12.095437571561387
Sb 5.512117320833671 9.066952810746097 11.067285979109467
Sb 4.64402006351241 4.865489313108664 2.5911684394001493
Sb 4.433435833027061 12.088765780552485 4.91724420707273
Sb 6.585759546132419 7.791448610121108 8.707039209087977
Sb 5.147904488172884 11.746471222106731 7.704376837634221
Sb 2.7617832406994753 7.081384461134819 2.4136241151056885
Sb 6.13423186289827 0.6404856996734669 5.883277554598516
Sb 2.999970893265148 3.726736475885447 4.84135921732789
Sb 4.287659546340822 2.155809484271082 7.523554371313427
Sb 2.749925957724931 10.139223768242495 8.030381954486353
Sb 3.721259314194565 5.071099263916327 9.767313709834148
Sb 1.6580405847228257 6.366159091460962 5.0116400737660705
Sb 2.6636850381340915 8.526953019487442 11.246254383447392
Sb 2.1841695879618372 10.239703230284977 5.168744609680348
Sb 2.3076130805372594 7.350782724681747 8.619178775113351
