37
Energy = -143.26509773 eV
Sb 10.899482382266095 7.896427323167713 5.547905024539373
Sb 2.661775331439594 5.037304592026387 8.53506906740881
Sb 5.487439474922283 2.7832529320540473 3.2660820191549185
Sb 3.219874289012494 7.89608441265776 3.0214010738817194
Sb 6.668319700120176 0.5273959167665194 4.701484038483075
Sb 9.039714180093684 5.652721441407202 5.602375934729354
Sb 6.525480838944382 7.244660031449096 4.933020251743288
Sb 5.0501600573483305 0.978356131959228 1.0369074929179676
Sb 3.5554471284811497 2.367209036595436 7.547635852186149
Sb 7.373394385047359 8.90334570786653 2.746797943318677
Sb 5.807304680877916 5.82524615183676 8.52438744504998
Sb 3.6351406244897184 8.683753585650534 7.229551454336883
Sb 4.5338143275135145 3.017647078078045 11.213780116278372
Sb 0.3781992253256857 6.369200229236488 5.72887633514974
Sb 9.453997291889726 3.103120466374964 4.437996360864324
Sb 2.3461307347021565 11.30172675713029 4.231652342673311
Sb 5.709618465789444 3.8613029926144 6.376649554118575
Sb 6.117155726795009 4.1732360525703 10.85414033789938
Sb 5.360630768189314 6.488877480411999 0.8849219555816297
Sb 2.7160103453899476 3.6033269012129465 3.299853016831473
Sb 0.9243429774835376 7.952878772697504 8.090524241426873
Sb 9.15949598688048 10.105297540246449 4.770055647132018
Sb 9.704830018640754 8.247870268732148 8.161885514240613
Sb 8.890876353953582 5.480260272170475 8.433218175649824
Sb 3.241696649596646 4.036381852107094 11.213780116278372
Sb 3.2753621285683803 6.329799567099544 5.508903365511008
Sb 4.301935933758159 11.742277286471506 6.088201270784661
Sb 7.359897287646689 4.754246578284129 2.3249128513665758
Sb 2.955395949404388 4.905341902467902 0.7371535121361961
Sb 8.004091113825933 2.104345057900069 6.705862990606953
Sb 1.4321728091240933 10.297952394820756 6.356307086619763
Sb 2.310540731648881 0.9996658272953584 2.000918319539399
Sb 0.6059757302905265 8.772746661827712 4.073522190051856
Sb 7.290719120016586 9.29851036225877 6.8451951795703705
Sb 4.99738774155025 9.89016181313977 4.125235979551038
Sb 4.71444527456199 1.7829498365182754 10.142150340175045
Sb 7.0102666766081425 4.444786651339287 11.55457928436761
