34
Energy = -133.08473939 eV
Sb 11.381125486042333 10.28188142114428 7.028226483051948
Sb 12.515687224019256 7.869322616307134 8.031607743207124
Sb 11.067148957985692 9.433772440453323 9.750702752406204
Sb 10.876301799487493 6.128863491305651 5.664690912645346
Sb 8.833742898034867 9.2255274046791 6.086779732011112
Sb 10.290128237246797 3.2724172885819804 5.4110137049971305
Sb 8.439987382640755 10.643743349494905 3.551788500145047
Sb 10.02846897222162 4.8042864581002105 9.53003446731711
Sb 8.121199884373192 8.06239491859782 9.822426072432718
Sb 7.131727476355356 11.10654174724943 7.448533498160966
Sb 8.108613561832284 3.6526751462144684 3.5312313003817453
Sb 7.6279873349461536 8.375818054840348 1.9180618209560363
Sb 8.591458967745574 6.30344540655445 7.504983569857204
Sb 8.313097734297312 6.529843145159498 4.156042039524219
Sb 9.604035118904871 2.304541970640297 8.097752508060204
Sb 7.674012559794274 5.45076555222917 11.14575462477605
Sb 5.545737537006897 9.236005986079002 9.011248616170477
Sb 6.130609415275481 11.898713874170607 4.834293240185524
Sb 6.043790012522358 4.6407061300782635 8.875059473575712
Sb 6.8480408130423545 1.9061537307612004 8.85766946947489
Sb 5.404891987735558 7.91293907909505 3.724282458237623
Sb 4.71992655233835 7.286864248949443 7.016083618836449
Sb 3.9309513722023963 10.359829679298523 3.7908661317168515
Sb 5.952145847005699 4.215589265945885 5.390197571998309
Sb 3.1842210201943084 6.454922407937974 2.570370124557385
Sb 3.34184970383855 4.012228529926179 9.688920797529116
Sb 5.529661742769844 1.5025519498327276 6.317742775394839
Sb 2.7656756726140035 9.319866569636167 6.223090501039264
Sb 2.43081532871552 6.548019253969364 8.663781509267436
Sb 3.871553351110664 3.7841550148487566 3.444553732819665
Sb 2.9791512384737104 2.0149505061747663 7.57588391874569
Sb 1.259848218994359 7.569342989764536 4.483371805838244
Sb 0.7223972479164289 5.628711022673137 6.5423754047945
Sb 1.7227090407827421 3.2513090477723456 5.2992788183542086
