34
Energy = -132.05338568 eV
Sb 12.07269166982298 10.241076402475652 4.1625337410851255
Sb 10.918863115593513 12.544576514853087 2.889230339680559
Sb 8.68769784333409 14.568444056095553 6.362406829497906
Sb 10.490503588808751 9.910243722431668 1.784868936999044
Sb 13.107646671049032 4.383729996029002 8.906482060143555
Sb 12.021990051939717 5.321588373278465 11.465905620265627
Sb 10.11894434724801 10.382419442802398 6.311591250775903
Sb 11.320600055659792 6.266845763205332 7.623906875334537
Sb 8.53282870852621 12.058226062100108 4.545184712864477
Sb 10.872189262598075 13.042666197936999 7.35892486077474
Sb 11.279970846398749 2.248690546659245 9.376271821038607
Sb 10.26504306549822 2.0086706796545544 6.721746784741261
Sb 9.627479473318491 4.676776463394549 5.891791138102033
Sb 8.440392600216107 13.263853290592166 8.882861347462876
Sb 9.521080559758701 3.851915949913679 10.977463043503441
Sb 7.718016436053803 9.91718459351347 2.5731016983160253
Sb 9.787882584793142 6.539785967809275 10.030096437723714
Sb 6.302014609425971 11.290234573713791 8.498515183344242
Sb 7.587318555749058 9.766582532105959 12.584369711444232
Sb 7.826782584066789 8.454362174119955 5.01360338312817
Sb 7.140577405184307 5.072489498239004 7.311607236091076
Sb 7.065768045088149 8.485985305762343 8.628368480202402
Sb 6.3150909734436595 7.587705333312071 11.293747509989457
Sb 5.681587516183012 10.773430909443277 14.444678542384478
Sb 6.132227473962764 12.125263706672223 11.885845022375666
Sb 5.596432684461172 6.527624084804568 5.212881020509476
Sb 5.793405995459659 10.492274772113705 5.73936518032877
Sb 7.787136923809699 0.8481330309476149 7.583161178036155
Sb 6.610669353310237 2.724316143521268 9.383935388382197
Sb 5.769152550807414 2.6250049408726395 6.6108740750343715
Sb 4.5386286395423445 8.302503968368875 7.223644940879438
Sb 3.592896258174936 8.383317416316128 11.15459274928811
Sb 3.084073589740753 9.87978478898566 13.524115546737935
Sb 3.546617385938289 11.205021519837596 10.945911135282508
