31
Energy = -120.00161265 eV
Sb 9.957676277952963 5.3102911926579885 4.762162107618425
Sb 9.368010205675423 8.03707668691959 1.4060001655833367
Sb 8.797291807158487 10.673260308962668 0.3790183838284132
Sb 11.80399875386728 6.609762295524523 6.544065555417933
Sb 7.011062870533342 9.47393525690195 2.234148257374842
Sb 10.702933583739329 4.647277441228254 8.397397566294467
Sb 10.9784934658903 9.214662906325188 3.543314352432851
Sb 9.444450979722406 7.992686427427302 5.673181758548644
Sb 8.147883400655465 5.286837831194063 7.218667674355065
Sb 9.03015592035916 11.318281235582942 3.221251949316908
Sb 7.215458155393855 3.344058451115582 9.19297769715469
Sb 11.337153097396428 11.71865975116112 10.850602577520478
Sb 10.371810594671803 5.2217601671026435 11.246519609654008
Sb 9.584751614491026 13.764909488513963 9.850368871693593
Sb 10.653576160873369 11.614126781239875 6.435462525615935
Sb 12.107286889836157 10.264291852894527 8.530549576156739
Sb 9.7302004604706 9.496616807069103 9.963250428386678
Sb 4.625543605831837 6.355288715316294 7.43809377233506
Sb 7.727283313757166 5.93928057011619 10.335031066069043
Sb 11.228186301585838 7.906999972451175 11.811471180479105
Sb 5.807132307899191 8.693033271326223 8.623302739083693
Sb 10.431357346201352 14.389317423515182 7.181652908028011
Sb 4.440992029663002 4.291932483537492 9.418058023937746
Sb 5.235805567873615 5.642474113437654 11.819122739982344
Sb 8.220899846390894 12.599448309629086 7.610178671533292
Sb 4.496621820434085 8.344234877269727 11.176590661795437
Sb 2.955545463487018 8.315324897746104 8.745152762604489
Sb 8.704082528456109 7.781924392645846 13.564726673481537
Sb 9.090998159092385 10.133290541918356 15.18120735626399
Sb 7.3067747143776405 10.214096057257207 12.934060672238777
Sb 6.4955842385510945 8.97295000008802 15.382797020646189
