38
Energy = -136.19750566 eV
Sb 5.7953612865777995 8.3651368291837 5.7953612865777995
Sb 8.287195490445269 8.287195490445269 8.287195490445269
Sb 5.7953612865777995 10.338683849999999 8.047649518651188
Sb 5.7953612865777995 5.7953612865777995 8.3651368291837
Sb 5.7953612865777995 3.225585743971904 5.7953612865777995
Sb 5.7953612865777995 5.7953612865777995 3.225585743971904
Sb 8.3651368291837 5.7953612865777995 5.7953612865777995
Sb 3.225585743971904 5.7953612865777995 5.7953612865777995
Sb 8.287195490445269 3.3035270827103314 8.287195490445269
Sb 8.287195490445269 3.3035270827103314 3.3035270827103314
Sb 8.287195490445269 8.287195490445269 3.3035270827103314
Sb 3.3035270827103314 8.287195490445269 3.3035270827103314
Sb 3.3035270827103314 8.287195490445269 8.287195490445269
Sb 3.3035270827103314 3.3035270827103314 8.287195490445269
Sb 3.3035270827103314 3.3035270827103314 3.3035270827103314
Sb 5.7953612865777995 3.543073054504413 10.338683849999999
Sb 5.7953612865777995 1.2520387231555956 3.543073054504413
Sb 5.7953612865777995 8.047649518651188 1.2520387231555956
Sb 8.047649518651188 5.7953612865777995 10.338683849999999
Sb 10.338683849999999 5.7953612865777995 3.543073054504413
Sb 3.543073054504413 5.7953612865777995 1.2520387231555956
Sb 1.2520387231555956 5.7953612865777995 8.047649518651188
Sb 8.047649518651188 1.2520387231555956 5.7953612865777995
Sb 10.338683849999999 8.047649518651188 5.7953612865777995
Sb 3.543073054504413 10.338683849999999 5.7953612865777995
Sb 1.2520387231555956 3.543073054504413 5.7953612865777995
Sb 8.047649518651188 5.7953612865777995 1.2520387231555956
Sb 10.338683849999999 5.7953612865777995 8.047649518651188
Sb 3.543073054504413 5.7953612865777995 10.338683849999999
Sb 1.2520387231555956 5.7953612865777995 3.543073054504413
Sb 8.047649518651188 10.338683849999999 5.7953612865777995
Sb 10.338683849999999 3.543073054504413 5.7953612865777995
Sb 3.543073054504413 1.2520387231555956 5.7953612865777995
Sb 1.2520387231555956 8.047649518651188 5.7953612865777995
Sb 5.7953612865777995 8.047649518651188 10.338683849999999
Sb 5.7953612865777995 10.338683849999999 3.543073054504413
Sb 5.7953612865777995 3.543073054504413 1.2520387231555956
Sb 5.7953612865777995 1.2520387231555956 8.047649518651188
