37
Energy = -143.31590767 eV
Sb 10.322599236734147 4.759190786614144 2.528146919455422
Sb 10.720317099402074 6.581503783487768 6.087343045765341
Sb 7.973961167678557 6.072126533379931 3.868593106460015
Sb 12.58338192577246 5.2151017709626 4.242019102289371
Sb 11.937758381869978 7.06788250723157 2.2307868707194642
Sb 4.4677921053795355 4.834304191332196 1.9161982419308072
Sb 6.808275001293455 6.48839950830407 1.2683355697092966
Sb 6.293852736855315 1.3029220227644671 7.132258143908054
Sb 11.151719336954946 8.714858946882094 8.00888464891994
Sb 8.643010162205075 9.47563515763865 6.731465225678602
Sb 10.492831197889808 4.748448230753452 9.919801413536517
Sb 9.666147956440213 8.392168490774324 4.079926096932023
Sb 7.8661383639708875 3.7784549070015836 9.110250793335528
Sb 5.908221470850094 1.6692859091174053 4.3287460204213914
Sb 5.271604694436057 8.913066411843317 1.6327132171124272
Sb 6.295971205596722 9.686614904128126 4.096018584418381
Sb 9.322941622253357 4.114685437602267 12.521541938972257
Sb 7.67321538363852 6.841410359394421 7.429444428964102
Sb 2.8394244178850205 7.163449715624647 2.6430078040496094
Sb 9.308209807445749 7.364281454889175 9.80299164035075
Sb 4.414961505890464 11.846866401756849 4.354033050974481
Sb 4.880735142472897 4.331705423345006 4.727952564172121
Sb 4.040590398114363 7.815805394621948 5.2215914789548
Sb 2.2915837429575685 3.2002296390207245 4.327099878110104
Sb 4.060533855409793 12.263459176616749 5.759211657073272
Sb 7.696071128170904 2.007880350428433 11.417909800847953
Sb 4.201894468819635 2.7906491707301146 8.560632396588039
Sb 0.8693076188772537 5.710384675572985 4.568162034328761
Sb 2.208702498719173 10.027956947305396 4.85966845170882
Sb 4.397503303664906 10.062918119972688 9.024646003616091
Sb 6.622954692950035 4.661577494299689 11.583953591123453
Sb 4.796163052794734 12.263459176616749 7.2076398261133585
Sb 2.10447133175417 1.8217500109356772 6.854611117732428
Sb 3.2137366160252685 5.496861807786469 8.854338173344209
Sb 1.7373321713852503 7.00736316446665 6.897413755467747
Sb 2.1484901923365523 11.05638558394166 7.585207645461942
Sb 5.382755505881756 7.349209804563379 9.232616262229872
