39
Energy = -151.63452582 eV
Sb 10.583618011720146 6.110399712098103 4.281165431351424
Sb 11.87731638877836 8.493152515751953 3.3422672088129866
Sb 9.870897882115527 10.249203766570467 2.103527288514521
Sb 7.343132633737554 8.943941270987958 2.664192706390187
Sb 8.313365271987832 6.231119568591611 2.5658342190750467
Sb 6.289129846338759 4.873409848135267 4.168186745221757
Sb 11.567413772382931 9.50290108828282 6.071313022370023
Sb 9.000171679623879 12.13562841760901 4.155697548340724
Sb 8.133489585580316 9.630259345914174 5.328734335839537
Sb 9.666138788816781 7.22859395206708 6.903341940749339
Sb 3.9143656497862276 11.196337097817837 5.997700642547316
Sb 5.101906512834801 6.814132266478554 5.98896816911676
Sb 11.554024849008808 12.306267048642196 5.479117865790173
Sb 14.036178246061171 9.514124951831208 7.512726835524525
Sb 7.390460755433819 5.28991370345276 6.79401049360814
Sb 4.126856659237471 13.122245277054407 8.111264046883685
Sb 2.0137228655022774 11.206344740974226 8.193551694898616
Sb 9.438989636313956 10.223965253837498 8.665924957515847
Sb 7.25344374718935 7.497742126954149 9.965572252575692
Sb 13.13631825352129 7.722298526667634 9.625636806589364
Sb 6.402681193128774 3.6372381246072973 8.948761813037033
Sb 6.002065572890409 9.61876127337273 7.322293295498553
Sb 10.767772411003522 12.78589183997339 8.218883010858857
Sb 4.736108194649688 6.145049057256659 9.234455558428788
Sb 6.758701948165013 11.913873086338516 9.11383899223845
Sb 3.632439564468382 9.170816500909687 9.544169480128488
Sb 11.717855775121254 5.617074182072753 8.282922526928704
Sb 11.361150695596917 9.730395360533189 10.769567535648461
Sb 13.167331650617081 11.596233308917778 9.386233256766287
Sb 7.850640709174875 4.888212282601439 11.094458425399397
Sb 3.4473508680092815 7.237566412115541 11.747908328863415
Sb 5.0464798055480715 10.966956296372684 11.235148850305416
Sb 5.9919813334017435 8.444275665492823 12.426345786644626
Sb 10.665996375204598 4.349524146206447 10.692646781994359
Sb 9.319714916841736 7.951899672376974 13.03744735151159
Sb 11.636173646671889 6.2212136948173 12.665159777230333
Sb 10.48006222101662 4.9612609683490545 15.00587325619252
Sb 7.7953160263817844 5.933573934907431 14.500515145182877
Sb 9.662297052235928 7.591264709158421 15.90769761152607
