33
Energy = -127.05466875 eV
Sb 6.125114286191887 5.063471955288903 4.718629683675214
Sb 6.38126281714096 7.871738384130221 5.22518397282878
Sb 9.908291640565505 15.297294006338152 5.123803374507081
Sb 12.638781987905443 6.531064686733037 8.10194899607057
Sb 7.203262649373432 4.4546293557907495 7.752285861985142
Sb 4.366928831425887 4.62610988233658 7.98234861421193
Sb 8.528635480320553 6.903607594218903 6.909786182500362
Sb 3.9370147190621467 6.498802191399185 5.83222382076184
Sb 11.55072805292512 13.770954778575808 6.967253890458382
Sb 8.071116570161275 15.194719656722361 7.356109219122347
Sb 10.302479730647605 15.135890326676547 9.220525534891651
Sb 10.437206805339258 5.6628478741440516 9.651275320398685
Sb 8.972096147418425 12.751492674293436 6.073788448293762
Sb 12.802650790826108 9.374630454141158 7.557249271964931
Sb 4.124965147762947 5.544590293353942 10.689933901331337
Sb 6.474973075226195 10.302341283653094 7.950406382964763
Sb 6.382490829401709 12.600207446124669 9.71756607980028
Sb 15.45121656992789 9.037248267670332 8.866141416642005
Sb 9.292766487312864 12.528203276715574 9.92334963958671
Sb 8.946886092789901 9.157247048021652 8.73698816002314
Sb 12.310428353595313 11.301375544506358 9.6691112816673
Sb 6.79788351137343 4.618234332023432 10.861535258085468
Sb 14.80029864117565 6.47765580607368 10.021912040265967
Sb 4.63827187640542 8.444217324669681 9.638168672225852
Sb 14.947155496404104 10.954043960951749 10.96797563083763
Sb 6.483131669710039 11.56435265980138 12.404045793737502
Sb 10.702883219478624 6.939278462044856 12.097845729659925
Sb 11.146430884854714 9.843898146997228 11.900870175715768
Sb 7.234543234807616 7.4360324448096575 10.391667600365302
Sb 13.75654791588933 9.669799153020488 13.22982945611771
Sb 9.34644963398509 11.965402803504833 12.753879213775647
Sb 5.577961408950001 8.835187092610575 12.354288690656215
Sb 13.582885787390685 6.86717117840227 12.575813030615642
