39
Energy = -152.04821429 eV
Sb 8.01677992951546 8.325999661966174 4.471253577219577
Sb 8.329127572173801 11.009324708349343 3.427134697143335
Sb 5.461975817838777 8.112625265161974 3.2855275623085727
Sb 4.641856852796987 5.785974753892407 4.7675190445596245
Sb 8.937763993879992 3.4982788999327354 4.334037845451568
Sb 4.845773275676461 10.070327035901293 5.581274512690472
Sb 6.177763853751629 12.47493660600642 4.714974803707622
Sb 7.15205074603115 2.2076110924192562 6.15722890139117
Sb 13.375553624918242 9.73383511706853 6.862056810620856
Sb 10.675992505668285 11.731524294079486 5.050245325036173
Sb 7.584836553341054 12.069887912455048 7.169569914596568
Sb 4.39623616418869 7.230890010942049 7.322404086392944
Sb 14.5063042157211 7.560128807179353 8.408816549853757
Sb 6.909781036791694 8.777418184384427 7.2695785926435
Sb 9.719395585512395 13.930322049957097 6.715240524281968
Sb 9.819946017508835 2.8629406573233065 7.007737563843503
Sb 14.583788750756531 10.252064434183097 9.421776454994896
Sb 10.507074719012907 9.9336761883057 7.3608148179085084
Sb 3.203672810551239 11.519547612382178 7.487822628751799
Sb 7.1730043763160865 5.091631418842931 5.9667650328923765
Sb 4.950753178217345 10.22582744386308 9.274417723574867
Sb 12.153176128766878 7.099279255416245 10.023198424502509
Sb 9.239224145877325 5.284579809026267 8.594719607841451
Sb 12.586644728797532 10.400146853250162 11.553034805246936
Sb 6.080589574279893 12.888941952624466 9.59004416642513
Sb 4.943925665272345 5.694111655500236 9.745368041090282
Sb 11.37049428753549 4.3224702642146395 10.333811772397006
Sb 10.997639758252971 12.408754230163874 8.855633582466483
Sb 9.857888721775524 9.312011137940768 10.945869703461623
Sb 13.25351670367846 7.7431489021637 12.564962867094412
Sb 6.868772452214161 7.522106124478891 10.91304178992363
Sb 7.144317726879894 3.7873583881224215 9.885734341020642
Sb 4.865694216489847 9.222089757100864 12.181007381510257
Sb 10.123667135118248 4.931975742229029 12.878424404580677
Sb 8.84606123352426 13.249096673572904 10.624540837556262
Sb 8.981720195248228 11.393915392803951 12.798995796667894
Sb 10.470143701470635 7.746095822564313 13.363702028634043
Sb 7.257450356886592 5.087051832739761 12.476965812350356
Sb 6.124871167048944 11.637323530776483 12.74997714665317
