34
Energy = -133.24968054 eV
Sb 12.854224835087468 7.710072869226672 6.196889604028983
Sb 12.189927097157266 5.202276843653234 7.557593047227057
Sb 10.695593468646493 6.666899885846222 9.557673586749683
Sb 10.812928853459805 9.03335787730748 7.805860682215122
Sb 11.591147150005929 6.71585218222556 3.7536404134771137
Sb 9.371814153624618 2.523401341391103 8.433295318909192
Sb 9.963040391850468 5.2409938738485 5.649151447634434
Sb 9.954760317178126 2.3577640335037073 5.5612796655512
Sb 8.37623009169788 5.277232790350343 8.484580368949993
Sb 4.895604780030322 10.671727729389312 9.892105370018236
Sb 9.752978116176994 8.955620393229548 3.624961352482935
Sb 6.524841799485586 1.9917440700318636 8.854503760102013
Sb 8.535031449499858 8.432031486051384 6.153775259206726
Sb 6.586734778734706 4.368408665680864 10.5669946109792
Sb 3.8934668932814347 8.259292197685035 11.174409145331094
Sb 7.037743802572412 10.913489197914924 5.888549529137175
Sb 7.272769874856379 1.6626626859203595 4.683682957608395
Sb 5.021744688700201 9.38062771915273 7.260723145560413
Sb 7.36151445264225 7.794582561635518 2.429440597960702
Sb 6.936242949891214 5.841590127416287 4.566597095809255
Sb 6.811688085407641 3.638201942626517 2.6493382063627826
Sb 5.833400635724089 10.06316650539094 3.3520178675225707
Sb 2.135327827501345 11.376976062263942 9.449610214293413
Sb 1.233051765957201 8.706706572347892 10.094717804335788
Sb 5.7110705616316135 3.33133465772587 6.423958458413413
Sb 5.390083879156279 6.7427186413282545 9.231647406752808
Sb 2.4890971822762875 10.434944065865823 6.485465164663068
Sb 4.093616840997024 6.373220196039575 4.87498823499829
Sb 3.2716232379954095 8.862837448859631 3.8232912534610395
Sb 4.127408035428403 2.5567654919423477 2.5092576721011346
Sb 1.3311892036493003 7.896539189011937 7.299437895460923
Sb 3.246436767641529 5.739241298032611 7.578923821531359
Sb 3.3900510159737376 1.9887506698680906 5.244306030298873
Sb 2.3076150160777686 4.288968727233308 3.887333010863706
