37
Energy = -143.81721623 eV
Sb 2.473253867134134 8.319453895883472 2.9265177169907095
Sb 0.8269568681286807 7.528825569803451 8.033384959714692
Sb 1.3320287299352944 6.636496053949718 4.949389490720139
Sb 2.9495258189257894 11.178899119540873 3.431009207569976
Sb 2.8323177470454195 9.473217522312655 8.703478275746454
Sb 5.760618486169361 6.707855310396067 0.6298663872474165
Sb 2.0459712001361803 4.939630776572478 8.294839765746064
Sb 3.7060159007060083 8.100472951308664 11.059956742704703
Sb 7.101449413228827 4.328738394715906 1.5046553722455789
Sb 5.204814864194484 11.52753570009513 5.174824051464997
Sb 5.632585578774038 10.600231116498513 2.4982257879029266
Sb 3.7822757033278496 5.707910084515999 6.110375989925711
Sb 4.989113194377522 8.853565475324286 6.2643813596930435
Sb 4.236045233757014 3.228710111209031 4.662871526843403
Sb 3.807867990480421 5.279269469556459 10.53020048751541
Sb 5.265079296564096 7.814493039790363 3.3418993132475165
Sb 6.884719000506729 4.370296134171821 4.4374016842817365
Sb 8.570178568002536 6.764536415519855 0.9429105569507783
Sb 7.626947828819096 7.9345676878926215 6.806507083898329
Sb 6.261205540280039 5.549695511602564 8.972935778320391
Sb 8.578965967951051 7.154159790168436 3.8509331145731847
Sb 9.0306778205077 9.786105941486548 5.025579213324957
Sb 5.608173797682996 1.4057738108857993 6.489100548825465
Sb 6.474453007123571 2.6396827462613226 8.954077579784856
Sb 9.625174176049013 5.302364413066488 8.228851830518044
Sb 7.763171915853413 1.6242744934843678 4.566307719451492
Sb 8.969662844543837 9.221435037924792 9.149281260727712
Sb 7.465030375064089 5.4719586889188285 11.641776764443774
Sb 9.101063014789847 7.832973625561275 11.712208285127007
Sb 9.343112054059102 2.3722958488544643 8.780057190422921
Sb 10.28661398426735 5.276567233043426 11.099193036888204
Sb 11.320914819782423 7.847161069388166 8.506308787640368
Sb 11.327270050403595 6.260287223486049 4.221586109139354
Sb 11.617031298394078 8.719516951737619 5.75930404293262
Sb 11.59726619490922 4.336113358403678 6.334630751963032
Sb 10.183448555075168 1.7598475833974143 6.109294864147038
Sb 0.9189992930487687 8.645081843269972 10.795877361359068
