31
Energy = -121.32346085 eV
Sb 6.648671498189764 11.038363725429786 10.995294974050434
Sb 11.259023051449738 9.088085649600435 7.751710315524524
Sb 10.098009015385346 6.686057661241948 8.883891857169145
Sb 7.653871755190181 8.461226308255739 9.747720228738057
Sb 12.388868774764227 8.168966422053524 5.207282289630792
Sb 5.264976129049104 11.358399517330396 8.512811690380351
Sb 8.70031672731303 9.379516438027592 6.3412142749039715
Sb 6.763683186486936 4.49474551834793 9.95907797364021
Sb 3.852016842524547 10.489313836259978 10.88595294937204
Sb 10.548570708658096 10.179793791340591 4.3114493679285335
Sb 8.616350236585431 6.455145936519061 6.424599560165195
Sb 5.978250315397933 6.820415663692952 11.466119437787832
Sb 5.577532276195401 8.515795208253504 7.708303673946596
Sb 10.826225611315966 5.809010253993695 4.734939322120371
Sb 3.755606001885898 7.738366177071206 9.881524990169476
Sb 9.318515601713539 9.176053502295119 1.9080250729903676
Sb 9.290079203770016 6.3435454480300875 2.3413518587511213
Sb 4.601795808585818 2.589516826435321 10.413725665705986
Sb 5.571785436202692 5.0074976467854615 7.3440331141411646
Sb 7.170668010760826 7.97819715643513 3.4267726927656983
Sb 6.878144298564286 2.537372617385237 6.548845597031891
Sb 3.10489045909341 4.143447611572274 8.525847966502496
Sb 6.079501425559282 0.7896806479868915 8.71431372224275
Sb 3.766948164355579 6.459343706533663 4.8175082524765465
Sb 5.312118107964843 4.351650266399833 3.58301354300056
Sb 4.716942187001471 0.7051198211074071 6.194546059422598
Sb 5.523849887522784 7.919768788692724 1.0470643939976085
Sb 2.3267560987183913 2.2435411219144665 6.557872321891855
Sb 2.923342996502104 7.389973049678016 2.1562033413954684
Sb 2.5250746308521617 3.9253394103820956 4.163870003888713
Sb 4.457615552439138 5.256750270945699 0.945113488265396
