36
Energy = -139.24911235 eV
Sb 10.200064744626083 14.933227614981812 8.947560651024167
Sb 11.12783833607524 13.750116197856656 6.525832639893238
Sb 11.546050745893128 12.967111245608526 10.82561222789173
Sb 11.660358267172798 11.326000857063908 8.434413654988186
Sb 12.82770855516502 8.69748627982137 9.230698276948537
Sb 8.88250556081425 13.179274883671955 11.901818484333429
Sb 10.485986033378486 9.468346095284353 5.412311763112308
Sb 10.472782234298512 7.612908186182657 10.582444797844891
Sb 12.484541560315312 7.612442807746315 6.573922342229608
Sb 7.56540334812229 13.863995422886127 9.403120720510234
Sb 9.004382418383743 12.493687302267814 5.312317792046183
Sb 9.259823479512157 9.791016976775861 8.057625941494189
Sb 8.843076073727467 7.2843350345035 4.4021617593671705
Sb 4.138695622755397 8.629162385082385 5.561038727763905
Sb 7.253038844971062 11.772928034346785 7.4466135560296545
Sb 8.443023836365008 10.601001262926992 13.196699678680304
Sb 6.322201804556379 8.441370948348544 3.6134612645481816
Sb 11.173711717455657 5.100880662518721 7.142952266447755
Sb 4.694975343279419 9.54267929192082 11.91697750586945
Sb 7.322767530507398 9.52743979936729 10.768108614021571
Sb 5.886447905419221 8.252843560790012 7.846649765724026
Sb 8.370222126591782 5.829245279522982 6.857009248412685
Sb 12.401957755354935 8.256477996521161 12.580756689615322
Sb 11.307106239426444 10.650668117793636 13.281142714412224
Sb 5.466157941860455 5.715207028049729 3.156784014235821
Sb 3.5246540830320625 8.909454728355165 9.431336927672126
Sb 8.759048681260085 3.2611158634100224 5.461845326017774
Sb 11.116131188950723 4.862024083699389 10.045999979873864
Sb 3.026815096073841 6.073986970739749 4.712397008549111
Sb 4.744635342772086 6.162102098733333 9.460350985811743
Sb 5.360544828982713 4.914676415397107 5.93003074045217
Sb 8.445334639449786 4.508936884311134 11.15461158529793
Sb 6.064448026142302 2.2229323581716804 5.156434476182518
Sb 7.566657887796731 1.736442346135967 7.583959068818148
Sb 6.436027867210631 3.4542245043091744 9.587923929790604
Sb 6.399067841912179 6.9702227715030824 11.746097681938858
