32
Energy = -125.51564169 eV
Sb 8.417329443280101 4.922003526556047 10.415032660558666
Sb 6.559711048192726 5.214682422397718 12.654064643850326
Sb 3.629548056923508 3.6485768456109775 9.653780526055312
Sb 4.045410272782406 5.887214986486176 11.434242205118714
Sb 9.36575743973456 4.579617538941978 6.813900445670238
Sb 7.3450416330429436 2.705138605765841 6.477799875794681
Sb 9.567974590637649 7.397158513879608 11.43637447595096
Sb 1.4383066620501395 4.75282592084449 8.109865857133855
Sb 7.102933324070082 6.548936292166622 8.392214629632196
Sb 2.641243114088322 3.1072684734836638 6.017525889455153
Sb 4.899323032855234 4.5414796999718705 7.16270437694936
Sb 6.948084948435782 8.092459283731065 12.458502809898697
Sb 5.312847321833669 8.098039996444673 10.033674720194982
Sb 9.552109512672153 8.050753015063332 8.606930764135456
Sb 10.700117662941178 3.583125290795873 4.41561738913384
Sb 8.252561629264605 2.1843878574805955 3.75850976753163
Sb 6.80112722524437 3.939545781796936 2.0129317803598505
Sb 10.76617167660736 6.116406758754922 3.055487268976545
Sb 5.498848569247229 5.542581718259701 3.998929224226654
Sb 2.723695764404232 4.7693268546926735 3.649626100972357
Sb 3.125815564243448 7.0355690673637366 7.428986915219494
Sb 5.759040001653139 8.635382923495483 5.918074540641027
Sb 8.7483152061055 7.3391620496523 4.7840680260692
Sb 8.936634853340461 10.77653188298995 7.97023133974159
Sb 8.716314041501732 5.907035697206117 1.0580474602052732
Sb 1.834963601405326 7.239395971870252 4.899679720493344
Sb 9.72600440546343 10.09726015556312 5.261656477469741
Sb 6.132905629631708 11.113278596215626 7.315209836851042
Sb 4.964799234357487 7.5599111559884795 2.0415634258135404
Sb 7.717800225863587 8.39642609826411 2.2467493971624126
Sb 3.6991812295252013 9.294220048764693 3.980886618415554
Sb 7.070083078600292 10.92429696950129 4.537130830317864
