35
Energy = -135.15316592 eV
Sb 13.185989666356004 4.201131340618273 7.028556046727114
Sb 13.61924540402177 4.515654497965316 4.183371098216311
Sb 13.066148885103903 10.581571921660652 11.458542397146784
Sb 13.745469083189127 10.891029265426651 8.6769830357559
Sb 12.532896655401844 6.644473945845334 5.72434788986332
Sb 10.98584851018365 2.3358385183101906 6.448032238064964
Sb 11.40259538995183 2.719862916359016 3.6085412569232718
Sb 11.93802399526611 12.74159637654977 9.87787066696634
Sb 11.536490108033508 8.172435750203753 11.08436975569763
Sb 9.836417929012248 8.098231153905951 13.444503577580077
Sb 10.951309201106268 10.972223733318387 7.832339820303857
Sb 9.686866926370392 6.541277970563811 5.641375256788766
Sb 9.133514571729737 3.851017154556449 4.908932823131924
Sb 9.343908925780756 9.5516330888736 9.814957903291486
Sb 9.161062751028332 7.490286713275136 2.997537287400829
Sb 8.691692976932194 10.577242128860362 12.581000203825695
Sb 8.268884157766246 6.127257616507655 12.025981359096178
Sb 5.961570906989577 14.9520542411823 8.816474246714783
Sb 7.319299106430727 9.586206010021899 3.7869843176077125
Sb 6.316939807260359 6.9303165840710585 3.2832824800880562
Sb 7.56142592853486 14.728567236156117 10.925276389601072
Sb 7.21153774470628 12.3726722273544 9.256300843615477
Sb 5.583424739510765 7.120144646054329 12.449913454636322
Sb 8.367252405729422 6.878352231466045 9.174830614965014
Sb 7.376298442434115 9.323171385092254 6.690119954508508
Sb 6.092111207103581 6.425193664816674 6.1581260651893786
Sb 5.967964011278229 9.936386248308983 13.040536305416822
Sb 5.473735900618374 7.086336408055093 9.55365592854229
Sb 4.014917341461072 4.133467071860804 6.376677663192588
Sb 4.935154661526949 11.48341780959947 10.788962199592097
Sb 4.690368425813235 10.362702966470406 6.618217775572955
Sb 3.669968923974788 7.834132251576232 5.524115235365292
Sb 3.798767984410016 9.40838572434486 9.160834140147857
Sb 3.7088587031938234 4.750037953123419 9.099208933507155
Sb 2.0331075232958007 6.049269343860532 7.16625243660058
