32
Energy = -124.23499919 eV
Sb 12.261916415271545 10.599127753253036 11.386923151788315
Sb 13.232137441590512 12.237910814030263 7.444290814653064
Sb 10.53766425310455 11.687687069979262 13.415366989461987
Sb 12.024066776002309 9.615148152164883 7.440846734947278
Sb 10.027919172537096 9.078338585559639 12.404555731084143
Sb 11.61772158867678 11.37261621364263 5.214372388768998
Sb 10.929559661597244 11.700373321657205 9.089069107741254
Sb 10.500370273866183 3.7483424854536724 4.746885545437901
Sb 9.497126264162327 4.648743154996766 9.04450245869397
Sb 10.567831152983354 2.033314070396146 9.019486724115678
Sb 8.48756651792753 13.487146017943772 12.405624179518922
Sb 9.980167790028338 5.838449941672146 6.494412056320732
Sb 7.6016032090217625 9.266084221613397 10.870615087404323
Sb 10.502636155098097 1.3404493322074134 6.27159704816092
Sb 7.298584650941519 13.891985243984662 9.83313090389669
Sb 6.333402328750776 11.779802593127906 11.587035081797305
Sb 8.093293761318732 0.706032288187228 9.851071181187862
Sb 8.869649097181044 12.296717930290736 5.242923250918464
Sb 7.2529198288162515 4.372863866757647 7.3083190778287985
Sb 8.387779945105764 8.721267976568981 7.921240336565104
Sb 7.818113287863174 11.772326905771648 7.922722122383305
Sb 7.897239473983257 2.2023280254540603 5.4956630276266
Sb 5.923448386989319 2.4588457264807895 9.221326533960516
Sb 8.034753313685696 9.587736457015513 4.9955506499051365
Sb 6.547900221132051 0.3437577079115566 7.48235832511631
Sb 5.866567954756856 7.445716955054956 8.455133221646008
Sb 4.964249330025308 11.886648500670816 7.2639750253437025
Sb 5.467945145469376 10.828220481977448 4.647877410898197
Sb 4.175003195220366 9.739569972387335 8.989498488814341
Sb 4.291814011652796 6.550395190995847 6.1963779836201045
Sb 3.4856752320653652 8.755037233992283 4.566299773682792
Sb 2.300761932543889 8.47358574498304 7.152881110584281
