33
Energy = -128.04090635 eV
Sb 11.675711622359175 8.629939736246989 12.962213624885429
Sb 13.239964182197012 8.328139340655172 10.668752512920614
Sb 10.285517931475406 10.845315909466594 11.730664633264864
Sb 12.752145660601668 11.056309101361563 7.5020338251304235
Sb 11.067849395526371 9.507489601919241 9.275830829563052
Sb 11.669052131970435 4.516105694717528 10.300718530303227
Sb 10.006366809581467 6.159143652168784 12.04044996303176
Sb 9.340725078892868 3.3022264271636614 6.522811535102779
Sb 11.549778782779688 4.860686418660043 5.675899806142544
Sb 12.619416236124716 6.078813408315125 8.10504265441084
Sb 10.987397870054389 11.522424336572668 5.26872200140865
Sb 7.823482488426752 9.362011468206225 12.203110610922467
Sb 12.36640111217289 8.989312591220207 5.496811410952298
Sb 8.342771534165154 7.462621297918324 10.108556701185282
Sb 9.684089486317415 2.698527996237253 9.278703344153026
Sb 10.357588262121322 7.302312530190849 6.807263457470828
Sb 7.121661809231528 5.4674903983295025 11.832853230637436
Sb 8.685975764652113 10.615888622401096 6.759968595889147
Sb 8.625023565511208 12.647555353891391 8.749521488869581
Sb 6.928112533188898 3.459908860340699 9.800104304808027
Sb 6.851971710784495 5.270845980299529 7.546381860039593
Sb 6.558049410186039 11.454201728484584 5.035749252473056
Sb 5.952301177359319 9.091059056277151 8.336005342138868
Sb 5.37519258723082 10.256051152617912 10.871809771217453
Sb 7.541279499300764 15.01208160189701 7.566481931638566
Sb 5.553000191708039 3.4355877787353637 5.74981914025908
Sb 5.819925788731999 12.770270851153823 9.352991423148744
Sb 6.264124110321029 14.257238212729787 5.326075106325196
Sb 4.589294411189204 5.427594177906148 3.9121864787094105
Sb 4.5653705454132085 11.36514072600918 7.118516410983867
Sb 4.414078890175447 6.634270341652915 8.48488521466428
Sb 3.1144466596332894 6.858473047961832 5.956809347292812
Sb 2.7168867255501246 4.038933239805721 5.557174306211696
