33
Energy = -127.98940249 eV
Sb 9.987689368912477 11.617948979039124 5.8957822044835275
Sb 12.38550572336137 10.035799987714784 5.525414739159934
Sb 11.30499808221889 11.899861438460352 13.103143375047846
Sb 13.30145233060427 9.225522240641892 8.122143661422584
Sb 8.798803759606203 10.773779148375656 14.130439787847978
Sb 12.198225226877913 9.267905097414944 12.289187506652688
Sb 9.22146452883663 11.426351724255342 3.0766043870963333
Sb 10.394773075922043 8.798532164126732 2.5141246198680736
Sb 8.87303901948111 12.27087850157844 11.681409311678767
Sb 12.347567091843734 7.253974409521437 6.203245261306488
Sb 7.637081669618769 10.15795747400348 5.104511531575547
Sb 10.976655292845127 8.751421794777803 9.773965728120814
Sb 8.946193454374681 10.68954039974183 9.294898112922464
Sb 9.972764000478032 8.159932759067035 13.781649166572095
Sb 6.241006140475226 12.74009405647614 5.021830278804202
Sb 9.626949421777827 6.923748688479319 7.22364992705903
Sb 8.259075536313796 7.251762852940151 3.6794279671713612
Sb 11.029054324880022 5.406239983222776 9.238367211460842
Sb 5.091529867870688 12.981033588107865 7.664658029545358
Sb 8.186128188328968 7.798406561099757 1.0268320587927011
Sb 3.554474014912071 11.838218825906669 5.54315405121522
Sb 4.94492432321592 10.122986034852255 7.405344121988152
Sb 6.8601007497912505 8.715395567542577 10.247040185933313
Sb 7.811732807420629 6.938936416229217 12.335667660487275
Sb 8.958335269083479 4.630157576412007 11.06522238379531
Sb 9.516192131277153 4.504723410235189 5.605131885304036
Sb 10.738783948262315 2.911684662605408 7.710446646637063
Sb 6.29867513416175 6.866704963956818 8.099695056516426
Sb 4.069702593372478 8.639165880801201 11.463722076322238
Sb 2.6852183967658925 9.430825670610709 9.09882238867686
Sb 6.6541716528654735 4.309498416399236 9.417503071339521
Sb 7.898120379405427 2.813567630518727 7.289649196005849
Sb 3.5971994763469426 6.72047104139439 9.40649107842657
