32
Energy = -124.17986873 eV
Sb 4.9575907182580385 1.4151949930206122 8.56650533115961
Sb 2.242670803110637 1.5679495582381422 7.5933628654185705
Sb 5.795323673124593 5.19319388682344 3.664695423474136
Sb 6.283998094215513 2.2758404308397813 3.5555952827426482
Sb 6.485989661486277 12.18613164952761 5.659783871761916
Sb 1.6140507407920988 4.397038682505788 7.113765467982287
Sb 4.146091620564376 5.656917414000916 7.722413371411996
Sb 8.828439516751835 10.510401799530296 5.150294997749466
Sb 8.996324666620856 3.2316990732118205 3.090975895260978
Sb 3.6150887719815517 6.787808521260912 2.5332550359948
Sb 8.016846118678856 5.875714231650736 7.118462913776643
Sb 10.031061355210019 4.3043718705275795 5.581113909293815
Sb 10.027918331733897 10.040428545083218 7.763542602862633
Sb 7.48985531718267 5.0772923101793515 1.3853533630934962
Sb 7.519242390440008 6.612789841975983 13.180741279101486
Sb 3.1261286086194726 2.9028508257300625 5.168344667256819
Sb 6.1991056065987715 8.671717293944408 8.016023306414514
Sb 4.800974970522495 11.201541959290028 7.771380470372769
Sb 3.8594117667171157 3.7174894609326876 9.882954183254228
Sb 9.31976881925888 7.49456488084732 11.164934837570817
Sb 8.419006678671465 5.051058165980262 9.92233039786798
Sb 8.037132218058 9.815720928116809 9.889371145083025
Sb 3.902554954707685 11.073845939921545 5.0207698437357875
Sb 5.486019199531486 8.813476107538683 1.707658909245557
Sb 10.586606261518408 7.215710381522174 7.601458358044233
Sb 4.9741252005893015 8.430242491174255 4.529858519725127
Sb 11.080655131606676 6.898772333287737 4.765619696221763
Sb 4.2251528030390615 7.631367183039895 9.86355312899014
Sb 8.241276787765514 7.859874322021043 1.5587668247067468
Sb 5.821848904511339 3.1636363775753877 6.331862379178393
Sb 8.330208620724678 7.739114947606221 4.425892807447531
Sb 5.905984333239833 5.591069824001981 11.090348447353756
