33
Energy = -129.39468168 eV
Sb 10.632878276030086 11.530414455220512 6.237558273615974
Sb 9.5731122737226 5.854864967649323 3.5898468408268984
Sb 10.837184368649849 8.674142808212432 5.8199360743401565
Sb 9.476592165316712 11.064363572166352 8.866358909892957
Sb 8.484494687540645 12.299491200671135 4.419125059513392
Sb 10.598256466349522 8.360915647258947 8.71873959046303
Sb 8.247090835444585 2.5204470328387893 3.2923725484605657
Sb 7.151972440517724 5.026217737822072 2.2901284576102787
Sb 8.204530256007194 4.145323422412614 5.6278567695352555
Sb 8.885054920844894 2.262483361271079 7.707016911161327
Sb 7.619048144105809 9.870573594511933 3.0995258262936303
Sb 6.140057450764917 12.399684915436932 6.137481345684827
Sb 8.102925367665335 6.782756511996442 8.44170462995614
Sb 7.1686209580007905 10.107774675764032 7.4913742681285
Sb 8.128265716439975 7.899808676701577 5.1454700660464345
Sb 8.843994479364548 4.319502991368517 9.83144544025734
Sb 6.911657890928419 7.917083817941388 10.854726010010406
Sb 5.336279313302117 5.270498050077248 4.665670785166551
Sb 4.845221106450951 6.003470614680722 11.29852178651704
Sb 4.985696619291537 10.832702453854116 3.9599660983130507
Sb 6.17038416892896 3.5853466499601634 10.58971862724027
Sb 5.093815869247224 9.70809000708446 9.463615057486338
Sb 6.419877674959333 0.7272381772985709 6.936352994600566
Sb 5.950759166745087 0.8996908040070456 4.083180580621053
Sb 5.184841820275517 4.289907113212888 7.912409807138829
Sb 4.104864273914701 2.977766240049815 3.448517572536249
Sb 4.794482279921465 7.737598609751406 7.3786547275652055
Sb 2.9319197142748297 6.722448112160006 3.8126480093664514
Sb 3.1643309235759802 9.114484098638254 5.4530358000978465
Sb 3.869787296267785 1.7927102416101355 7.8416240950072655
Sb 2.8888594558893192 5.939580497830518 8.588695939752165
Sb 2.216444805553489 2.5283109063557787 5.5439382418752094
Sb 1.5366988137084752 5.334308034185699 5.952782854921441
