34
Energy = -132.92038866 eV
Sb 9.916444477720894 2.3203087073998567 3.3786699116416816
Sb 7.7439153774065685 1.3357087176203621 5.031497368720237
Sb 7.36193445071085 3.8323782536928612 11.374827853531823
Sb 7.214247994399321 2.4027834554988035 2.4140879727513065
Sb 10.383122461596916 3.470820775202764 6.998973399855659
Sb 10.474700847492482 4.936343980070844 4.51562470852733
Sb 6.266130164100711 2.3513495913689244 9.149734834736224
Sb 10.892226085056375 5.5054406810243 9.015453777248853
Sb 4.563083882589689 4.666879602726223 11.727404159329474
Sb 7.515037813176894 3.6103175310186835 6.814696260156901
Sb 10.718665873147062 8.38763504856245 8.53739922979265
Sb 6.958811719438021 5.259777332558955 2.2627057517492273
Sb 7.903897883107215 6.247943867929564 4.798975989212776
Sb 8.207686616088994 6.078308077919437 9.738073124986185
Sb 4.010804480680891 7.478761332704631 12.11925883051369
Sb 4.556919980315474 4.804118041285823 8.896929508047467
Sb 9.726240090575041 8.037091495386148 11.235569248341411
Sb 5.868753606561892 7.63443461864582 8.024533893859847
Sb 8.195952143034074 9.655883854711094 7.741993572396187
Sb 8.729544240503255 8.72390772234035 3.518967069445774
Sb 4.358856779737671 6.2568812700549294 5.304766227272538
Sb 1.996975209005451 7.605676971371186 10.025408634392662
Sb 5.3331204925471685 9.279927552947216 10.31163075081375
Sb 4.1164690437201745 4.999284342782378 2.6512199606269995
Sb 8.050387293779536 10.323182919400494 10.551992719136177
Sb 1.6866496630821248 5.058208703088754 8.711509700506234
Sb 8.044223220558335 8.558570325102226 0.7019629753536428
Sb 3.155514132967064 8.933224069564224 7.630078741801988
Sb 1.7048184990332484 6.7475282408041535 6.323656346716477
Sb 6.441727384850377 10.334360709875494 4.137166937741266
Sb 3.9177645074577487 8.945321398727533 4.274516820014888
Sb 5.269170840347798 8.65456698822561 0.02844864113848488
Sb 3.2739784259932665 7.618744719189426 1.7783959569905656
Sb 6.442224319219552 10.944329101200983 1.273869122652463
