39
Energy = -152.02857665 eV
Sb 9.391471123591218 7.707804421010629 3.7944103783204968
Sb 7.983119283406573 8.429820857728382 6.199046292454932
Sb 7.668094612066552 5.684198817291424 5.001712597486169
Sb 10.928144758912493 6.773176599563714 6.110635893230247
Sb 10.190352054545581 4.044534342457988 5.533972202971593
Sb 4.57921936740138 6.329628152466119 4.612923141728509
Sb 14.017477004995106 9.921353367553074 4.837851481117095
Sb 5.302648496934799 9.048785184884016 5.193512167782426
Sb 13.79136299505682 7.21650892262949 5.810503075073621
Sb 11.919452475944997 11.779674759668396 5.500745538109964
Sb 4.693005863410993 13.368523356862966 8.10209528957655
Sb 2.7995906801864363 11.158024306547356 8.320040153432922
Sb 6.8865284956515715 11.757559307482106 7.087696905827848
Sb 10.928695452524135 9.993453029648935 7.5666939164384655
Sb 9.197605118070864 3.080627764974372 8.009818322699694
Sb 4.136917213506934 5.044383866908745 7.06285566242272
Sb 14.469680359279572 11.87879487436172 6.886994930150777
Sb 12.915347969156278 11.198814410909439 9.255046044113929
Sb 5.042181172982457 9.370668173205765 8.042158921403862
Sb 13.909591864150471 6.731156729332763 8.690651225474804
Sb 3.8257707118140343 12.44394102485715 10.680362438959923
Sb 6.923582066683393 4.965373199138033 8.193726821519917
Sb 3.268388709528822 7.088628358913813 8.830688083278769
Sb 7.511536523780474 7.375226171806178 9.77918900000657
Sb 9.801267044341333 13.561406189171871 10.469561984795336
Sb 6.284199603006886 10.979159166325578 11.290358669031189
Sb 11.118266282699553 6.946317600754464 9.448945621726565
Sb 10.001262084466486 9.458173243078331 11.902124754584
Sb 10.604084879548878 4.21630485345678 10.245193481145137
Sb 4.994052110670208 6.650131641052247 11.116468117984207
Sb 14.384329711123492 9.001990874463395 10.412087590838864
Sb 8.780835978788499 11.183651764878483 9.193099934640832
Sb 6.041649482150013 3.9616699574853227 10.779698759734195
Sb 12.327129803994417 7.696271958615973 12.02029418957056
Sb 8.393141623093097 5.349040815400495 11.75772826529022
Sb 7.18116880746683 13.724748687639796 11.648617994305813
Sb 6.961022536944817 12.032320901916659 13.938221704229107
Sb 11.32823557557366 11.973877808006348 12.348997558755121
Sb 9.58298039721035 10.93766483221277 14.38866118444679
