32
Energy = -125.34438443 eV
Sb 11.907767479704487 7.110715428896807 4.208581910548032
Sb 9.903974392838423 8.565408846539098 2.7179950713936947
Sb 10.614766001892363 7.904886501976983 6.665392474886856
Sb 10.190576622734943 5.732050233716737 2.329798025379074
Sb 8.026585178595486 11.185982616729072 5.646973652972324
Sb 8.001996024668594 8.354957717800715 4.938686373753101
Sb 10.828782757583191 5.5983901422317945 8.289940055919065
Sb 8.58723474995922 10.94960127618342 8.477058796506272
Sb 9.652743863404519 6.905676018955415 10.597148089857379
Sb 7.79225557356706 8.173282236142647 8.747009390197903
Sb 5.575452289738395 9.287717689176729 3.2441882938462094
Sb 7.908323369337759 5.134118513932714 3.9882363004533032
Sb 5.146383968118158 11.23426720133865 5.35837732658004
Sb 8.207111727915782 4.739648650700461 11.912828462075401
Sb 8.30433013507983 4.162172480695684 7.800708260596772
Sb 6.06766763342066 10.335844040647025 9.731658921689725
Sb 8.764343259484589 2.6930587226946976 5.316170876838235
Sb 5.956448694586584 5.519190633879563 6.624311076077903
Sb 7.721337349520758 2.5257045776670615 10.123272379779957
Sb 6.052815090606803 3.517706897533749 2.4163805497909236
Sb 4.8937266696398565 9.17416871298808 7.357626733618033
Sb 5.5099017957593555 4.117817328279653 11.010248331167755
Sb 4.253485833132143 7.118312939092656 4.586291413614405
Sb 4.985045697468016 6.360790014780984 9.213718094070906
Sb 6.100840556290503 1.6763094192511796 4.671843727914169
Sb 3.592654611632161 5.020652796938181 2.6953541637511695
Sb 4.532790736783727 3.0151048110847394 6.661219671824859
Sb 1.5435587634884949 7.962364748608484 5.029899055248386
Sb 2.0044129673173097 8.890799727071741 7.77668976968287
Sb 2.084348029111926 6.173349195212589 8.81484129664676
Sb 2.4070185294958097 3.432089389265737 4.778185885323213
Sb 0.8813196471243934 5.427860489987916 6.269365567995584
