36
Energy = -140.30108993 eV
Sb 14.876446401142006 6.514736393430875 13.471091546998844
Sb 12.397372367488716 7.924057999509969 13.88835986164976
Sb 12.370408093655302 5.252082995233146 12.869779198108574
Sb 13.329231595489011 7.417129110679858 11.230554072058093
Sb 12.5273919143212 5.042285186989999 8.552571145619206
Sb 11.478801668935667 2.772359599108632 10.105183037626706
Sb 8.031498919554409 13.010189864093075 12.536051193169433
Sb 10.154628052372113 6.4675861810999145 9.457239892312408
Sb 7.561601106198842 10.799821936572844 14.403885520857255
Sb 10.906379369140693 4.12424322715162 6.297763536474216
Sb 9.003331625596381 8.935609113974873 12.668668411880544
Sb 8.883979810912933 4.0067033204437825 10.339159749202976
Sb 9.952122740886905 11.271061048758066 11.26116061908786
Sb 11.518766661117331 9.844041066324792 8.24303041695353
Sb 9.453847311594075 2.35062542990305 8.066479806777556
Sb 5.45976119589303 11.770962058228195 12.749380278924736
Sb 11.531532386638876 10.693118707687814 5.493328649703092
Sb 11.688491683681592 7.838627204129075 6.1436473428032174
Sb 9.206364131986948 6.4378123048561084 6.703298663082796
Sb 7.337451632978098 8.16449791954844 10.403921865412757
Sb 8.698263889176634 10.300639096880507 8.78810742450319
Sb 5.462213066718805 7.334631036170424 7.305034330659727
Sb 4.908607187148788 9.615042678972403 10.973700237570403
Sb 8.350488763302721 12.905519782035306 7.413114756830271
Sb 8.92838404029203 11.763787680246034 4.9327492227143
Sb 4.261796486170515 5.84657071331765 5.170368392414316
Sb 3.0815944084442783 8.92951699869675 7.545208688864585
Sb 6.408249901671706 5.5978233756753655 3.2197138009451565
Sb 7.168882210018909 9.306967440644936 5.926507153155345
Sb 3.941807663028482 11.314813162776728 8.858725244982647
Sb 7.954813564416609 7.967854547860092 3.4990282162139086
Sb 5.474444635085713 12.938174531558927 6.939030587399607
Sb 3.189836254891299 7.83917818248479 3.381977493978688
Sb 2.7911052074582092 10.200533630410634 4.992146058661837
Sb 5.441313773698288 11.191189627484441 4.63323459801987
Sb 5.631110934447387 8.045718301996292 1.8136882162212316
