34
Energy = -131.87772558 eV
Sb 14.016949682507976 5.088110918124695 8.897198518432257
Sb 13.575816051112184 11.188356200088556 7.590102197666836
Sb 12.479283765195701 10.166379950611386 5.2276473603605105
Sb 13.977181240176227 8.052830185700522 9.015639632894098
Sb 11.796151711976679 8.007488657324329 10.96345440295216
Sb 11.491090299863515 4.942067016271224 7.703996875471977
Sb 11.524456285804538 11.625641606601935 9.530492361844193
Sb 10.760058646087085 5.328517920857882 10.462031952848793
Sb 9.755548475812583 10.884885298140022 5.7267055139018
Sb 10.02757710303403 9.240885172944564 8.990156805646636
Sb 11.822283312640975 7.8930666460578145 7.103980693751182
Sb 9.663070662880171 13.64426109170711 8.541406736739365
Sb 10.130303346664041 13.707029587908286 5.68613330765296
Sb 6.651593375018276 6.481560235377834 3.50020552072506
Sb 8.090258923059762 6.2768197744021395 9.65046197648184
Sb 7.836796790886185 6.323309255812178 6.20009074018182
Sb 6.8501346145794395 3.938007958554312 4.801909459374661
Sb 7.412531393087617 8.400823745665628 11.440256630796393
Sb 7.217804713813849 7.125245397559374 14.038648760899603
Sb 8.39207277446659 10.545912928399831 3.197165592186662
Sb 4.35211823203632 5.3757325157333415 4.792430212432649
Sb 6.623837189841054 4.331206666286285 13.531035258213398
Sb 6.498438783415417 4.129107908436497 10.65737779314586
Sb 7.286478118350516 14.14548906553662 5.8805841110827135
Sb 7.022044892546681 9.740774788016129 7.307339787040735
Sb 5.20661980366711 6.243870422819842 7.473543871699135
Sb 5.933711909545225 9.889247286103679 4.59668048425478
Sb 6.381797307355105 12.559543955844706 3.6476857355059735
Sb 4.587430291547026 8.315203457001209 10.947598270333929
Sb 4.400001421365956 7.62729102159098 14.308547021567735
Sb 3.783564180144692 4.9622297717203665 13.489446501337104
Sb 6.978505741974275 12.51628484442497 8.255293588799008
Sb 3.9908988322853083 5.504438986291451 10.540687337765192
Sb 4.320118980525244 8.927243579282376 8.066693952319685
