36
Energy = -140.45196455 eV
Sb 3.818759226987458 3.342570267650775 11.29320221480814
Sb 1.6902575000879494 5.039159390546522 10.338549106482782
Sb 7.569060829064801 1.0843186518125987 6.723441536529138
Sb 6.799041672845601 1.088295389822621 3.937301583374362
Sb 3.812293541659965 3.2889901043056384 6.595009301289752
Sb 3.2469540769700482 5.7213310754715545 8.036152111214818
Sb 6.9193402825024 4.8249376578607714 9.000886673650658
Sb 5.704802666444353 5.262072313273546 5.58613835338965
Sb 2.5545170451013695 7.412784229748423 11.790136566560319
Sb 5.1560140881624115 7.194356598579432 10.709822377252465
Sb 1.3251370553684816 6.498436179790222 5.97169344855565
Sb 2.5504878074618986 9.072534789894924 5.5187107938811595
Sb 3.5058319014705397 6.7028392644778165 4.130521280901897
Sb 10.119056065946944 7.116799544664929 7.503813625953885
Sb 4.245103303375009 9.000585781356802 7.867468233858424
Sb 2.8705864654348976 9.967039548413613 10.272781941308839
Sb 6.957616178367732 7.428228259353558 3.1331093448541645
Sb 6.7116597025857665 10.260001577558675 3.6715063162375214
Sb 9.128708440205179 10.736226302779164 2.158255242332278
Sb 7.38026814811946 8.210057266052313 7.780874426179798
Sb 6.202841678764483 4.779980810633245 11.896992756000738
Sb 6.052324948851965 3.8332848609482992 3.0459231408576555
Sb 7.957565040058359 10.64324738982647 6.231640597459515
Sb 5.550478779490349 2.2984138035916812 8.70342108732296
Sb 8.630160182498631 3.532375014433421 5.848952915249679
Sb 9.447096569960296 7.0985928007020185 4.66537118692075
Sb 9.740235993078128 4.40244978546627 8.425526285120785
Sb 5.6276892655380735 11.579143170827876 7.706157638314285
Sb 5.405690917015474 9.919141259639291 11.69509535804442
Sb 8.378281814871253 8.295952064635875 0.7608652854590043
Sb 9.574576813337389 1.8252644982799993 3.5988044485114807
Sb 11.114433661821252 9.225206222670812 3.658131191174352
Sb 8.711583395992662 3.918549503627484 1.7843472849728035
Sb 7.425041225132308 10.518588016051835 9.684092013442381
Sb 10.950904823710225 5.288344179575183 3.0068393876297557
Sb 11.165598891720089 7.589902425678871 1.2684649449083072
