32
Energy = -124.07944102 eV
Sb 12.881150065839048 12.333043708341238 5.794034602567194
Sb 7.516462615174907 2.4867658331844513 9.119883920572962
Sb 12.605178389703642 10.078745196177376 4.060855941375825
Sb 5.18148131362174 8.890775507834263 7.407933370572124
Sb 7.668150603910598 4.120770971718034 6.772046908460066
Sb 10.708457345503337 14.59913867310105 11.028281637186772
Sb 10.63063085226921 14.082096966995756 5.480203152641845
Sb 10.897128333760975 6.734167341693776 6.047948631995952
Sb 9.109765618833036 12.347163432003102 11.687514725716861
Sb 2.975071960237494 3.698051564603055 10.541079873968366
Sb 10.405492016093845 5.416155962001345 9.951129775966802
Sb 1.4508362786926152 2.779819503898104 8.284081916104174
Sb 8.38054770335927 3.9861889852505836 11.417874728390322
Sb 3.7310726111087744 2.6748199395993626 6.557130558314258
Sb 4.783687927833981 5.745969251711142 9.676195974238244
Sb 9.976810933157882 9.062314985282578 4.680298945669639
Sb 3.825926920401721 1.3605973231608566 9.112075619145989
Sb 13.347446271497764 10.606602255067566 8.090616282194459
Sb 4.750363833938382 11.510853631749345 8.632046607679092
Sb 4.9865349095873475 5.2310525405347 6.876824019860939
Sb 9.942534452140427 11.830534436568243 8.952435566739537
Sb 12.793127234061037 7.797932644276569 7.909889411942105
Sb 6.497038606343261 9.630489064699052 9.861677603309797
Sb 9.41696817057533 14.526659415398349 8.084439439566564
Sb 2.886001431757 7.759261765956587 8.848968875051078
Sb 3.723877164887522 9.803876608233047 10.733266224921683
Sb 8.021250375757868 12.916828790357425 5.912487805908941
Sb 10.307865932265408 2.5392025428479013 9.867116682324278
Sb 14.539947704144254 8.957726680585045 5.9682449644527455
Sb 11.931604630429916 12.08470521197945 11.167107266210364
Sb 8.697192583060767 6.526465644250199 7.933038051449257
Sb 8.428051251197655 10.285225544382936 6.797103494192115
