38
Energy = -147.35769017 eV
Sb 3.3477153877618577 10.535809520525069 3.441402673880751
Sb 3.376576700718712 8.191382285961593 11.42078305221746
Sb 4.847920108621238 9.521894423656597 9.264349336324974
Sb 2.0904980206210295 7.647455179846514 1.001513431673678
Sb 0.9518752969325109 8.951264422655541 10.120730218909982
Sb 5.018791159583553 10.086466343708144 5.767726083104376
Sb 2.4592841944293653 9.808715503163807 7.817720305715736
Sb 4.680554242482839 8.896087276130167 1.4573876257150051
Sb 1.8682446908180417 8.086156046778067 3.8834402945858213
Sb 8.771893979104044 9.800510065611105 9.752112861966019
Sb 8.318057837084744 8.906168656545804 6.832032214351653
Sb 7.665014141380997 7.616788189489832 11.093756858576784
Sb 1.9018078206248976 6.188368513627708 9.863493130461102
Sb 7.643644128164588 10.901956985283592 4.845508969163385
Sb 5.5257046515523 6.675957780619917 8.773267261955459
Sb 3.9383902677462146 6.3820058788177345 2.77565805059323
Sb 6.752863959767213 8.165538177363992 4.456720494915514
Sb 2.9866293523326926 6.5331093026587945 7.242903776909836
Sb 11.18966872098226 8.235617781153373 9.814846010650625
Sb 7.892357626169423 5.562539341944348 7.415120190811684
Sb 3.3364176419774005 3.3624572637249646 4.45917944600658
Sb 9.586819764924558 5.813644650597952 3.0809986481746456
Sb 12.817469343744348 8.278464269919803 7.404087897319804
Sb 5.04287010577306 4.403942986121239 10.585293736218423
Sb 9.574634734948853 5.832018441979026 9.857630135538006
Sb 10.746821602289023 8.37437101126173 5.409031192060537
Sb 6.091954515750693 4.244330176627204 4.662769589773713
Sb 2.6941554295639656 3.5950150125678904 7.265614597357312
Sb 6.319595670018062 3.326106317940574 1.9050083283825918
Sb 7.374744169330659 3.289018120627491 9.153720798632317
Sb 12.153377367047653 4.801485628963352 3.918044598806966
Sb 4.186731663068371 0.5951871200753567 4.708253221379103
Sb 4.731917853356265 2.203186695283865 8.749870663615999
Sb 11.443977280111937 5.8597918351740965 6.580175416838597
Sb 9.224987999385526 3.3008779757762707 1.67140880142332
Sb 9.710887623436998 3.3388640754254126 4.513777740246675
Sb 6.388084760456274 0.5868140156578106 2.8658990888365605
Sb 6.774996746490277 1.5285692852857367 5.596699815457436
