30
Energy = -116.35023709 eV
Sb 13.926023084833266 8.54770118944529 10.663895435370842
Sb 6.780466122204218 9.985090778492216 9.759825994729015
Sb 8.586943417135238 9.568368308627788 11.816153631643617
Sb 14.977712999473066 5.909644457983118 11.207639885737615
Sb 11.112557148555586 6.015942789266846 12.291148091384729
Sb 11.954715842920825 11.2316738324736 7.820785841858137
Sb 11.00956840102949 8.187437654327523 10.471877689939964
Sb 12.675274876388974 4.232376598870982 10.695337207164773
Sb 14.880087779189326 7.006007296399507 8.4891562063949
Sb 12.404801033687283 8.74278140366042 6.48886935871729
Sb 10.922583309331076 10.83143206817613 5.183418191652712
Sb 7.734795455203871 12.481412433948533 8.674068671803942
Sb 6.874715669770458 7.2844776903158275 12.345207104254287
Sb 5.2708383295270815 12.883321016499043 7.1968626261551965
Sb 8.473681138679867 4.8916988032790885 12.099810776994609
Sb 9.197362799022239 10.272421028176362 7.491252823063038
Sb 10.417904777817904 7.041950954981762 7.8970172579016795
Sb 12.64574357830689 5.217516494105031 7.980529594651733
Sb 7.178644523151561 6.030340449093069 9.768018885234218
Sb 3.948884368481839 10.277243629667954 7.44749430901831
Sb 6.194653040464839 9.289289503820806 5.895181136050221
Sb 5.626366501809121 11.814413395849384 4.514806581594488
Sb 5.136661999225442 4.135946252332466 10.52311774088282
Sb 4.385535043741123 6.7143638788386095 7.3498792646439695
Sb 2.8053101836600463 11.34610931116572 5.001785825924027
Sb 3.2162212626740065 4.468073219477754 8.66854019849483
Sb 5.193000668921031 7.8809683536595845 3.5764948929958478
Sb 4.199536471864139 5.4115924187604 4.817974666474839
Sb 2.4803001540242082 8.77610913059486 3.6971705181029106
Sb 1.9158114756725586 6.880341096783375 5.820587612140413
