34
Energy = -133.23960465 eV
Sb 1.1213047927624828 3.8549043758088213 6.6013561666841145
Sb 3.139230606031716 3.1224583589152757 8.551730233361367
Sb 7.073425607823806 1.5337161718835206 7.655869686648299
Sb 2.4064326153755418 5.687753961738267 9.632869350820293
Sb 2.3267525704105796 3.471360334835903 4.020090658542364
Sb 1.187965529348367 6.771253913104733 6.337724675999756
Sb 5.972274266607263 4.640042660774555 2.074120398268229
Sb 5.689855705759896 4.1324989953939255 7.5591525623947495
Sb 8.413767375377349 1.3668739081273402 5.0948771483277895
Sb 3.8529209214194697 7.030999481731595 7.523079094462274
Sb 1.8386096067023374 6.303642303554165 3.522668019233336
Sb 9.78331660849593 2.4644845785220544 7.383363878365845
Sb 4.425533296062064 5.395063385989213 4.392139307757621
Sb 6.619934524229814 4.503222083386261 10.292403001880787
Sb 4.408326295557306 5.780289860156919 11.682810328463459
Sb 7.7012201867926375 6.991180492794895 2.3376622908454254
Sb 7.735466349800614 4.081335548677415 4.360881369423766
Sb 9.159818140109754 5.346148033546726 7.20237935851141
Sb 7.26223229016252 7.486423578540743 5.15422607155579
Sb 10.049341117606065 5.084563407458522 2.9640361679345317
Sb 3.9117470676631796 9.52338430055806 9.019552829149491
Sb 11.133906482282615 6.188722053774955 5.27575778307408
Sb 7.269000745282176 7.191910339121263 9.433775477364188
Sb 7.191851190079268 9.737151435992685 1.147657631920583
Sb 5.097006603570909 9.340574209460051 5.0774392812702684
Sb 5.424164336125776 8.478239372274164 11.265163359473961
Sb 11.222677587661243 6.146849996437994 9.113661932617577
Sb 9.610943995865053 9.131064751383438 5.017223723460922
Sb 5.86176267744599 11.324140528222255 3.1300098370027785
Sb 9.58060285253751 7.426580218602994 11.111480737517528
Sb 5.975249227701979 10.791491432097505 7.4215193818189205
Sb 8.723367522539352 11.169157765683604 3.008926089723328
Sb 8.934456240352317 10.466212243675114 7.501384503543315
Sb 10.89006931114829 9.030840164466907 9.127541909273528
