30
Energy = -117.67347196 eV
Sb 13.671247803239005 6.025487677592846 11.878698055501996
Sb 11.90695691375603 7.610197533739482 10.23173416183232
Sb 11.822126932685975 5.719609184337735 8.113079514541676
Sb 12.49063484304232 3.4156978736120664 11.70885426985764
Sb 11.415723570390139 5.316501203186042 13.584420446058312
Sb 9.419890953241744 7.017361169247065 7.220930336008135
Sb 10.716324861135938 3.452137969456355 9.442105408762773
Sb 8.992280677306342 6.108917921644628 4.542725249676493
Sb 9.67313329025487 6.9359734782588465 11.941761225698796
Sb 8.610508898640132 3.2887321722971588 4.843526414211137
Sb 8.509041731608974 4.59891503664261 10.831479446566604
Sb 6.441018832480052 7.460677163289603 4.849721336929283
Sb 7.219109382931686 5.613793969636297 8.45505614506689
Sb 7.503623811014869 2.9240070280337846 7.48896294839418
Sb 6.044023002168974 2.521474743412497 3.646081293584242
Sb 4.842397989049813 2.634899542632693 6.292737887730144
Sb 3.8920309782753435 9.998349554196393 7.2932492285635275
Sb 5.6075068414582985 10.892768920484377 5.1780023541253355
Sb 3.976759624215362 12.803046136707767 6.679773273921916
Sb 4.481687026940915 4.915788637619544 3.1253246311106255
Sb 6.269121347650879 7.0748696586114805 2.070240273453966
Sb 4.182605939735565 5.480028565834608 5.965827162462929
Sb 3.8364105126040524 8.521368189751191 1.4920483992784503
Sb 2.616007818656762 7.899945292704407 4.012702720578351
Sb 4.120747333589389 11.157146525852037 2.7185367209994356
Sb 1.5400287450937775 11.345380832674273 6.320124496567561
Sb 1.8331153681106696 3.6352710375649666 2.631093731738871
Sb 1.4601544257951355 10.514980395012811 3.574474289953007
Sb 1.4568541011582827 4.115938496430967 5.376992554353973
Sb 0.4489264437714231 6.000734089537818 3.4897360224737817
