36
Energy = -141.37176263 eV
Sb 11.211250690113964 6.583372966131277 4.164395293994354
Sb 10.367836660927392 6.039442476381541 9.998528601285757
Sb 10.887951545983688 4.33922489079868 7.676451375208259
Sb 10.428124930904321 9.390536161894437 4.422902294543769
Sb 10.975617380272306 8.578038715185196 8.789769861306002
Sb 9.386997491488051 6.325671078350516 1.9270120742239503
Sb 9.300215010558231 10.335129533333568 10.382656658331015
Sb 8.958423018421708 5.549709339974247 5.7256058524017925
Sb 8.438701698273723 11.487934286381934 7.86294259485647
Sb 7.5510548401742446 6.031776891715955 10.61756443170746
Sb 8.128574095675022 8.847652900705524 2.7025826855938604
Sb 9.047120869394421 3.796121215060868 3.458001108071362
Sb 8.896847053746686 8.843813023354523 6.804012723250999
Sb 9.690349330568083 1.9116429866116762 8.77282332811787
Sb 8.445238442712602 1.9783289495922038 6.124242162321884
Sb 7.058383415360313 8.814896399336577 11.416722508579358
Sb 7.315783526974547 3.472821512080766 8.310091069960391
Sb 6.312863172527944 8.03678708885304 4.799817733735194
Sb 6.158196234195638 0.523073734273801 5.083712140422118
Sb 6.212446209132931 6.598322847480163 8.108265318693984
Sb 5.250463068874683 4.689907796814336 4.900647880735655
Sb 6.300670375636207 2.7142943413444742 3.132707036983396
Sb 4.810380650789505 6.6195314492644615 2.746385630188522
Sb 5.399916823996254 10.800418813015032 5.128988690166897
Sb 4.881815094022446 2.203573115218127 9.142311219331672
Sb 5.573360921681352 11.245499435483698 7.979412638491382
Sb 2.9961910012909487 7.495626503926515 6.562267741819316
Sb 3.814417796746708 1.212871479061957 6.6427314089299
Sb 4.060898685906012 4.969171743201771 9.37489716288589
Sb 2.675554298302236 3.4391813094683097 5.193440969584878
Sb 2.185937327215471 6.898642918791287 3.876227197469168
Sb 4.925820817868275 8.842048022959718 9.454165064544712
Sb 2.57432973978531 11.37279774660754 5.193644640012943
Sb 1.862483125188355 4.998095325349983 7.517079228483522
Sb 0.8439856952414557 9.44777076121299 6.455573201555545
Sb 1.076305864165772 9.570779144899792 3.555927376327732
