35
Energy = -136.9763303 eV
Sb 11.022003862071054 4.482784772535926 9.65611891219128
Sb 8.179121421000795 5.831284616802691 12.351857972157026
Sb 9.438866985496649 6.845265568900635 10.008693277861395
Sb 11.200063496568442 4.298375847254515 6.809599071379452
Sb 9.625441243447785 2.0878437567019703 10.476577011558696
Sb 7.196245509584643 3.2421649227688496 11.539182386803267
Sb 5.520225037451519 6.92970656084848 12.117077971954068
Sb 5.816749245570679 9.697865044063816 11.342859664881782
Sb 9.429689260464952 6.434212256134241 5.86262682079235
Sb 7.5013042603300315 9.833170026716463 8.98612172431906
Sb 9.41431425899664 2.1945955194209588 5.9600804411687065
Sb 7.36227734628079 7.050812344265281 7.972340817045405
Sb 7.950439656886486 1.2433976397604163 8.267435895373882
Sb 4.492341724648965 6.646943247028869 9.39289676045847
Sb 6.635158444097028 3.796666221105702 8.769091127229304
Sb 5.69010511625461 11.278574370131524 7.265710705143502
Sb 3.1636123310714312 9.072198282837217 10.462513416765217
Sb 3.7962971573015833 3.7640062746563023 9.44960164887015
Sb 7.497266752127375 4.304566349574583 5.3633759746010705
Sb 8.926690943807667 6.314320806434751 2.0917908879601885
Sb 7.278762642530604 8.128079442635695 3.5328217018953008
Sb 3.027190586984533 10.420956818795377 7.949993782098124
Sb 4.750387033031528 8.710147669787787 6.317000887955774
Sb 7.3039314079901345 3.9759046812986396 2.4873326921827204
Sb 4.220461458119652 5.464904513898161 5.344748310773359
Sb 2.366236838658691 3.8588350357649595 6.927847932061279
Sb 9.638405543468851 9.623100007912468 12.684039092971233
Sb 7.925901701284103 10.434298315968139 1.895602650616801
Sb 8.334230716994147 7.081635666091952 12.351857972157026
Sb 4.513748572248333 4.823302243509475 2.5204502985093655
Sb 1.6937461704473182 6.613059155004462 7.418993827778596
Sb 4.881202335569552 7.657298205573899 2.015755346725604
Sb 3.182405858035931 9.141801316340507 3.9048735283861515
Sb 6.784625872024636 9.50386780409351 12.391775944132094
Sb 1.7405492091536596 6.714054695383487 4.53458788858925
