31
Energy = -120.55497367 eV
Sb 13.115873520838784 10.049762923169016 10.98201191472453
Sb 14.796798372751997 9.390951963430316 7.207814713047501
Sb 14.927879196621198 7.416546202142398 5.149624022002986
Sb 12.038506866973204 12.222912292535858 9.424836136274491
Sb 12.403081333961783 8.514879527076348 8.610153838328348
Sb 13.60541401241681 9.919353918943978 4.59843976172659
Sb 10.449620621624213 11.042676574598163 11.468248786293891
Sb 9.780658140558595 10.438548103064562 8.690821433599845
Sb 12.267571245755045 6.251437690451843 5.400777533430698
Sb 12.212982995419996 5.612234936502256 8.186839959864095
Sb 7.854497572085043 4.28875557607094 9.16573697709794
Sb 11.084437675249017 8.918789379702355 5.70652662552416
Sb 5.973146251940329 6.916592904646469 14.390633617126106
Sb 6.954639862802784 8.681744827172025 10.266505283886584
Sb 9.386591220835074 6.491545898863185 8.001137851585904
Sb 5.794122171205662 9.349983774883347 12.907789037842743
Sb 6.926632682654569 6.010220261637983 11.429828765296014
Sb 8.807479793708053 5.665293996700796 5.191077272104087
Sb 8.776543724851921 8.3039946998971 4.026430849573347
Sb 8.054907155391998 12.841870149743524 8.371032850355908
Sb 4.382339959668206 9.78410605225789 9.53525722310993
Sb 3.5256700242783885 7.581548605541946 13.07759012162332
Sb 6.0158056184336 6.089046379984197 7.914254378708816
Sb 7.3254003939465715 9.21076001779857 6.359633787578522
Sb 5.895038913214152 5.490135067495043 5.111196450419773
Sb 5.252067892454574 12.248574087915097 8.234054224625789
Sb 6.882779341479036 12.01497247348268 5.859922252861479
Sb 3.289928094201452 5.6427091510433565 8.548857412484892
Sb 3.1146240262413847 8.33407610290721 7.3959792396012425
Sb 4.140066661551689 5.356350314600739 11.324286247854461
Sb 4.931347998127985 8.250726710974165 5.068411403145981
