39
Energy = -150.62158746 eV
Sb 9.176900867399107 6.506213755732502 2.702424553312196
Sb 11.468043685534669 7.273649211856979 4.2478759497337775
Sb 7.832592332731667 11.430763079977563 3.4622976872582045
Sb 10.61462977011156 10.812194894065392 4.053084026010121
Sb 7.187571727799081 8.607189469851193 2.8758278589350654
Sb 11.946000773418831 4.596181415848645 5.43026235966038
Sb 8.98452678273541 4.915595597358885 5.373338250930133
Sb 11.681400234444139 12.707530564674228 6.019826961166493
Sb 10.130993832844876 7.172330296394715 6.856679878531544
Sb 4.58655872573902 7.046529679631198 6.189514271155908
Sb 7.063061317541966 11.161698456480446 6.2827151619585075
Sb 12.915705463273719 6.51618442223779 7.435740944030996
Sb 10.170679536502226 10.401769338758745 6.870466599617996
Sb 13.070558288364106 10.239935267538822 6.834771717780533
Sb 4.362216984030445 11.742857854352986 7.180660729458807
Sb 7.150876679131411 8.25291156004756 5.7212098711952235
Sb 7.360998245065821 3.5612140772268575 7.579086576683364
Sb 6.2810999781699355 6.144871148997461 8.420388829987113
Sb 4.651789504601365 9.102068502875863 8.232436460325534
Sb 7.956410053317699 10.596494348064942 9.669065260838943
Sb 12.053920906910626 9.841718193359895 9.608404084701018
Sb 2.535799052376865 8.459547461137198 10.030099212118675
Sb 9.830138574280921 7.520842118458759 10.277187488556505
Sb 6.161546876686934 8.083411304165391 11.484404315205252
Sb 5.491230076490935 12.138466298313743 10.042396520451382
Sb 12.222797508548028 5.8233551943281325 10.145884755335237
Sb 9.365181973508397 13.167732103355917 9.674334887222928
Sb 9.423938415292412 3.58099619055275 9.445248877264273
Sb 4.24892778681137 6.109758135354327 10.591108963792221
Sb 11.7911918125688 12.325343086434406 11.064883896392583
Sb 13.690368936095112 8.152182977034709 11.25458700091119
Sb 7.573388475949429 13.696323496609478 11.860479674266339
Sb 4.120139494275823 10.128877381125545 11.833128489415515
Sb 7.951478664938055 5.327668887378993 11.163758842910823
Sb 7.8485737273722025 10.904933273536427 12.62543576697057
Sb 7.0418808153837285 7.784155685372722 14.215897159726502
Sb 11.207296530890412 8.108305388406894 12.808723193503113
Sb 10.638766109005891 10.93092491033162 13.313880686056207
Sb 8.908312555044626 5.824768047957086 13.819975311815421
