35
Energy = -136.87959042 eV
Sb 11.79211602601322 8.255231680605146 5.052928078140361
Sb 12.351199688581781 5.618336669174945 6.062024080041499
Sb 10.429762510793651 9.733970504458009 7.145891640995087
Sb 9.899433277572124 7.897467421594896 9.313767988214968
Sb 12.00798028703527 6.029584360176322 8.88856154968368
Sb 9.763053861537589 7.589135044139165 3.082885971473782
Sb 8.430240236795727 10.113760835570272 3.6172200709601006
Sb 10.231913053301971 3.9153599119762275 5.106034807134581
Sb 6.212808585545549 11.509936307124722 7.040211661202526
Sb 7.735395760792662 9.150403852220824 6.26161477076198
Sb 7.594451226384909 6.351088155996449 8.391295887549756
Sb 10.504458305101675 3.657401954343877 9.630046118397303
Sb 8.068065438502057 5.815814017875742 4.610440879568981
Sb 5.8735771404131905 9.830941994971825 2.25731066190453
Sb 7.708566295678691 4.374831568578811 2.0772545710349677
Sb 5.411982189825226 5.676402348098076 0.8868570455736918
Sb 8.332394612436895 5.1250269814873075 10.933876469867272
Sb 4.828652017223624 10.0023805239932 4.972406103866835
Sb 8.674510707556285 3.495285020173657 7.465078147953907
Sb 5.23516301047804 7.200479060173423 3.331472278967654
Sb 6.062649714165993 8.126703425116654 10.264729269635602
Sb 6.689201388551719 2.7468172825737804 10.940052782262716
Sb 5.1129438588054 3.127431682378858 2.186355356117564
Sb 4.425814656818746 10.025132705481141 8.815421447649193
Sb 3.5461629807507005 7.918028457286635 7.0338983959415495
Sb 1.9789108143622878 9.613243746199323 5.275645617874562
Sb 4.90112898107399 2.3676924934216235 8.715618767243669
Sb 4.840932765516423 4.675583573350496 6.95867204466324
Sb 2.328862199294949 7.540313094985761 3.262840990825846
Sb 3.975031174330229 3.7074286974641453 11.113367347216473
Sb 3.7169525173502347 6.60070156538419 11.031421690952659
Sb 3.6942041802458885 3.1863104119011054 4.709471541874475
Sb 1.657658824511528 6.952401128775329 8.98527142114297
Sb 1.5009039223327232 5.0712882926313245 4.609034406214128
Sb 1.9865160799898338 4.501683519987839 7.47461842676197
