31
Energy = -119.95251997 eV
Sb 3.731613855825037 9.544748926362397 4.23106073132183
Sb 3.6871531523294268 7.696174574471336 6.462964065847332
Sb 4.735499159273964 6.881746786750236 3.8938880581971307
Sb 7.591128578012404 6.599865339338749 3.928733124910945
Sb 8.768792473977454 3.014796231903062 7.272049960725191
Sb 5.610885657397944 11.045465002398748 5.8540710046645446
Sb 7.066687879115541 5.252432808973906 6.569940232287355
Sb 7.668000193515894 4.348382752742351 9.544467196735216
Sb 9.03259428999006 8.810956925724826 5.056494085517625
Sb 6.4210792348755215 8.556014482991793 7.048922131250142
Sb 8.174882263321539 11.498416069071896 4.675407377755147
Sb 11.419776715445984 8.323264250911741 3.4749579036357936
Sb 10.019969333750753 6.601959402236712 7.1286670154692455
Sb 10.445019995628149 4.5189875919929685 9.11351717636448
Sb 13.473902026777006 8.026687846109805 5.4664402601076425
Sb 12.185383293595867 8.352412205375906 8.05403820582731
Sb 11.73041572814744 5.813937055284871 4.839917289732193
Sb 8.725941396862845 11.853633037259685 7.831970881547548
Sb 7.036939720120397 10.086223183190858 9.436754324014272
Sb 11.525317183045162 11.142313436445342 7.720695392649517
Sb 9.160388145472986 8.292642683667177 10.169859518695208
Sb 8.60433164346007 13.792521951197946 10.081402260343284
Sb 6.561670862837316 9.677753324352569 13.335702985632697
Sb 7.032952876942726 7.224595842447541 11.838025350345513
Sb 12.411360513628022 11.42258687943038 10.42013799395328
Sb 11.177125806409794 13.913075909974543 11.270632828586994
Sb 10.515591155596745 10.006282858284989 12.085335535990051
Sb 8.986318127873442 12.40153701409732 12.5597055783486
Sb 6.233208542338209 8.024196444940564 15.712144021708378
Sb 8.789595696723914 9.183992760277047 15.127687450551305
Sb 8.25657157404355 6.455498103964758 14.36488076102571
