31
Energy = -118.99577762 eV
Sb 9.800875167877367 7.859826349852192 3.3935035627303765
Sb 7.725658735155805 6.188490385526103 4.66699333493029
Sb 5.995811065283808 11.907253439680096 3.2422960913280843
Sb 6.748681932813738 9.53789339865683 4.706693812068388
Sb 4.987170990212131 7.2717330432309994 4.168783775286371
Sb 11.336016312885075 5.628302393798881 4.572418054168166
Sb 10.846725241013294 9.401849562250202 5.576203921457074
Sb 4.9062596492849675 11.4741917455984 5.867366333940684
Sb 7.134526375378573 4.583694554279881 7.9177575818682
Sb 10.826901164096173 6.861938989186346 7.117838445127032
Sb 7.81454463101554 7.356572590799996 7.289083633988335
Sb 9.36433270826031 3.676128573636708 5.653349172274031
Sb 7.280021111048852 13.079889150173946 5.554494739890662
Sb 4.667206277096573 7.747336317086034 6.984371315581738
Sb 9.304001882692916 11.464258725622576 6.967179543322718
Sb 10.919579613102561 3.835594320626908 8.066248325077106
Sb 7.190149193993793 11.795618934628868 8.97699621322747
Sb 5.1443398896552015 9.79088504120782 9.621418802749295
Sb 4.390072661038785 5.490678013575776 8.766513803480871
Sb 11.351507080822476 9.112307054999665 9.588100253207497
Sb 9.177147103528764 7.293848989087781 10.545497680887332
Sb 5.9848434977677565 7.145939063404148 10.546849692050925
Sb 8.98598669227254 4.233383934875314 10.098498166716253
Sb 8.514566242763506 12.31935175616385 11.510049878844315
Sb 11.24427124850267 11.692160814034198 10.92552339044744
Sb 5.216240224562972 9.303830133885793 12.475448349921885
Sb 12.842728566985818 8.162906087849622 11.947405603920648
Sb 8.076835015563594 9.619208192343157 12.271207143911658
Sb 10.573018546305898 6.684104831098334 13.076857326710844
Sb 12.023034709230044 10.525694151774339 13.472888585756086
Sb 9.746037323574592 9.074220314851525 14.55125431891466
