34
Energy = -131.53764043 eV
Sb 7.822233620919387 6.6591897947183005 13.774967320207795
Sb 10.864460801461677 7.786916953208943 10.094715926032857
Sb 5.420069947800722 7.705199285829254 1.9236236899026322
Sb 9.125422383332653 8.107330746358928 3.60346642134316
Sb 10.165605491861339 7.403695028942881 15.25518807006818
Sb 7.9692679899343055 8.493717865813847 0.9843044294974528
Sb 13.359651783285107 9.28469916863239 9.918829606873064
Sb 11.820830331411447 3.2414908551289985 10.686753922769887
Sb 5.123180659050547 12.077575679893815 2.1483135130541866
Sb 15.037869325138065 7.202198802433953 10.866875084290943
Sb 3.2567615735002824 7.673235788997562 5.089737444874094
Sb 7.796510875362411 8.869564272157199 15.865375124837461
Sb 11.711947207238232 9.61890836454143 14.37496967109445
Sb 7.428107603016728 11.35851549758816 0.6614510030198086
Sb 7.771698557604603 11.20478270706627 14.3118499960659
Sb 5.358401157940533 6.0732673040458085 6.120371684535509
Sb 2.523337236209271 9.394938039929901 7.288228035406889
Sb 10.316198130045732 5.531143497313459 11.859181829390726
Sb 7.7592425159365614 12.43708903964932 3.2811960885390783
Sb 10.254093818717113 6.287551114989778 7.697130738279307
Sb 7.737093026363054 10.079643478388872 5.085928652794968
Sb 6.910597021385872 7.991244185571802 7.630486182944972
Sb 12.168137628766845 4.1319836821137645 7.973168643383507
Sb 5.020167536379224 10.009095829946322 8.519727456682023
Sb 6.260076921158207 6.437971105522438 10.010930205088341
Sb 8.90579663988012 9.89386091199851 10.503073419439152
Sb 8.633248114912824 4.795972242089846 9.601166530899427
Sb 5.068365689181553 9.75876644279652 4.066169011525458
Sb 14.058114675816368 9.211576829575646 12.698396199798065
Sb 10.114709109113699 11.297368349009705 12.735722135182248
Sb 14.233605357503743 4.545018364480448 9.941074095926256
Sb 6.814166664313263 8.57861652758518 11.900998172330034
Sb 6.980447730020127 6.080009347966131 3.6659851287358394
Sb 4.145332887481179 11.573897944983994 6.272954392080889
