30
Energy = -115.8255094 eV
Sb 9.66843543305678 6.783041200992723 3.548532792297837
Sb 9.043025351258452 2.4803788039308814 4.647297789813156
Sb 6.128141107343908 1.9393980273545472 6.93171351795324
Sb 6.739922359200468 6.659113886446545 2.544551355512179
Sb 1.9681794726892918 5.899659187193682 3.8179000246971975
Sb 2.354424280269641 3.6795529050308935 6.736775974450517
Sb 4.253148242797583 9.548249566266923 3.2933266762365707
Sb 9.575429168312812 6.761667832558619 10.303898215849594
Sb 9.666700406794448 8.234080603225218 7.825951634769429
Sb 1.3789673377973146 7.493520079462726 8.245482037001157
Sb 6.147735366587812 8.196892397245838 5.088357989762227
Sb 2.6750028421277765 9.62304609159813 6.785025441087295
Sb 3.5990646003744273 7.352118665986929 10.186410847818271
Sb 6.755732512161001 8.581374119440541 8.250755037266904
Sb 7.612508886230468 4.651778824405342 10.440658060390318
Sb 3.5067450547601853 3.434125403364978 4.181326317984522
Sb 3.7551619611415825 7.109594147182192 1.9234805774685568
Sb 10.32586197353096 3.8424945025264834 6.812507920246315
Sb 8.643468693938633 6.104812764456752 6.142829521583661
Sb 8.434791494312243 2.530754133894236 8.541151057504269
Sb 4.226134208329564 2.993896412886541 8.756636596703508
Sb 6.8122945279845695 9.615329050029501 1.838600866883322
Sb 5.59367014796001 5.692643429258213 8.557757556659958
Sb 6.47394189965096 3.9941374050816068 4.7082447702153845
Sb 3.2756229926767264 6.591673265828482 6.314181048974864
Sb 8.457163132892699 9.600903784851223 4.163888692588517
Sb 4.267695851823168 9.972273763283706 9.125626849295315
Sb 6.881774697372196 3.745801809739788 1.7944957722251784
Sb 6.926192144964117 7.690597672626838 10.976559322342545
Sb 9.648361859698179 3.992387791483595 2.3113739826575075
