33
Energy = -128.47636276 eV
Sb 3.9358086751952928 8.09504135308657 4.998433875868247
Sb 3.339968049130147 8.912110224851654 7.725110607196041
Sb 5.414220373911971 11.553144040292345 5.549857878900078
Sb 4.532305060377343 11.404162624385089 10.542735243345312
Sb 5.834368842162836 10.288091715414676 8.127205666641906
Sb 3.707384085429009 4.753701530012394 7.825688909712383
Sb 4.566214353013217 5.289541217418252 5.146797630788589
Sb 6.932532896353981 2.9832686324158355 10.867380614577378
Sb 7.986579891005982 5.46533053858825 11.342567870602128
Sb 4.061907188569022 6.9010771531537785 9.675642857310764
Sb 6.927894945693432 11.948259791439991 12.018237199888906
Sb 6.667230506125884 9.210269583895306 4.367099566635287
Sb 5.706793759593661 9.342642368857037 12.21402542166796
Sb 7.468475161858513 7.67769478713463 6.793998414493446
Sb 5.560569450519378 2.6401794828133314 8.418587428449452
Sb 6.803166036314592 7.72239556042889 9.97124679335799
Sb 7.4471028652567535 5.359720787554782 5.030976561528388
Sb 8.58804573526648 11.474377021791597 9.653704112428219
Sb 7.548275715313635 13.52652179983567 5.706832775106218
Sb 7.962874293115677 3.2204818234525376 6.895287267856902
Sb 9.487293496757044 4.870579183935213 8.66827357397224
Sb 11.014437753310993 13.068654200789599 10.157045244233096
Sb 10.304773484861862 8.33497817995939 6.951611416630859
Sb 9.923225787930198 9.673404930665477 4.430649173372777
Sb 7.413573072579188 13.938600895308836 8.5759057627187
Sb 11.194300570464447 2.9406230087364698 9.932157010504875
Sb 9.403323290991699 11.536096962062732 6.507182861091086
Sb 10.02821979133261 15.24651796179346 8.538970477538799
Sb 13.386747769025986 4.742443328018376 10.441600538463879
Sb 11.64844673652989 13.21141559525136 7.32483955855854
Sb 11.089807421588624 5.609156158170534 6.3284418694009545
Sb 13.613760740314884 5.618502854307123 7.694543148746948
Sb 13.61768536957306 2.816130466784558 8.351024828323244
