33
Energy = -129.32554141 eV
Sb 1.4673090235638626 5.9602633226776085 7.23944562540561
Sb 4.790070964353086 11.812478090624428 4.41977743212736
Sb 5.4771798954542525 9.544802477707213 0.8615205029395663
Sb 0.6182378251394456 3.9305467856214737 9.072094421436043
Sb 4.067973741045792 10.899166768050744 7.038181767920322
Sb 4.080610397505292 6.355312939290469 8.425047627252686
Sb 2.1343716872664533 3.1686891137009634 6.766981443839372
Sb 6.887451149505119 10.01107807190552 3.34864781399758
Sb 6.3940272407302094 12.571858400304409 6.6874225590068095
Sb 7.890278948473283 8.144896744906612 11.618212594578399
Sb 5.243754201090063 7.663858227687336 3.067490366190156
Sb 9.459405769791628 9.658125662738659 1.7386489628382968
Sb 5.512776947582134 8.379217901298013 6.947470326952661
Sb 3.7537217329163735 6.58281758257745 11.254357380145567
Sb 2.477744637212441 3.992069809841328 11.288538849491717
Sb 4.958659051470335 3.434679812903171 7.541463777621864
Sb 4.712368091116853 2.498972620286584 10.27432548607344
Sb 8.7095414822361 8.3111753424901 5.709802481867068
Sb 8.722185786370387 10.864015228372924 7.159227022108997
Sb 6.039490398370785 4.743998292094163 11.618212594578399
Sb 7.079280438181583 9.532288886307523 9.11639733193158
Sb 6.983824535073948 5.957230592092064 1.5203141807633007
Sb 10.667234639201801 7.864720892633095 3.586933495166076
Sb 5.973744872043893 0.8614841653600619 6.537339023616248
Sb 7.2799136190392755 5.328484875360972 9.078270350428388
Sb 8.00812769175742 2.1015483462734115 4.891342274386911
Sb 7.702839283734863 4.957755677655025 5.491978817833979
Sb 9.314187229884638 5.331197024633386 3.054327116432191
Sb 8.992127435829769 7.491465136290465 9.928739963186306
Sb 10.707427770070385 7.412150850890905 7.599498222905654
Sb 8.661439118728136 1.0845381618220535 7.51753773666185
Sb 9.415935299586408 3.3953985241307927 9.124158674106399
Sb 10.316759095672115 4.653713671468514 6.6922641078272616
