39
Energy = -150.45910775 eV
Sb 8.213555182349687 9.36873022631308 2.5383958133600473
Sb 8.135529954305177 6.492766577167928 2.3568866052814372
Sb 10.073670791947405 9.773239191637572 4.72144638466274
Sb 10.76878360146204 5.51269334005464 2.994487620877303
Sb 12.790917492695687 9.533018700514718 3.8148773097384985
Sb 7.238003128175784 3.9243390096831554 4.3851511120575655
Sb 7.2709527155242 7.735372619881551 4.78414940987762
Sb 9.353546258466517 12.866030063932635 6.21561860517216
Sb 4.420023853962075 4.148316181804242 5.146495536091276
Sb 11.535937128447825 7.2924499721902105 5.1511948743024645
Sb 8.658193431943126 1.7584676581039318 5.634805978605975
Sb 13.581102330869486 10.470924344437172 6.430062209848715
Sb 10.826204478078543 3.6423857807759807 5.274197695362181
Sb 12.189902090377698 12.924555702541054 7.010917406136436
Sb 7.570738692459393 14.485805269271758 7.894399727811636
Sb 4.4332401283870695 7.0464047017578455 4.789682366507124
Sb 7.711215215557518 11.599381721987127 8.181526074534533
Sb 5.394869093123013 5.865440953119911 7.23876325260219
Sb 10.364868144164783 9.868120435469999 9.506610240752426
Sb 8.564458724665199 4.368915602548052 6.907194276853981
Sb 4.456585629155812 7.188009576790583 9.664576646966166
Sb 3.951873559731243 10.575130906957797 10.25895614854046
Sb 12.557478216832493 8.35836745428209 8.320509827307774
Sb 5.296344249097192 4.72558831835573 10.885627634493485
Sb 12.05145650016056 12.198989428879473 9.798505551849477
Sb 11.413460580143154 5.642173280738807 9.73013382576732
Sb 2.8603910548925326 6.005313888187876 11.73787693732456
Sb 11.75685373723201 9.553955029810574 12.045569259152142
Sb 8.775185926842873 13.265444575004283 10.268203181718839
Sb 4.433370416654284 12.59085840938824 12.318499304184257
Sb 6.606245771873597 9.51638487973657 10.80087708993413
Sb 9.047032754159842 6.903560697208657 10.837653092498472
Sb 14.00413676609084 9.995399090953311 10.255146049802512
Sb 2.761782361511507 10.26739283159331 12.826729254367478
Sb 3.816465657215566 7.779483324559696 13.857683513641241
Sb 7.333332165436813 5.482687777981494 12.74591580965116
Sb 11.471617550664275 6.685477171650866 12.366106399415303
Sb 7.233504811793267 11.892790979920361 12.429669690748222
Sb 6.585268783076595 8.203733254335228 13.382997211726202
