35
Energy = -137.30117745 eV
Sb 10.535615384731134 9.758711549504866 2.9860724427292906
Sb 8.879431263206586 12.161634006126317 2.600343994893031
Sb 9.979095921026396 10.097759456730929 5.803615777315644
Sb 12.180411365866023 6.160879835379431 7.940495893222661
Sb 8.002973474530226 12.147859970484792 5.358018468153238
Sb 11.108022918026917 6.697969347039088 5.272095893034721
Sb 10.145098920921157 7.887345299551761 9.068354215474875
Sb 8.013223506407897 9.619301150820354 1.6115657387845388
Sb 10.884992866820964 3.555285774365162 7.994878084802516
Sb 5.524237805429932 7.683300519030859 8.114125223514879
Sb 8.645642757418694 7.621666647635525 6.544767924448836
Sb 8.846950962387863 5.850234056287967 10.594301826097295
Sb 10.959427324826846 3.8079874231372957 5.0939034646360035
Sb 6.5741547133556795 8.338200598729255 3.755097090126535
Sb 5.542035904962258 10.854820576002766 4.698628953102545
Sb 8.110390524153283 4.422501752685505 8.107576352988701
Sb 6.547918703600775 7.548395567513985 10.834190684398497
Sb 6.278166518634049 4.853011699934131 4.931026672321916
Sb 3.8171444730962207 8.23288073711159 2.760785560910433
Sb 5.331819581266287 3.8493247388461063 2.38551045754448
Sb 4.795408605903948 10.473842993153907 7.478946956146118
Sb 8.267079968919019 2.8181737723132536 5.323406597814976
Sb 4.641513390865793 5.519957597989417 11.771276559880441
Sb 3.024151655628581 8.19552601119327 9.49341642691689
Sb 3.4969562055431096 7.135198224407571 5.4198201423058805
Sb 7.338239980382267 2.017572087488628 9.495605818862675
Sb 5.398072184868084 2.7433360475899757 11.502963663906545
Sb 4.058732774447738 4.475820289504607 7.781168751145169
Sb 3.028117682936492 5.517218847999872 1.969418905446723
Sb 2.2116256616452428 9.265986277682886 6.915061912232158
Sb 4.76910833664114 2.343504110175534 4.760310384973121
Sb 2.4003973317126834 5.407071822458222 9.9493715832677
Sb 4.509009230923511 1.8402222540258844 8.914580837551524
Sb 1.4159341833797112 5.448955738191499 4.374725412596343
Sb 2.2388979155315956 3.1485432189062292 5.894571328451539
