30
Energy = -117.79569689 eV
Sb 9.840009546358631 14.513288128519973 2.488350961226966
Sb 8.680390155708636 12.934329464156358 4.622461944095529
Sb 9.347680480686444 10.483625454215884 3.3887399226348958
Sb 8.767994164189519 13.2776645816702 0.1385678375505222
Sb 7.1713015446948205 15.203695533627366 1.5397283575390466
Sb 7.883134511497095 10.654421848440334 0.9701201949686797
Sb 6.0320186078798175 13.60302097016495 3.6684272147418095
Sb 7.510973015307982 8.607038592429836 4.846790061109793
Sb 8.004808646858683 7.260796806121148 2.3353614620429255
Sb 5.313154799506697 11.485941896309713 1.9274635060815213
Sb 4.985040754782008 9.950817477425913 4.317339975738942
Sb 6.971190301748171 4.538640869557605 2.2744375611174394
Sb 5.397030595396153 6.735624619730034 1.31930798647899
Sb 5.9118922250424815 4.304084755610237 4.914624828041116
Sb 4.943090274130281 6.701010761906558 5.877496409608791
Sb 8.009328021268722 3.581510224711879 6.736652794440604
Sb 6.613940834541543 4.8921561842716486 8.852282260362307
Sb 3.6369524426093927 7.512482399514549 3.4950918256831662
Sb 4.863993483955842 1.5715474911532095 4.775025683566328
Sb 8.114033238474121 3.6482608517586277 10.958341657449223
Sb 6.783663736465804 5.060254074772919 13.031506502753135
Sb 6.969788560235465 0.8575869155429465 6.671252276023411
Sb 3.996882208385473 3.6657570926775707 8.869240805994577
Sb 4.279480807613254 1.1329300518730985 7.536783865331815
Sb 7.719307162095534 3.204445327728103 15.037423389625426
Sb 6.797332624183679 1.1290457807903838 11.017989216405434
Sb 4.142869966319518 3.903228751916233 13.201184450623137
Sb 4.065807246911339 1.920871502707395 11.177018118004847
Sb 7.189855093968712 0.6507057548195423 13.825638747674926
Sb 5.057054949185494 2.015215835876713 15.1853501830844
