33
Energy = -127.70642396 eV
Sb 15.846541549925782 9.165806572250832 8.668898585881559
Sb 14.152754910210914 6.952479822579065 9.35029482941603
Sb 14.261421272076314 9.231671776732242 11.057674330290826
Sb 12.994955245164729 9.432225042081605 8.507788130890502
Sb 11.335989634134972 4.764671622826674 10.820551984840133
Sb 10.826373395641749 7.140400060386155 12.361218749136558
Sb 10.77638672150011 11.98653894220598 11.148989438673395
Sb 9.142043033193756 4.79684099035909 12.723399697735704
Sb 9.058333641705648 10.556037551369577 13.013183021173448
Sb 9.553014089166382 5.637335071883073 8.64100075280098
Sb 8.142741898643084 12.979970125937134 11.726888064124362
Sb 9.415405216469253 4.279063895280779 1.0208756434195243
Sb 9.756415743067308 8.258550465021395 9.89062125713501
Sb 7.5033701973036795 8.440126269239567 11.666360526207976
Sb 7.60603107515886 4.398031544498977 10.335280556365744
Sb 8.62487640515098 11.544265225669179 9.269461760815336
Sb 8.646900940966477 4.4233605644707295 3.7821652954780545
Sb 4.930058941933123 5.391846192113868 10.750997687069361
Sb 7.616047545510153 8.307341243816495 7.169529076609947
Sb 6.028517324295114 6.103835971578996 6.152302919307017
Sb 8.547899158054353 13.623035574213066 7.256141873558532
Sb 5.339873917316569 10.226894029015897 10.833616074760842
Sb 4.043512199483896 5.121178452836687 7.988459450369858
Sb 5.627487780196649 10.224407927532052 7.9998668404045965
Sb 9.023204462000455 6.83914290170536 2.3202154446450276
Sb 6.791205136630473 5.156433193422516 1.74795853450162
Sb 7.858988523753863 12.118307258168606 4.875503818944428
Sb 5.825024949616957 12.854738525498954 6.711997588527038
Sb 7.228519703463476 9.208479118951322 4.476819425548887
Sb 3.58201873940147 7.953235238899263 11.038525565244893
Sb 4.469460464281578 7.919544188827011 4.601148525616689
Sb 2.3248601888963973 7.405993775627859 8.47115304742694
Sb 3.1979308210985353 9.442447820602037 6.658793839917606
