35
Energy = -136.87700209 eV
Sb 11.325963453141004 9.116371375031724 4.407955516753881
Sb 12.104062259649847 5.377891310146961 6.172589461485748
Sb 10.993624622282947 7.892086594313013 6.976115796586588
Sb 11.24544884832867 4.800181003804856 3.442038242859772
Sb 10.037910900396538 7.246319534382333 2.609850312147641
Sb 9.144565324458064 11.042889708468914 4.595124832249015
Sb 10.366722397799418 3.4184138590121087 7.376466101425561
Sb 9.729885276352183 4.403350951901224 10.000077366312457
Sb 8.177464120260243 10.629232607797162 7.27015051724041
Sb 9.057766417013381 7.251631970716038 9.969917801995225
Sb 8.667794889566407 3.2704790532081573 3.6357707918641906
Sb 8.101281988760284 7.675483637249388 7.223607141223481
Sb 7.319530531320875 9.798155782138702 2.7160369684031376
Sb 7.504645630739725 7.201678834914127 3.993147840180941
Sb 8.109123692444753 4.649349112031773 6.158214879104597
Sb 7.45838672304968 2.598108093879995 9.922382653981728
Sb 6.885277451872883 4.974940938278168 2.152007226581474
Sb 4.944374085949291 7.780465267050772 8.895481709136074
Sb 5.6493263623558745 4.817832549823411 9.98798151865391
Sb 6.517823211588845 7.206434727622252 11.344741922951336
Sb 6.369953555983937 1.2908979052205438 4.893220415882464
Sb 4.9007275539721205 3.015431948757116 3.121302679908545
Sb 6.061429383159957 2.9388307629805728 7.257753141891436
Sb 5.56739213555774 11.612511649607795 6.587570333347043
Sb 4.823016751961207 10.568167694040888 3.928298217553633
Sb 4.285562770002434 8.024642528641794 5.12342751316262
Sb 3.762645652900666 10.429630472855145 8.58219525313638
Sb 3.327977410164397 5.348698829212365 6.998310959911417
Sb 3.27536601157503 4.443330739473617 11.527170483471895
Sb 2.509757488574691 7.035299058700664 10.47644710825392
Sb 2.554662418130794 3.9393962016646262 4.559155870439737
Sb 2.1769599617753794 9.533141966885674 6.319054005237542
Sb 1.5711495762048138 4.620775503669607 9.197069847024158
Sb 2.054918545615401 6.671094631227581 3.699768163056246
Sb 0.9175025970920265 6.8768531952905425 6.37959740658678
