39
Energy = -153.13124698 eV
Sb 8.05076044365835 11.55235575657325 4.6531492409552735
Sb 10.652805396635591 8.59025430842406 4.049997923528778
Sb 8.79657533057541 9.236139282151573 6.158656042408622
Sb 12.467674069877495 10.573265174363852 5.1580380844889255
Sb 10.643833386361587 12.815935346732772 4.903202498837354
Sb 6.3804736123049235 12.741015220163556 6.69432872391221
Sb 4.900366257685112 9.154242038694202 6.898946374887091
Sb 6.6196600950345035 7.736948937105788 5.112877882124332
Sb 8.0551642597575 14.872241020643544 7.726237523930919
Sb 10.802585215683022 13.993095679197744 7.506930477846953
Sb 11.9782753668501 9.061533982514739 7.624755608272587
Sb 7.355891876527309 5.293360839169061 6.478961081973148
Sb 14.649861016058507 9.502600281646451 8.58605151256906
Sb 12.050326441187387 6.7590657773066125 5.82753317241706
Sb 6.88361945577729 10.720286488944991 8.727634892031057
Sb 3.8040454807477624 7.033794607888741 8.359251706692715
Sb 10.615362859850977 11.761495096485211 9.330060953930326
Sb 10.11251057801639 5.1888736104061985 7.339740452311239
Sb 7.521560283237039 13.630937740673255 10.269020949306084
Sb 5.993901455949198 5.308089024123248 9.001420793310196
Sb 7.021496763024444 7.610138558112666 10.461369209000173
Sb 4.525383127711921 11.16821767366512 10.32705487682824
Sb 14.365640197712679 8.186041814710567 11.210344573184447
Sb 10.325222588344154 6.74191483978359 9.79179749594202
Sb 12.937284024466058 5.641329445016066 10.41358320859327
Sb 11.66376084330708 9.21767049095473 11.542564355961456
Sb 13.563184020277172 12.113556327024677 9.382429950156709
Sb 9.398116904020151 4.637117499862572 11.543098850833523
Sb 4.344939668959792 8.423380166496607 11.19767775701383
Sb 10.21447477395223 13.967934580989235 11.174478872406443
Sb 7.408603341674913 6.1874888337666505 12.950289225580493
Sb 14.20499350401244 11.220127212909688 12.03727384344827
Sb 11.856144859569575 5.019980226859234 12.988725510266827
Sb 5.686430531379048 10.617749365169669 12.916620423141845
Sb 8.413797184133044 10.265096278759664 12.10261288228874
Sb 9.619495329328482 12.502322034334926 13.569729586065687
Sb 12.089787383404229 11.090815791780265 13.959682891973442
Sb 11.590740346167445 7.7860003366873345 14.012729810201678
Sb 8.737281216362016 8.37961779948871 14.313170270960379
