31
Energy = -119.82381143 eV
Sb 11.806994938703925 12.782886535499179 11.661522346234714
Sb 12.91650255029384 10.196417949847007 12.171189657600213
Sb 10.668015307465728 11.12398991694159 13.707581684844273
Sb 7.799259864244354 10.74239587198666 13.346471767174881
Sb 4.3681949048405615 6.091048377131634 13.957203096232233
Sb 11.755524952642745 10.773642569725789 9.590355375912278
Sb 6.443470160513231 8.008992574472591 13.008122370030392
Sb 6.836643131526702 5.100861127514489 12.921371320743635
Sb 6.269600242703225 11.076410648684764 10.969469252592999
Sb 9.293694302711897 9.286175928588943 9.77238961055146
Sb 7.935619239440623 11.585793339695222 8.681318838533185
Sb 3.508651746295339 12.085944109963908 10.172926018153218
Sb 5.689010416315248 8.171508771313862 10.19430255598366
Sb 4.604714739535177 5.453220081917883 11.22342564657328
Sb 3.547779794166539 10.95828454930861 7.570517785279213
Sb 6.230961185093424 9.804013845918488 7.191796341122479
Sb 2.9524850304741395 9.297366285781935 9.873426525916877
Sb 10.005166015588651 10.418744131563617 5.717089620107035
Sb 10.168662973720117 7.990552136742649 7.283840424550952
Sb 7.3474082988839164 11.0423503164075 4.8266463215751845
Sb 7.692244262514117 6.599892403922414 6.9721382604268
Sb 11.013271101100802 9.478011568342266 3.2067220454022087
Sb 11.688780386294157 4.094981939018232 6.590403627002055
Sb 8.893838479727995 3.93673634163223 7.320306122336747
Sb 6.535811642570009 8.906845044985399 3.1167997155895515
Sb 8.841538822068312 9.086961956222043 1.382930896501592
Sb 7.541173641251256 6.392129698942337 4.0993452679609215
Sb 10.0659021332298 6.806451916018875 2.7759584642285584
Sb 11.22361648096692 1.4145217800692518 5.578599619175557
Sb 11.25562575686899 3.642075464867815 3.7656042412623845
Sb 8.724149224063936 2.621378649994828 4.744953993187267
