30
Energy = -117.74928588 eV
Sb 6.2206411290909776 3.5417078450589274 9.780074970050098
Sb 9.913233535451603 5.8645966475107185 10.490790850821876
Sb 3.9767370982217978 5.1699464481628095 10.758981234840578
Sb 5.996498513172136 2.234777581741987 7.152994453447575
Sb 7.404834118200733 6.084439629328589 9.020691432254022
Sb 9.215710905750631 3.13439011509717 3.9233361326958542
Sb 6.0134888774964965 7.130012479186389 11.339608248132187
Sb 2.3295036898155286 6.2973913750805695 8.657021788450871
Sb 11.929020454859884 5.984075427653224 8.416367690007755
Sb 7.225019320267261 4.414920413529114 5.629365621531691
Sb 11.204441703241649 8.357054188860733 9.886022091459447
Sb 3.342440640601796 3.2088706529845155 6.562318968615103
Sb 6.349631934200216 3.3816468423436543 3.0926761838407577
Sb 9.72731594150422 6.6439566771889895 6.580590612224637
Sb 9.283716745692873 5.401125216974453 2.2287098133982517
Sb 5.225431491988236 9.624617350915038 10.054303713653665
Sb 10.58490437254213 9.290478437926417 7.174699635764708
Sb 3.502756317884829 2.6847161449904755 3.713370646416241
Sb 4.235840653170455 5.953575436226932 6.560459346743133
Sb 6.243922085192563 6.038846656534228 1.8274124992156513
Sb 10.418290196299202 7.443899816446871 3.900811411656577
Sb 6.202732626614884 8.859157050239471 7.42645504409688
Sb 2.617763898089219 9.162590438955403 8.915247795020107
Sb 8.18496299548734 10.71385147743317 6.428029516273012
Sb 6.196350593578204 7.561750153919052 4.257011719170965
Sb 3.211048745261225 5.170446720064372 2.441053123588953
Sb 2.2541530570329757 6.757804720447959 4.6340086647644885
Sb 8.30572393736881 9.474847642269134 3.767588449572358
Sb 3.9154138039706345 10.323501800415267 6.529469412746698
Sb 3.7684706179535516 9.091004612517235 3.8505289295485774
