38
Energy = -147.16717789 eV
Sb 1.850630173717993 6.923925592694685 10.616875720201556
Sb 5.927756665792069 9.968329153853746 9.504311171135209
Sb 3.256184431498292 7.817680224505521 8.280680393606533
Sb 6.564831231547622 9.554228122741522 6.36047151560109
Sb 2.2280807244788394 9.170089686440486 3.972779395348414
Sb 4.252292482095551 6.53931710767365 12.189886276647277
Sb 8.824568901750153 10.067947076745531 9.396914134591857
Sb 1.9796905134708762 4.054876644144508 10.08899761775903
Sb 3.536247671282763 11.765541440762638 1.3101333692352712
Sb 3.4720085171112394 11.78776345982522 4.238154741345594
Sb 1.7134945086151248 6.513745355557138 6.174776370903586
Sb 8.771278623162878 7.5721807306552735 7.813109366074808
Sb 6.506007329657959 7.523483067849777 10.677909176718687
Sb 8.915559556893676 11.021459949544953 6.676435334981628
Sb 2.987673350817385 4.150524667688374 7.404673913672768
Sb 4.206124015410475 7.215532197861158 4.871060988143186
Sb 3.0757020310462555 8.895501502118524 1.2453870702653917
Sb 4.81559377197368 4.1558331367916805 10.591598697432998
Sb 3.798432644574458 1.477252131429641 7.260689644897586
Sb 5.338783645861683 5.754523751179765 8.177708831060011
Sb 11.102804040011586 8.739606569991407 6.519146647025358
Sb 12.316836418252725 7.300991639982135 8.873802291147557
Sb 10.212917395811782 5.415129580132334 9.173657806498818
Sb 5.767414988074777 9.875693437639892 1.3348388358875332
Sb 7.586894334282757 5.4584853410505 5.267120592577334
Sb 6.213814078335304 11.143096425788976 3.8978666074714754
Sb 3.8827273085453067 5.44291762856177 2.6366559312398556
Sb 7.996767997104239 1.759252437471834 9.12673122399871
Sb 6.442156084428649 5.745123870464474 1.3632700152113104
Sb 7.934618022796336 7.4722013336177255 3.14955468167779
Sb 11.896075636955143 6.535753182963234 4.7810890810281235
Sb 6.367735242843852 2.566441664696695 6.850197480550413
Sb 12.255578855215761 4.957995399677336 7.18712919089335
Sb 9.755600714947391 5.246420666397905 3.3720372572458084
Sb 6.068715000289649 3.74771153951712 3.4815733362043146
Sb 10.159872074022703 1.3810791558686866 7.23009830791898
Sb 8.489395506182236 11.78776345982522 7.928715565952714
Sb 8.013096854930492 0.5934674941877376 5.457922761638319
