30
Energy = -117.95916849 eV
Sb 6.476531145665005 14.517905540667293 4.744440780121471
Sb 3.8691467807678217 13.54634572078641 3.8751340555423432
Sb 7.762969092302783 12.774565549458123 2.8382683939772275
Sb 5.183500867338738 11.832875605463848 1.9562196252345756
Sb 4.983507458276929 12.696779826671426 6.389049649503689
Sb 8.578330512258018 10.91037667954886 4.821794942999749
Sb 13.272074812927688 8.062930810876331 2.7530556326940996
Sb 4.572057447998606 9.567962784742942 3.554967457872242
Sb 12.174313969539593 5.837989019245258 4.236684331828285
Sb 12.259828766424883 9.512672805777543 5.039461751451005
Sb 6.075124961774656 10.084587616717615 5.906473250211413
Sb 10.168494039202036 7.540115938493611 5.52539248223505
Sb 9.017422286148413 8.636934105914705 3.1217148157946437
Sb 6.361417732034313 7.542929440705638 2.5829976268701658
Sb 14.294886425951573 7.4484385738268255 5.331352534496329
Sb 5.209483598950576 6.044305576571155 4.771514380838332
Sb 5.416126557882803 3.5017767984244905 3.398186178650193
Sb 7.3623480579598475 5.135677011132327 6.466315504850215
Sb 3.15752330902404 4.187396425836214 7.209998087194207
Sb 4.2089817833187455 2.0509540535063358 5.592986626905384
Sb 5.4550331773922185 5.265404737563203 8.60784810552253
Sb 7.040723375521519 2.4022228841681543 5.545802589498681
Sb 2.3790947327526175 2.0412287733226044 8.980643910845913
Sb 2.1030885559923096 3.4857593304309553 11.406621962979226
Sb 6.467683879069037 3.127495437865594 10.22314461890752
Sb 4.7877189307772134 4.070023108813153 12.30523212628084
Sb 4.96176800044549 0.894515035156837 9.264064692285285
Sb 2.1429337451556116 1.0222538666973544 12.918025027722928
Sb 4.84545048237307 1.616980221844235 13.831570852050577
Sb 4.412435514771231 14.517905540667293 11.801038004634854
