35
Energy = -134.76798569 eV
Sb 1.3912532318038366 10.159609429486974 7.297972648629783
Sb 3.3109626113423833 6.253747087564248 9.386432103785232
Sb 5.878947732698812 10.550418201641948 9.467169503925188
Sb 6.242639456061098 9.851900023723811 5.670242262842352
Sb 3.4309695377790166 11.731884838108558 8.58496844704008
Sb 13.203601946611132 10.35015199613554 6.950876498333906
Sb 11.839608347595586 10.241284808732237 13.927389123396537
Sb 2.0585821718606794 8.20012721057747 5.340906598674782
Sb 12.71441126311592 4.469443342904129 5.506337394512858
Sb 11.899358140850861 12.655307862816192 8.125506252535944
Sb 10.77263034745886 2.6491758513778536 6.67019844157681
Sb 9.322573951722179 11.329710330634528 7.80387181307397
Sb 14.482754754053852 3.6505397721910424 7.664547745510418
Sb 9.36611854795615 8.745893952141405 11.045910980561038
Sb 12.21581761591113 2.5986240567417735 9.188082586786535
Sb 13.234356721705057 6.285496942115439 7.641398693311406
Sb 9.093512120954246 4.366332951280286 8.216424333388668
Sb 3.665763493272367 10.800866639328998 11.280254923626279
Sb 10.34385125797665 7.657809484863048 5.319031730239986
Sb 8.521275332695442 9.441037964585004 3.9559721830725674
Sb 3.618268639328072 7.94350803380252 11.673421694832758
Sb 1.0167931275704123 7.425441796393781 8.07991144636123
Sb 8.110099433609024 6.0074728681858165 6.093047322642273
Sb 10.925787549763793 12.67078872487059 12.629788323461558
Sb 8.456772745298029 11.341702258925169 11.83888792082226
Sb 12.230995817602023 9.038373549636088 11.259705943477135
Sb 6.348937367276152 7.796941645705749 7.69304435798981
Sb 11.377896818937142 5.372874857480444 9.651632454476784
Sb 1.0964052164870075 6.709049505943959 11.175012535607152
Sb 12.840666606499838 11.794711244207832 10.703011167286574
Sb 9.056787321245645 9.363947224363331 13.890712246226077
Sb 12.13927634253938 10.768809073375595 4.34528361451351
Sb 10.87335025657628 8.880740541895724 7.877560967614327
Sb 9.602251291939721 11.905588233758618 4.983281025501794
Sb 4.7988765980111205 7.388170730988638 5.255526276205551
