38
Energy = -147.27107796 eV
Sb 11.23742886898966 3.9616742426762777 5.1408182587351074
Sb 9.64345872962648 4.462266902010751 5.409408313174406
Sb 3.8525821376790463 5.8941645097197055 5.159166964604766
Sb 7.320888197569174 1.9512397686081615 12.254705617268552
Sb 9.000438042989739 10.27298215695167 3.459769438500398
Sb 5.9662659423015825 0.09476700747725984 8.936693818281356
Sb 8.323336718370207 1.9772239855969747 9.234480094472724
Sb 5.629526827371935 2.7975869930994492 9.800970000040982
Sb 4.996423394400759 9.537611121552402 6.354963218119152
Sb 8.822024156405389 7.513169891487799 2.539875458794936
Sb 9.513797341123633 9.56449088851861 6.185820825783547
Sb 3.38081234147649 2.344395144935747 0.19438736214747468
Sb 5.773786599224466 3.946531941376477 7.109344360279929
Sb 5.452830414672966 0.7064979714471293 1.3780718101759906
Sb 5.431913215712024 0.2053699721187207 6.174095348365009
Sb 11.095623983175603 8.405233849296673 4.079193146018409
Sb 6.29009645505883 2.673943829452027 3.4134278318651163
Sb 7.332610341322602 5.838183521106766 4.373299559200392
Sb 1.5494389814887761 9.476829319330472 4.05384192648372
Sb 2.546976967330268 6.858896708348424 1.3574155880614587
Sb 5.883556412216364 5.737537241050348 0.8088006307109987
Sb 0.8891677011849749 8.434968318010375 6.688781510736311
Sb 3.650352385102238 2.4255527420351015 5.560343656359528
Sb 9.546031582219431 4.723980334157523 8.224621028015617
Sb 7.8242842246535735 2.1069441028810605 6.139349699023057
Sb 7.148140236431745 6.131490983470433 8.809191261009001
Sb 3.4373938641396897 7.557675913019037 7.660171996489869
Sb 8.09693908901605 3.9960249987536467 1.5794459622279855
Sb 3.7893420826484587 4.387613756766312 2.3432098432662545
Sb 1.1519959147632062 4.8609106122187 8.333155168858505
Sb 7.250252831680729 7.836919264463215 6.528473788378174
Sb 1.941855072069614 2.167423413351935 7.8603696564774825
Sb 0.1971658387329673 7.235041926179869 2.844684698897059
Sb 4.140576379255876 8.297621252085179 3.5227275486830347
Sb 0.8872967478633217 5.766964845451321 5.482255488750916
Sb 12.09866106820797 1.6209352353434228 6.502627496471961
Sb 11.095623983175601 3.8791794440270455 7.995280212208002
Sb 5.303103423214883 3.817895595859873 11.321379740067602
