32
Energy = -123.15446103 eV
Sb 4.582726714788372 5.887865851187406 5.8024173704226785
Sb 3.262655745624091 3.739053147221686 11.21834000607947
Sb 9.460329095329916 2.077286201712788 8.391055365864078
Sb 3.253722030764117 9.410618979499684 7.670017935968727
Sb 8.987400787336224 10.529345140942242 3.6642387139592167
Sb 1.8243834219711093 6.4262644971283915 5.033260891993477
Sb 3.4069008254993225 8.89445215800407 4.797735772771148
Sb 10.472516312742101 8.181818593384836 11.453491090542041
Sb 8.390106804584823 6.381956097271452 10.612938769304767
Sb 10.380506259584868 4.505341568125617 9.783665248572587
Sb 4.713805084864071 5.349564422069386 9.327304575058767
Sb 10.44092763483634 3.2636223401439595 5.9195906211840255
Sb 7.568410490482637 8.155782473874622 8.340611264355156
Sb 7.054681464298414 2.201167750500361 6.832441930556922
Sb 4.625062350799213 3.525859184178702 4.108137709656121
Sb 9.243388655773058 10.158216404724302 9.699874785792604
Sb 6.859231604591659 9.228485517412304 5.126642042461559
Sb 11.77022198968811 8.956718614716513 8.999242430710439
Sb 6.903259746272752 12.195683555082168 7.49774091456535
Sb 3.043017260171864 5.451029526834025 2.5922332717947514
Sb 5.604792405476874 11.875976300980893 4.948153533754465
Sb 7.974681478523961 4.787458016043426 6.042010210566369
Sb 11.207463659134012 9.718378951553618 5.3215053386280164
Sb 2.855351399616622 11.564302661401303 5.822414583858921
Sb 9.57952204912917 11.955377884179674 6.1041018765991
Sb 10.291807580104999 7.501599270414477 7.015142335149518
Sb 5.674086433181347 7.064340269379921 3.307668936935235
Sb 4.603617102877475 2.547797941297106 8.704041647968427
Sb 7.214729468170682 4.545619693127923 3.248454381407919
Sb 6.088166684704359 3.4408784824763776 10.989770204528837
Sb 11.99297329826138 5.205678531888282 7.4605898205921335
Sb 5.594656616177743 10.229989194252596 9.118739606520476
