33
Energy = -128.29923239 eV
Sb 14.10425195240571 9.151749551354197 9.549883121965454
Sb 12.255315247574401 9.99402745515845 11.583677609175387
Sb 13.255662938846879 6.504562344998777 10.295903636097949
Sb 12.733837910764468 9.091433052148856 6.733535034320479
Sb 11.354735720206245 11.543990743182606 7.54720499960174
Sb 9.75813612102053 7.303401745485709 13.57933793455529
Sb 10.67180122862303 7.707301394757987 10.87730865961424
Sb 10.559702905230015 11.937221087676376 10.279600074444707
Sb 12.260639159260851 6.3445375223630744 7.557528394478413
Sb 9.433053106150297 7.065507117515633 7.684761243119731
Sb 8.354323224292278 9.805791524013857 13.297782177861077
Sb 11.297119583983644 7.841697723696921 4.284752685574807
Sb 8.200473356314362 5.242477342347851 9.5554822236958
Sb 8.624319088574728 12.043298646785523 6.879926919023193
Sb 8.300318080089443 10.123967321896126 10.38792164154523
Sb 6.907506486958387 7.352897071884419 13.15353883953524
Sb 9.690251443932882 5.629978221498227 5.189531211466103
Sb 6.0499211097804055 11.877139316156637 10.780328873220608
Sb 6.156731185911772 7.262575745619164 10.234231009128349
Sb 9.558857759279029 9.551747360841444 2.811643376180571
Sb 8.335998429128077 11.9327535448145 4.028955281503556
Sb 4.105881095433118 5.438087682294666 11.148137544629098
Sb 6.8124367386780404 3.6419620775410637 7.698733489538731
Sb 7.123394659004068 9.557672180929973 7.1151087546708505
Sb 4.285724858010238 9.618826395135885 10.6366506803077
Sb 4.881534183924006 11.09273962982989 8.264734212086791
Sb 7.254433096997695 5.806405864934816 3.7129798340216285
Sb 4.3874053262594375 3.305280674430157 9.256715395860402
Sb 5.87867883675589 10.419275612658954 4.614187648167191
Sb 6.892619056225624 8.483283874969331 2.729486655327722
Sb 4.72987518665048 7.376526939555666 7.39754900468195
Sb 5.27961370162366 5.169893995944439 5.762721806493888
Sb 2.757622751197891 5.606985488050482 8.601521751151424
