35
Energy = -134.5961477 eV
Sb 5.125520801526223 5.0014672616788145 4.938576793863754
Sb 8.169463665036256 12.451891368911046 11.113894312428611
Sb 2.2573354333546765 8.415689993157118 9.152152442791063
Sb 7.092756654938761 12.518704432396282 7.229342319037978
Sb 2.2457434580513613 13.341258568998903 9.087257063155889
Sb 8.118205644438973 10.475332265823836 8.993510537903871
Sb 10.095324562102151 12.591523772720585 9.014389517668231
Sb 10.800246895342907 4.2986685580402515 7.4931240608951635
Sb 8.827497491395574 3.1411035892934818 5.653454507076458
Sb 4.966757534253241 7.686840508403251 8.349495269174907
Sb 6.849879679945177 4.5303482274496245 7.181647449713846
Sb 14.71433286810113 6.976258470086798 6.8435497426777685
Sb 8.48390164055768 7.677386157378625 3.430183967895325
Sb 16.869801021708263 7.915162981325624 8.380344943675631
Sb 15.02261386632399 9.76584292248258 7.583772542638429
Sb 6.712051973391266 5.57504177167648 2.583310526119188
Sb 10.01140987076222 2.678603902251118 9.728440777262826
Sb 9.367570672173938 4.924047493502422 3.4472806267104814
Sb 8.971054230056534 6.498058777032298 7.737659437106519
Sb 3.0104502712045274 5.662834549825149 9.124878312644649
Sb 7.26370149566676 11.279744057309046 4.799458488172087
Sb 13.783342339142727 8.932843433218899 10.357459428465136
Sb 1.6721299019807734 6.784393012073238 6.862097416132939
Sb 8.265455080095 6.488504250300202 10.524134214470001
Sb 4.147427914815988 11.675353264031797 10.414133897219978
Sb 13.012600536137189 6.368422270527098 9.192292286965685
Sb 7.252330144482761 8.66975155061823 5.826977862130428
Sb 4.889994218263137 14.309850565812743 9.589654512436566
Sb 3.040164321437006 13.94343381683163 11.761708201316088
Sb 7.544008268674768 3.6728278905902907 10.788156604019003
Sb 11.490069102239989 8.708189523515472 8.527449928173208
Sb 10.079442688709086 4.650053451454452 11.804493187876492
Sb 10.912744454311646 11.63779371222242 11.636614579340867
Sb 4.254832048193649 7.675283396283696 5.54042085126077
Sb 10.912129097489702 8.766967110735488 11.317568857286622
