32
Energy = -123.86077503 eV
Sb 5.3111146459038014 0.13396557681727178 6.814291694356937
Sb 6.740207763805125 4.55755188300665 10.886432952428946
Sb 2.621874876747073 3.3561109247336813 11.330319010344091
Sb 3.338249619556166 5.929679434987664 0.818267257068262
Sb 7.640940361827471 7.891498757005069 3.8891759877997782
Sb 5.051457987049962 9.957300868550648 7.060993586129431
Sb 5.363751418241443 2.24087018195892 0.5241403271007397
Sb 8.4357978908618 2.387313915986777 0.14006474848071418
Sb 5.160338059279159 10.766059629214144 4.307834277721983
Sb 2.68063222982202 4.9785844056348845 8.822592844927556
Sb 7.14924952720197 2.326034958498497 6.881162717124017
Sb 2.669785999027333 1.2157336667663978 6.649223439060725
Sb 8.361890831315172 6.805400591551565 7.86863073582
Sb 5.907533024566689 4.926333824125462 11.430555447275236
Sb 4.635925240033484 8.005166302892631 3.5467403825828914
Sb 7.777481325465129 9.25346883707831 6.464367039797043
Sb 2.5187830142746046 3.7926252083928063 2.4947811016296826
Sb 8.263101608089224 2.7159402852858485 2.9277275184011775
Sb 1.1804449665665968 9.106142843851195 5.297405146922945
Sb 4.171441115465169 0.3411784320420058 4.186881866181846
Sb 5.557964178777907 6.206168761743639 8.823426015216329
Sb 8.4394530307057 5.040318100527146 1.2850912905940675
Sb 1.8962969713332394 9.081430050039806 2.5423729233046513
Sb 2.6377430308239758 4.107098250210179 6.12449169751214
Sb 8.36557312918189 5.528169465257524 5.327647481640206
Sb 3.562641328387535 7.60053865141054 6.214333101661088
Sb 5.2428347723833335 2.888676446222601 3.3979469787031875
Sb 5.566704071417468 4.70654272856164 6.3179873020910735
Sb 7.4931703831586525 2.058824760055548 9.715394895242417
Sb 2.7784264439758037 2.3221674805664714 9.657081287127234
Sb 5.076345085764021 2.260011427046801 11.330319010344093
Sb 2.3320487244831996 11.442293363249071 4.107148159621
