31
Energy = -120.95356907 eV
Sb 11.936440415331202 7.63644294609018 6.6371962981139
Sb 11.748521316400158 5.7154487235105575 8.82169930620857
Sb 10.69237833414896 5.725111036534246 4.800925618534321
Sb 9.353040256286029 9.544410944439973 3.468693348071663
Sb 10.66134619127287 3.7450137298702186 6.952488176156207
Sb 9.450899790683629 11.335859138169695 5.7849095373383825
Sb 6.749109624486907 10.737300963895759 3.0838045911503986
Sb 9.401372203876639 8.871872439452478 7.270235198678806
Sb 7.12915709501569 6.560123491493408 2.100514755892903
Sb 9.309736006111654 9.304160835902174 10.097521116932347
Sb 9.35776708695207 6.430109654966795 10.307848668873698
Sb 8.15637058056572 7.201756524441378 4.7481614417668165
Sb 5.100546962286638 8.399812970792523 2.9109570021474775
Sb 8.301378565562956 3.2458816400290886 8.5665659287234
Sb 6.532934174330269 11.579221745745336 5.879236296276474
Sb 7.416996006418992 5.9683135212498755 8.181609302489008
Sb 6.999195984049057 2.538369146378187 4.31735069879299
Sb 6.208536042288518 8.915037347725235 7.011109848416539
Sb 6.335110554723982 1.824658810862354 7.024107952701921
Sb 6.3528777125788265 9.500206344871392 9.907780419084043
Sb 5.5283218829418 5.046493740663407 4.003824253577565
Sb 4.3892196166683 2.594157134049893 3.0469475821027183
Sb 5.77464251722177 6.720374191829881 10.48560127041995
Sb 4.567208903365123 4.2132812867402585 7.146828353157399
Sb 3.811951424138594 7.2358058542825345 6.436593538739068
Sb 2.8093575694960196 2.6629600179143824 5.487585176054647
Sb 3.183907764875988 7.148047130155662 9.305729570224859
Sb 0.9514286870550462 7.171078141566711 5.871899847643153
Sb 2.524377366475504 4.351984946632837 9.203811267102328
Sb 0.6326309398567925 4.465131315653953 4.936743972010878
Sb 0.13323842453441131 5.111574284088865 7.701719662616994
