30
Energy = -117.37733806 eV
Sb 11.088769709576717 5.233090367101912 8.991890321412662
Sb 10.602941637771366 11.167868282284578 5.879716642759834
Sb 3.468077848992624 4.579216602209045 5.865056465018667
Sb 4.4167181487486715 9.847529940754736 11.567356912309002
Sb 6.917375080360933 9.584942209225758 3.843386371746514
Sb 8.215355360420435 7.07896047423495 11.765921845434478
Sb 9.034938019061626 9.812187602632557 12.15441366372141
Sb 8.889362391233442 7.505841226684827 3.5977849377843927
Sb 2.703287828019142 8.245363794074791 8.470767209063544
Sb 13.738279373068934 8.760107511369334 7.922297942034559
Sb 13.138258207549741 7.339773645353084 5.467366641645662
Sb 5.083933785993555 6.760487655387386 8.960161502237767
Sb 7.162535740350487 9.535001130262216 8.352192949276231
Sb 7.955731240880473 3.6113217170381766 5.854658468567125
Sb 7.091607315758191 3.2802834818264524 8.48438855904213
Sb 8.289542424170376 11.624633004107038 10.019421226325262
Sb 4.475223456496772 10.564700017363528 8.772125767048195
Sb 4.291807288123213 4.040328508214633 8.581875272338518
Sb 11.49224296296052 10.471843371443898 8.500856760167814
Sb 11.128567357961625 5.268981177027813 6.0823492495822835
Sb 7.71907066761499 11.268364009557766 6.042207857252022
Sb 6.672064306636526 11.431006388828786 12.397173652545472
Sb 5.959522293411495 5.0032085253783105 4.41674482296804
Sb 8.2852310410386 5.968273764917948 8.972469816155208
Sb 3.0540410962688997 7.4680703222055165 5.69289876748521
Sb 11.31639116730458 9.060291627524936 4.022197749993757
Sb 11.722932486429631 7.896765557980859 9.81946306122143
Sb 5.339662129391626 7.124429747006909 11.816920455395172
Sb 5.961968082574176 7.563803230673392 5.75782419056515
Sb 9.301577468879211 7.420340682956351 6.445125470270071
