30
Energy = -116.37790862 eV
Sb 10.107420117356014 5.2629722293933785 13.927960923746966
Sb 10.439670028848349 8.09706097412772 13.944091599437227
Sb 8.707348495374445 4.693533321113845 11.499213141593275
Sb 3.66333814083553 9.222603573120548 12.661702187237136
Sb 7.819797082696505 8.531961469558853 12.842388388238415
Sb 4.421446329018791 8.15480128100821 10.105482779089279
Sb 14.627883331335518 5.37882434146231 9.487341328126492
Sb 11.596810998820962 5.169780609690182 11.311928848444467
Sb 2.199323346354801 9.980760967495819 10.321646901390276
Sb 7.848752749047731 7.139720696195436 10.37129956511949
Sb 8.124040668622996 11.24737602269547 11.991710555560473
Sb 11.661744184990024 8.014832230577602 11.271846621873374
Sb 14.552373951615529 7.588426180967473 11.36303114237013
Sb 4.944464428549824 10.90155491808497 10.730183433721301
Sb 12.055003661201251 5.815255000303155 8.156672583481974
Sb 10.014147202181121 8.528894632047757 8.701519454680083
Sb 9.102159502351507 11.218328237821348 9.437494823177166
Sb 15.582705525310628 8.013042720696353 8.713755455250704
Sb 13.413708034191997 7.980017754798507 6.799069021969657
Sb 6.074454268287717 8.315017929447729 6.746616875635249
Sb 6.694512019369657 11.032331851118386 7.518629388984574
Sb 12.164393312598072 10.385319050346311 7.772710680073717
Sb 9.92339613532949 7.97620929798817 5.730933507648297
Sb 3.6270615539012234 9.367891160187597 5.579739327584053
Sb 4.222100770503337 12.112402134434163 6.293162069562038
Sb 7.421315810965324 7.9770083953461 4.262244462465161
Sb 10.81900756436756 10.634799442412168 5.232502637017051
Sb 8.384279048451583 12.165732648887152 5.499428771863132
Sb 4.614909262160824 11.208348610073912 3.6069711963534212
Sb 7.435179653042926 10.665746823544373 3.271433805342641
