31
Energy = -120.73804903 eV
Sb 9.847785846979404 3.663537788322095 5.890617861714305
Sb 10.695177834854585 5.440197136584692 7.970450022360877
Sb 7.529632466955321 4.524090603141476 11.621100732331602
Sb 8.076184052661079 4.258492138954689 8.350264909591916
Sb 8.101843283832213 5.2888540972668325 4.325048165766739
Sb 4.994413569269215 5.7258352451977705 12.218834724985218
Sb 9.69486145135416 7.9754251517062205 7.027200757834089
Sb 12.607614393506651 6.376636954872845 11.214455923241614
Sb 9.498224654918502 7.816141485765524 4.137443882146852
Sb 7.455879057573578 7.240476542225378 12.42958235139756
Sb 11.730810992529877 9.707019775803097 8.112819888430423
Sb 4.804856034811959 6.1554509910887 9.376630051758685
Sb 13.677291005906454 7.80281587589053 8.973614876806572
Sb 4.258123604356945 5.089310921334176 5.669488317918911
Sb 6.694675386067859 6.257405591732086 6.733161501842533
Sb 14.814831128761513 7.647978426269995 12.731212495640799
Sb 2.514255168818766 5.026339240058332 7.971699661949325
Sb 11.038368813847882 8.444938517813721 12.438816755076243
Sb 7.802925348732766 8.100692190229038 9.62295043295896
Sb 15.083940521184502 9.648974439711884 10.668960741649256
Sb 6.863117496776338 9.0274983096141 4.529393697563475
Sb 7.379982697667118 10.907404061559918 2.410672174059409
Sb 9.901927766511077 10.028089139258432 10.359578514370826
Sb 3.6377458346636464 8.69811071785305 8.781752672253218
Sb 13.324054066423795 10.12302728873244 12.895213449647077
Sb 2.6639921188740328 7.39786533644525 6.332844378922641
Sb 7.665393973456205 10.79752401777056 6.627920102496376
Sb 6.053121602727555 10.317334480305929 8.999636583963587
Sb 7.916492459610655 13.548830537891087 3.4780762639282194
Sb 5.218403855600511 12.694815454073433 3.0681205030186445
Sb 6.210860439242976 13.13495793956308 5.746659473604381
