33
Energy = -129.42301486 eV
Sb 5.286452835474809 10.207974017222964 3.1153720843141524
Sb 9.636530776843664 9.162677124704343 3.546367476064237
Sb 5.216471078199773 7.4779995473661165 2.1546187413995246
Sb 9.974989154394452 6.282493494430075 3.7066839503721027
Sb 7.504584078154541 10.551690711114142 4.912394495854795
Sb 7.553197588712791 4.835323606480186 3.057160227414487
Sb 2.3507888329092634 7.997398740751045 2.397256111650111
Sb 2.7291436419190034 9.977848315390956 4.460573721593427
Sb 11.305414282312057 9.771082757389847 5.861483719794211
Sb 5.539360759739856 6.125374819639136 4.6802819928274015
Sb 3.920131210039868 4.127913469635927 3.3939117671788637
Sb 9.434569391254739 10.38184049731807 8.022167005734374
Sb 11.842195379113225 7.1657091703400075 7.010232074291067
Sb 9.205716224304865 6.105127435146676 6.456391985511629
Sb 8.307161773946847 2.466576184856574 4.619307380577288
Sb 1.4283820807737213 5.53344155157265 3.5903438468314395
Sb 7.265742823788076 8.656883390328836 7.0930803192830725
Sb 11.125697824993999 8.51574954992962 9.504922588137191
Sb 10.075101655273778 3.359134742733256 6.715284782377834
Sb 3.3342924024289977 2.4141679463059225 5.604945729714075
Sb 1.9902638132091592 8.629767719365537 6.914561904873466
Sb 1.1027210170817294 5.937657724482473 6.423705238184995
Sb 8.729466445854692 6.91031359977051 9.582679339373753
Sb 5.526210261098761 5.487019994934171 8.096809960482842
Sb 6.026290008717916 1.351539540874948 6.0656033433889744
Sb 5.6125105389662595 9.852541292985658 9.232270369303922
Sb 6.8221119792156975 8.1761398034988 11.313792567982789
Sb 3.696689544591774 7.800625216396437 9.009170950275333
Sb 2.915252732766821 4.191623711746297 7.846624458233469
Sb 6.046338707509329 2.5140894213505485 8.63389975200814
Sb 8.810544255350274 2.4826109106586927 9.176430253035685
Sb 5.702200305198202 5.4616561468253755 11.049459372532784
Sb 8.483476595862445 4.588007844457271 11.252212489404787
