34
Energy = -133.20021912 eV
Sb 4.800812770726274 9.238317355562824 2.873653469217375
Sb 4.770225964743861 7.003937742964977 1.0864963212647405
Sb 2.233328767724585 8.662305071484012 1.6587775808137413
Sb 8.390910110422627 10.619267433029604 4.584408217714216
Sb 10.17943547728904 12.071745485865057 6.179422832150184
Sb 8.117819368437019 6.374937879225881 3.9367844865781687
Sb 10.195034543380403 8.455695057078294 3.985496904226088
Sb 4.677279585555284 8.092552474267933 5.5062845280456845
Sb 7.423267802640884 5.215922999916979 1.3992217121945705
Sb 3.462472213542166 5.035278438223034 2.7298108452600824
Sb 1.863535929470314 8.281467293045893 5.691313324809457
Sb 7.143549739572002 9.810303971456428 7.231785366954564
Sb 11.428703864008288 10.12687622623022 7.885084123642402
Sb 5.06339342015443 5.22925197352901 5.087250964491269
Sb 10.863731371569513 7.5882573614602125 6.631151748701532
Sb 9.088576592794263 3.716237895117974 4.513989284463236
Sb 1.1604955428347332 6.674974057760808 3.3946507285678926
Sb 8.151925295033072 7.106843506287794 7.429872195801885
Sb 2.699109708099756 4.075545337193513 6.357197425098884
Sb 9.00035890176636 11.19566032861441 8.984661255423605
Sb 1.6383331228410187 6.342555150865147 7.810123357902386
Sb 6.738832193372758 3.072092718931498 3.0403160258929627
Sb 5.0790428430141805 9.611302936809835 9.438958564236069
Sb 5.566156838080512 5.325882541623069 8.67683356309125
Sb 8.135239835898236 3.6987401993200626 7.258603716888496
Sb 7.425495421709915 9.3770194503446 10.994881357320127
Sb 8.956883151195822 7.0655488231941534 10.201684584719814
Sb 3.996991195864682 2.9297878439452862 8.680347373585995
Sb 3.6421873218273553 7.100409614105508 9.815563405555684
Sb 6.115460735832849 1.5891607612599898 7.25266521315594
Sb 7.017997783439985 5.1345177471911665 11.149919520114484
Sb 9.880120672399775 1.9089663102033727 8.721964698098633
Sb 8.608831131410623 2.69786551412886 11.177750799359844
Sb 7.475699128259196 0.5620108446742009 9.624312849570517
