44
Energy = -170.81728216 eV
Sb 9.552440896478238 3.336700660557098 8.84618289578665
Sb 8.8864340940004 1.653537135748487 5.3157515578955765
Sb 6.068098518616713 2.9795035218333585 5.541805971318148
Sb 10.673798188040927 3.908613601420706 5.743713504238092
Sb 8.965406939011745 2.7815482444750903 11.652080579027075
Sb 9.19710062133591 2.0570615499196876 2.529759903166388
Sb 6.62900890001229 2.7664928340065695 8.753990774607349
Sb 6.1826671636093655 2.032156210678484 2.819084392597168
Sb 9.070822259036376 6.118339176188745 9.333180969092092
Sb 3.727282356639473 1.0917122070207248 5.6885445160963215
Sb 10.084405521684367 4.7929708943124805 2.9958237907470453
Sb 8.385321740028314 5.571559225924145 5.212388352953826
Sb 6.148187091328955 3.7246008839397406 11.65499480386696
Sb 10.11865921181532 7.892581714571921 4.877502653765882
Sb 8.542088754890363 5.534448119184767 12.094078757874636
Sb 5.435910876645926 4.3737563562875605 1.1916125167253853
Sb 3.339565238729221 3.6828034057429035 9.466689174379033
Sb 8.03476643050914 5.008825331871574 0.08434754898654791
Sb 3.2029267207913557 1.2820494062354981 2.896561963810944
Sb 6.028581640477865 5.472751108448259 9.328392577078063
Sb 1.3618106929638705 2.7780476914277137 5.7979540390559166
Sb 6.051814856168352 6.546433888265842 2.9175270467893144
Sb 8.539103399068837 7.818226920147227 0.7738767497287076
Sb 8.399134980855864 9.932349280570598 3.777722804725062
Sb 10.159877697022223 9.109817735794282 7.487719581570348
Sb 4.15010356933466 7.290559212716289 12.553542261028028
Sb 2.1886096494541527 5.75197341751395 11.131320401009543
Sb 7.44710788243194 7.1254228384710006 12.553542261028028
Sb 7.471516035327774 9.29252462262682 8.507437405876537
Sb 1.9982167442337826 3.8999681526938255 3.1935426562822733
Sb 3.9616907395338483 7.710640976046686 1.397452651760009
Sb 2.3357630106127387 5.090207784421821 7.244870765657627
Sb 1.3271323599167675 7.9280314788230575 9.487047162251441
Sb 5.260587760236444 7.8035634083149406 6.854647441215254
Sb 6.050575421086483 9.010897300196378 14.22250313701063
Sb 3.953056182219123 5.4232294804417664 4.7173166156627655
Sb 9.660785381414822 11.535220709364223 5.892609618496597
Sb 3.4902289225319025 9.874167315646893 3.3125637395326417
Sb 2.1806286419224503 9.328465862249676 11.97277098162282
Sb 7.135853837652951 11.841290564913988 7.287912991639444
Sb 4.941591998942933 9.579080578030219 11.02185233636008
Sb 2.5724642787865584 8.00819355934338 5.203296516382563
Sb 5.836247278876013 10.107660869482299 5.192146386669644
Sb 3.558010579957938 9.457399828364617 8.51382946432179
