45
Energy = -174.95287598 eV
Sb 9.103385142370469 7.401705897658543 2.178472387127962
Sb 6.186243867720446 10.847976984734345 3.14090091694995
Sb 6.787306153044344 6.361349703755133 3.453192791265103
Sb 8.721743490652361 10.272129301944952 1.9658400999200007
Sb 6.322554170707759 8.683915713147151 5.036182011780449
Sb 10.630192518690357 11.28416590006519 3.8627883249788812
Sb 10.091373577666353 7.076210514840241 4.901724556606092
Sb 12.911480552588534 6.258916372832355 5.514782921219697
Sb 6.918367882669634 13.00865275451602 4.879806190815228
Sb 9.513100659437686 13.920533235402981 3.937162312333156
Sb 9.344599428432733 4.354946563686894 4.711695602740343
Sb 3.852548676467118 8.453739049129775 6.485832321948443
Sb 9.289096716400508 12.113616999227332 6.282956091542061
Sb 12.126558259648451 8.046902076254723 7.632745074237116
Sb 4.678958498365352 6.349238667461023 8.294609246444248
Sb 11.875432446613551 3.6714413197301545 6.161188810822191
Sb 4.456771589370466 13.513465175611891 7.984749373739027
Sb 8.323928242079697 9.259088579897389 7.141621736311918
Sb 3.536492085615856 10.736263551317084 8.435305503525171
Sb 12.081114045951606 11.45877555600353 9.095293488230988
Sb 14.249473586665614 9.456375187679253 9.0003654146846
Sb 7.281350907288858 4.238680981495013 6.703420977312896
Sb 11.243914071320107 3.6638527422160574 8.945475902564064
Sb 7.566497219332431 6.532230485838983 8.44376165400608
Sb 10.89114788651677 6.4576883697713985 9.695486992663145
Sb 8.476582860254231 2.7411045077672176 8.9007361319082
Sb 7.000553094138105 13.176822891546504 9.286703872756695
Sb 14.559301654626083 8.385725891459389 11.664546655098125
Sb 3.6150334904619608 10.821774329907594 11.477297170206306
Sb 6.474136834992529 10.3398520463665 9.089159917737444
Sb 9.88941977408392 9.725563056997743 10.073564907379836
Sb 8.764528180772825 7.610216668182581 12.609721049796548
Sb 4.631602065763571 13.487940859442372 10.919524334446043
Sb 12.88155860193559 6.0307289063433664 11.779125192851279
Sb 6.021760241296127 9.21287349903951 11.971862991155975
Sb 4.095568948447929 7.276393640579712 10.964323437285374
Sb 12.13476531700836 12.565892016726698 11.800001654607524
Sb 9.27217080122935 11.934076929875326 11.89025127350102
Sb 12.120634099778686 9.744592424556208 12.27462244935942
Sb 5.39455405248093 4.973593022098183 12.171416748907667
Sb 7.982420587967281 4.854625702491484 10.89443734569657
Sb 11.064012624508916 6.505438223229648 14.061149207939435
Sb 8.77934895073301 10.070271389061238 14.17370208856813
Sb 6.399145198819856 6.891713420056865 14.113611916098183
Sb 11.462797609820804 9.232465554790886 15.00240761566821
