46
Energy = -178.44170952 eV
Sb 9.778977693630683 2.2475857616619166 1.8882177337035648
Sb 7.777909638322068 5.829864817111797 0.39321696116286486
Sb 9.538939107738791 4.975852692162108 2.865913603540034
Sb 10.457364957083184 3.5686071900855802 5.454210517026042
Sb 7.51234843504486 1.3467852923344097 0.3988899139423453
Sb 9.294770533124442 1.1108461831832204 4.469963221125074
Sb 7.562299040271642 1.608368631951405 8.195887632961396
Sb 10.436031781495283 4.471786623601297 9.498961732948636
Sb 9.559905202556028 7.543193815617615 6.705421119710828
Sb 8.543310781744099 0.8028809762416974 10.811498378216024
Sb 10.863482864284254 8.852206127015524 4.46797037761045
Sb 7.253181578358295 5.799344498080619 4.372569949798163
Sb 8.24866586914074 8.991734603862144 3.21053054736501
Sb 6.018723390404434 3.762669982833296 11.769571186772653
Sb 5.335853768540466 1.327787086562235 2.280400988645895
Sb 8.462756738150546 4.27199182184968 7.413206163574775
Sb 7.580588837994603 7.72289304352642 11.769571186772655
Sb 6.422712387076515 1.2365305079135365 4.876230874538381
Sb 10.292174275719448 9.193254670354744 8.962680465127272
Sb 7.043050504490064 8.775651028728028 5.863895885743322
Sb 10.516397136003881 11.575138263879838 5.420147004517632
Sb 6.294503190552075 2.576079545786807 10.588553202038648
Sb 10.275079272752237 6.994369220773651 10.87275999204802
Sb 8.808632999698627 3.54781187218097 11.656986550517177
Sb 7.392791716761469 9.159109447600072 9.325846721115735
Sb 8.296050488183177 11.927926339694878 3.602516877760336
Sb 2.616804003689869 2.3441707224462682 6.570587030214244
Sb 5.654687273296661 6.704181963945001 2.1531973271743654
Sb 5.080527547459529 3.9495312030431307 5.1656088360743535
Sb 5.028602572161323 6.515469547349921 11.131954413355691
Sb 7.823604877067821 11.567351398674617 6.417925904410069
Sb 5.089029755629198 5.835503842673059 8.291703070324436
Sb 4.059811221255456 4.0952796673762935 2.4218202040599968
Sb 3.2714008105641685 3.6831035625567234 9.045412709320614
Sb 3.0581078784215388 10.26264459621156 4.984549159376097
Sb 3.810935388321165 9.708356881349685 8.00238666978099
Sb 0.6722392677236586 4.216323789350709 7.698838483871819
Sb 6.0158798578349275 11.179381823384704 10.846749324575601
Sb 3.9160537560694344 9.255669051609997 11.00289524311318
Sb 4.4175923188686355 12.649176587543705 5.34155965797627
Sb 1.3361045033977421 4.294672754964616 4.762691545613451
Sb 3.1542221387045695 6.461794940763456 4.982792877191954
Sb 2.4061424034355268 6.751690117264773 7.699940074208637
Sb 4.719614204292138 12.465507963736224 8.480577398963495
Sb 1.6164178656166488 12.508491968396765 6.033688185152929
Sb 1.9748412612643427 11.71710422099265 8.877293519012685
