42
Energy = -163.04686319 eV
Sb 5.447679125620009 6.909669849498664 3.680244368393073
Sb 10.244771044273584 7.941635820160403 4.0313766311978405
Sb 7.823823800763204 5.315478086499293 3.903180356991732
Sb 6.794552727353122 2.8424780319899727 5.034062496873309
Sb 7.991873487483734 11.43365081422485 5.116331727989726
Sb 10.745532587535973 10.713125619871274 4.4912159873414135
Sb 5.773605195141309 9.838173140047587 4.017761634694814
Sb 3.7820654871515096 6.237162872774153 5.920491382152643
Sb 4.129205804234407 3.3684388028041896 5.977154127011188
Sb 11.566521259780817 6.477071561977721 6.112865566682212
Sb 8.68903719274911 6.812730995060079 6.227368373944102
Sb 3.91721639379561 11.975979674633093 7.783510366733654
Sb 11.135815918344885 10.934480169335883 7.359025061656407
Sb 8.600378008732608 3.4075682513563885 7.148963319392825
Sb 8.221655855015499 10.242680364342318 7.746552730638534
Sb 5.277521021416513 6.535574415609569 8.398590812727067
Sb 2.3917273308823503 9.546071920619019 7.490878188757825
Sb 11.4989397461982 8.264741149451643 8.377775102524147
Sb 15.78373662882079 10.029641328113668 8.097306397823893
Sb 14.0194701443103 12.154902392004772 7.364578672871503
Sb 5.234377019657889 9.629020458400287 6.834650890202385
Sb 14.268507245601473 7.75300885521362 8.978742039488585
Sb 5.010028723723209 12.101014812979129 10.45224569886483
Sb 7.690684457529057 12.468618402303086 9.469961451862059
Sb 7.536874551050495 9.382353709274982 11.122534757607855
Sb 4.41240784626057 3.748752987745026 8.820232301870504
Sb 13.022084978145385 12.427139749697973 12.24455296064492
Sb 7.1749172470241644 3.784911593761933 9.396519443893087
Sb 10.686207779869907 11.333191453380687 10.826353919891185
Sb 3.0832186434006053 7.890144906597168 9.761191580053202
Sb 16.52063419926972 11.430251628514664 10.514329369084328
Sb 14.729976564385113 13.545497545720046 9.687276885658383
Sb 11.186949094458805 8.820489044905209 12.248236352143202
Sb 4.666257664196707 9.443754500244845 11.602448853413259
Sb 9.37698268790035 12.843284588260131 12.865620671246475
Sb 13.915818250847686 7.890920802117564 11.809884948923496
Sb 11.48476823344806 12.371563596086755 14.81386794680146
Sb 8.791576031021327 7.186123167392817 12.738927998096482
Sb 14.951238659025114 10.386222295371843 12.74481893055558
Sb 7.271326389049347 10.990305436941158 13.526134675313838
Sb 11.413201166747617 9.547377646586371 15.018551452101606
Sb 8.558303644704555 8.866267395050487 15.065153402805167
