47
Energy = -183.52571945 eV
Sb 6.882337155265856 8.258334215033356 1.8843845051057442
Sb 5.256944618377028 6.073854868100562 2.831300450145709
Sb 9.705478028426619 7.761528360804342 2.4935497675924805
Sb 9.846575266496469 5.098772136820831 3.5524054846455657
Sb 6.635358655575208 10.283652522889918 3.91311861012827
Sb 7.273357409599196 3.988325128530381 2.9926461683704284
Sb 3.997364048019043 9.862463121440893 4.938774260522588
Sb 3.8424863874052977 6.9495518292583265 5.21097335854976
Sb 7.533950583770037 8.178002107087453 5.667258199285037
Sb 9.775580061303843 14.075726194895125 7.033706779500499
Sb 11.342806512014116 3.4613536327902437 7.485509920533209
Sb 10.117293953237008 9.281173480006855 4.989855911428392
Sb 7.4986075610087495 2.9977351209163396 5.8153171116660545
Sb 3.6660276714795343 3.4726962952197753 5.928284873253021
Sb 5.198403148036912 11.430338309840886 7.100457096889377
Sb 12.517921774009691 14.484875747620393 7.723060117502033
Sb 9.617876528115653 5.553710280211419 6.4714138955472835
Sb 12.815751046323998 11.60212315610769 6.990823672904513
Sb 11.89530663070159 7.312579645958311 6.1930478661859825
Sb 9.555672410443748 1.285815387590384 7.186684761840743
Sb 5.345307472143783 1.116902040717652 6.184588422414063
Sb 8.188745965501743 15.040977121206586 9.235543559964977
Sb 3.4224605378563986 10.86699613951612 9.330828502552661
Sb 12.562918884907015 14.227532773793842 10.566168934587463
Sb 10.083411098161655 11.207598311762238 7.892461668719816
Sb 5.288616738969009 1.5413179813633644 9.067622622309731
Sb 5.752281595743091 5.385891900676932 6.809921984611764
Sb 10.091108906379299 15.406540389365231 11.382231172839171
Sb 6.981133330432163 9.453735567692693 8.235532247298833
Sb 9.598375325043557 5.913002723387426 10.00645985407294
Sb 9.774748410064818 3.2690830542314546 11.203453524175147
Sb 7.849651460778716 2.8874606536756056 8.96527398142805
Sb 3.967886538195769 4.1159782294381175 8.76491582524327
Sb 11.446682655291315 8.280018247225275 8.860986473044983
Sb 13.743002192874672 10.01708832820881 9.262828485039734
Sb 11.594218942804542 11.545829180425796 10.412780127437443
Sb 4.422050538864001 8.210099484214613 8.891608373515622
Sb 7.707546574599539 12.346122658375409 10.294670973021054
Sb 8.74623723127827 13.230313288912408 12.849223726681874
Sb 5.105276652248193 11.909275923506941 11.465876534561481
Sb 8.132405264328062 4.736589503339899 13.143659834735663
Sb 4.812705737718859 7.443705430150343 11.627479864913093
Sb 10.034162529971503 6.931388631572228 12.690601215483412
Sb 6.670135875952689 5.393560229393777 10.744976678398146
Sb 10.512926941229225 10.964257831979479 13.028292739009693
Sb 6.211344412310951 9.620684068586508 12.923503240774043
Sb 8.698396592098614 9.244276621514611 11.474774476927669
