45
Energy = -174.89878403 eV
Sb 10.463649013049153 7.8122316597939925 3.9471304594901873
Sb 5.4041469910894495 9.529274878128934 5.06169925439524
Sb 10.176593086875583 5.33993245276225 5.438002221223151
Sb 10.274519683374267 13.334084454894407 4.48827554871475
Sb 13.338825808235589 8.141995489307353 3.803376737068159
Sb 8.017210902282159 11.254902116708124 4.425889408253282
Sb 8.028780663304717 13.447243109114462 6.199565461933918
Sb 6.715192577356815 8.380700910939304 7.262453379754513
Sb 7.926214820582906 4.257697474155539 8.406428759772307
Sb 3.821093385699019 11.62953239798146 6.235443609369103
Sb 14.231950161435744 10.163945704723126 5.6163573092247105
Sb 12.755486959921939 4.027432906056735 5.784140495123536
Sb 11.026533680454659 6.885628268627879 7.730854465993514
Sb 11.753147113769032 11.504937132747854 6.116664933617306
Sb 14.744480011633993 5.970366789942461 5.086380425297232
Sb 6.587842116086737 5.651688923056243 6.242624918586174
Sb 9.579501882663365 9.39330206717116 6.2282839292308605
Sb 3.9811673091131605 8.869837499283747 9.347250877292462
Sb 7.527385062756406 11.570726165383842 8.803756231642819
Sb 13.503160918784452 8.859625785188879 8.150612334574863
Sb 15.21929910785894 6.572973729799589 7.90763053461451
Sb 1.9058822538541966 10.225657786974205 7.884232113041032
Sb 8.839165522197062 6.749683932169079 9.628318019286919
Sb 4.9891555584612135 12.957725086194955 8.564185061835852
Sb 12.95488803175167 4.881557639294591 8.630864636785812
Sb 5.959082020659404 6.246285749705578 11.345521445249974
Sb 3.108402617936839 11.54917884232385 10.267430110341982
Sb 12.578226048375388 12.734870787430019 8.623788790819901
Sb 3.9710018102486395 6.272488243539273 7.20548551083762
Sb 5.806092254487933 3.523214964725879 10.249335667415528
Sb 10.750435765581921 10.838310315581843 9.887784961663545
Sb 3.2169009378023024 7.1247867944575995 11.581445889547712
Sb 6.830129518416334 9.35856012247649 10.747287607800006
Sb 14.653867543997212 11.008608952702186 9.716187528932604
Sb 9.016869047034993 13.012836801668204 10.888490861187758
Sb 3.367954362147273 4.545778475239494 9.275561554059289
Sb 10.474393289127395 5.825120385006475 11.86204703258268
Sb 12.749147592927597 10.141971019857326 11.82915169818091
Sb 12.85407673477361 7.328845520893509 11.126137623411404
Sb 6.402496229845801 6.515993042568439 14.176614352143938
Sb 5.470976867369641 11.148273223855746 12.532717964145696
Sb 9.248216992749459 9.562794849582676 12.397969503748913
Sb 4.511119992676268 8.706178525705008 13.842305999488849
Sb 8.152063836940098 11.967683419057103 13.470565558344665
Sb 9.215126350990216 7.277388039903408 14.085601650655438
