49
Energy = -185.58392833 eV
Sb 10.183142706613705 10.538816717355012 3.2762739836136876
Sb 8.392747782534846 6.070736006585282 2.3967754330310043
Sb 10.545912234607194 7.402818341822836 3.7849307030163963
Sb 7.097917852915636 10.497028964652301 3.4882302220373655
Sb 12.563107242207364 5.412575914264598 4.40203199254881
Sb 6.168164864269173 7.678904338061058 3.392379313733278
Sb 11.380063605279298 13.166652066853217 3.8184789773951953
Sb 5.08828830234402 11.484451852189899 5.763134239121364
Sb 4.131907457555237 7.814311083367307 6.352051785247025
Sb 8.335509440639713 3.6133804925337145 4.1592699408287555
Sb 10.160123986241523 10.253690506947148 6.137870618870284
Sb 10.675636990707455 4.003166453451922 6.117147647211507
Sb 8.628850340904973 6.037725015430178 5.824126996624312
Sb 2.6398401377799736 10.281660943359894 6.647427775283377
Sb 13.189352076786195 7.534429760239129 6.322949087820546
Sb 9.719973212053079 13.151178159163203 6.244111528484709
Sb 12.791948937162644 11.406116307075585 5.8068772434880795
Sb 6.958801673283872 13.9468439998174 7.197775668282554
Sb 6.924934170345625 8.916735881434029 5.956711421730965
Sb 4.142215496102577 4.652897669330494 6.931090646215882
Sb 6.848605072594314 3.8458328070261403 6.791844503374594
Sb 11.25518650997444 6.789646702475012 8.353596666189205
Sb 10.328559118461753 12.860583590282195 9.1887172501711
Sb 6.696352664427501 11.295973674071938 8.36301700561839
Sb 13.140425538861429 12.394912697341146 8.549123091331424
Sb 7.145641221691225 3.1318860756145632 9.948362164491042
Sb 12.316182168765414 4.220118056239537 9.067753834535864
Sb 5.017684325606952 5.088792148815989 9.65922439481715
Sb 14.13680425359525 6.5217868516202895 9.02315381993209
Sb 8.697647336258122 15.353439324570447 9.092218704568566
Sb 4.726217084445899 8.365820147775775 9.253018075422352
Sb 11.698893248990135 10.062013203872443 10.04334354341593
Sb 3.882959322296727 11.120893046870261 9.339129218138314
Sb 9.726937734852843 4.638333563536832 10.704983365453229
Sb 4.845121998809858 2.890774277213152 11.654119941657221
Sb 8.008777756789584 11.42801854277512 11.365056996068839
Sb 12.850367305551789 7.799823897161076 11.511808539878858
Sb 7.5547462421960745 8.157219630760531 11.662293650395277
Sb 13.653792510551684 10.483861876150737 12.18615956491761
Sb 9.414840327832778 14.044725021508984 11.607749488823037
Sb 3.8549436064635714 10.527380932482945 12.376037467769716
Sb 6.808671112607694 4.965915109624933 12.528237278321441
Sb 10.878055209028304 11.105048977462271 12.883830812908377
Sb 9.969537584468295 6.932939609353256 13.053028581923318
Sb 9.37386729884312 4.07269337722727 13.503169990063828
Sb 6.0756141798291985 11.98679790611955 13.401670602505936
Sb 4.655418696456148 7.8004559339689035 12.125067851212009
Sb 7.238246924525757 9.428362856639264 14.306602663984531
Sb 10.02490980874344 9.36527436135811 14.981480381379383
