47
Energy = -180.88060352 eV
Sb 7.608178498271685 9.55597557484557 2.402515813032959
Sb 3.4405026450751763 9.102178148091294 3.361313174884019
Sb 8.99564848146973 6.609723427364579 3.820979762324482
Sb 5.220684727140417 11.102397625200156 2.3044367017081884
Sb 6.065636571540707 5.2849485658542035 3.358607963930458
Sb 5.028496304508847 7.2406960141244 5.180828205032967
Sb 9.664677683159043 10.92593765572336 3.882852065962662
Sb 11.632101434683795 7.004239145373794 5.330371669857916
Sb 7.797536647637165 8.864159127011066 5.196949899421423
Sb 1.9740601792333956 10.799259853411584 5.069769288414123
Sb 8.340250922283118 12.940464247895111 5.357845375762946
Sb 5.7346820986449565 13.171570074260929 4.230394605182006
Sb 11.549594063196917 9.900471736989775 6.780968018082292
Sb 3.889849235367719 12.51211029893663 6.3496206028112665
Sb 7.677420277602957 4.9481923151343885 5.741137343112011
Sb 2.47934057818892 8.838092204412598 7.436231398025867
Sb 12.52924939836549 4.250599368903869 5.988207572221399
Sb 9.68509208674974 3.1101889387193085 6.807001127185713
Sb 5.133548451254229 10.153858124326643 7.468820911471117
Sb 10.59788163929472 5.8287650683741425 7.752730647459532
Sb 2.884487037117821 6.363574117362458 9.3841906398396
Sb 7.840259696084101 11.967132878518763 8.291107917778637
Sb 13.502412092480235 10.42360164661781 8.761853016552358
Sb 13.36658991899053 5.2222994799474165 8.562672818511746
Sb 9.402492165287835 9.435400279196372 8.710206679932533
Sb 11.216294986006645 11.04614277789888 10.343215079405422
Sb 4.871824464644505 8.2025929312334 10.252725536481368
Sb 9.92714288225266 13.565093907247977 9.583946932525132
Sb 3.248926476873513 10.606997381118042 9.623755691669768
Sb 4.691701165735015 5.191018974258839 7.598067456631993
Sb 6.2411043792081955 12.001755141329769 10.852095197266195
Sb 14.987795372183768 5.765369427618361 12.294461670511744
Sb 7.517087197446095 3.411982237725717 8.894076592680081
Sb 7.186527961343748 6.343384593304658 8.6331739654639
Sb 13.800807909948656 7.760310393926613 10.400936541344578
Sb 5.868571097571516 7.846682148290385 12.97805054237056
Sb 11.611262563674181 10.768691004187183 13.151225979736655
Sb 11.353406113523272 4.466160740684635 10.97872100369341
Sb 8.319372279615935 13.703564570632597 11.972715758836173
Sb 14.271155422060373 8.496704659845252 13.183083407594609
Sb 12.656509721997683 4.733962617653585 13.536070504725647
Sb 10.927300324779665 7.444015885228277 11.081070893460877
Sb 7.945572703256074 6.344454095617321 11.582943345024871
Sb 8.567064817421313 3.509149529280996 11.561014893085197
Sb 11.621433448580953 7.572789312914398 13.896806327084697
Sb 7.779656082405869 9.768764108842717 11.865623386565444
Sb 8.981459888514058 11.527227737236563 13.837256168015792
