42
Energy = -162.96266513 eV
Sb 9.52516321025939 9.577863985511417 3.084284191303367
Sb 4.817035657041227 10.983047844349201 3.8081540231530533
Sb 7.304825583884256 9.949794308982181 4.931724387693501
Sb 7.149916987233503 12.751825843863893 4.251627805619165
Sb 11.769738807690976 11.059846860955375 4.272605242519857
Sb 9.838407919470336 6.855742253515886 4.030886121381883
Sb 10.25019132519107 12.974949662190394 5.8385614305541225
Sb 10.735907255708412 3.19680628920711 7.280342758135377
Sb 4.042868815787855 11.30739472604223 6.5957319457957295
Sb 7.873161534069236 6.653464628111629 6.126703912742122
Sb 9.245294871989255 10.763252834305911 7.316521721370307
Sb 5.827883503771536 13.609680555926944 6.656918771528304
Sb 12.414244105197072 6.895356152042221 5.31733531525789
Sb 8.065055175040321 3.7884318099150636 6.131172780473261
Sb 9.427363750347455 7.1954827847490925 8.499027401659038
Sb 5.7839661362019985 9.474188369540968 8.17327676761166
Sb 13.045083682747677 9.50986808089387 6.352542737837856
Sb 7.496461299792107 12.527047978585783 8.765219878687235
Sb 11.64653524895307 14.251486994206074 8.079650695072337
Sb 10.610302048373546 2.7318719422361606 10.056260634711888
Sb 11.581700338654253 9.880783467630119 8.805312316342764
Sb 13.283465518047034 12.185220741690934 9.233396494813586
Sb 6.8073087242632715 3.3636880975286765 8.669213720742666
Sb 11.850293232566587 5.765169966274261 7.900346244411777
Sb 8.743286127302351 4.815252129852492 10.135479204168986
Sb 5.366075125878088 10.991400985892577 10.609796463809666
Sb 8.028504084049867 9.855887827410744 10.90254369862063
Sb 9.428130184724077 14.275210656207154 9.90991776454351
Sb 3.7373267566378243 7.702463161060374 9.318741750390043
Sb 9.290372697579501 12.222116862367168 12.252034478079892
Sb 4.77124515643963 5.115275084890415 9.968178711731683
Sb 13.086018309090928 9.247022921690018 12.233876415763357
Sb 12.16417171331299 11.941930082543255 11.920177045001351
Sb 4.014605627163713 8.675364320680789 12.00004012885473
Sb 10.692090813155184 7.605174367709195 11.995427012608413
Sb 6.675088181869914 5.384329178712061 12.119565246005772
Sb 10.326624317640235 11.269684683407933 15.157953173872729
Sb 6.690449243670183 8.145074238010158 12.930429157065689
Sb 12.77512176825548 12.556453880877672 14.778915957816858
Sb 12.726767233060903 9.650642122038063 15.114855619621924
Sb 9.871599383876854 7.8190391538386 14.772386836919543
Sb 11.537551159496198 5.792614780042858 14.020066651192952
