46
Energy = -178.64984124 eV
Sb 5.520150452704967 5.372585919415285 11.88661665144009
Sb 5.997218967857603 11.637775643956596 2.29667150869864
Sb 3.1689784158996486 10.333912835835228 1.530475996796883
Sb 6.219847580959026 2.8961780738519 10.579204463728642
Sb 3.069123279635568 6.848567489691324 11.88661665144009
Sb 9.617483532196527 6.914540259846528 3.8861295478654094
Sb 6.904852445667886 13.204867013052072 4.560624508311691
Sb 8.756743552425169 4.897680323441694 0.2796942354691139
Sb 4.508206563094432 8.416230517272927 7.478709606282578
Sb 10.972095590884116 5.046850379344024 2.146868484758117
Sb 6.092618096660881 5.229227405438256 1.415641205049291
Sb 1.2306074152100244 0.35460110902886177 7.0913911382184125
Sb 2.898112764236179 12.838574062395413 4.858927127360047
Sb 7.740228828496199 0.5922832071104428 1.8794353654611884
Sb 8.75684036051025 2.563031609004153 7.667196914306158
Sb 0.42604056639920873 7.251072663044939 7.834815498525283
Sb 13.198171290587757 6.532811788018902 5.0730753981215795
Sb 5.538219283219468 3.5760319902196707 12.390777841011298
Sb 0.6947868391226611 4.373724740846362 8.010592181907874
Sb 13.031585169231116 2.541306033698293 4.319170638299974
Sb 9.847614558580165 7.450059281345531 1.049861063307167
Sb 5.494416507229373 10.940979765770654 6.410018217469262
Sb 7.34823954192551 8.864319663027132 7.138976373017194
Sb 2.522923688889862 9.703964045379937 4.274113024233322
Sb 4.879228257533407 0.9629792884088428 1.5901048505063118
Sb 4.231214227375012 7.366299607992356 4.737116133531962
Sb 12.662948951582896 3.7276707035148697 1.6978944556938669
Sb 3.514168661693984 1.8321823269021085 10.768600768446111
Sb 3.6404267117006714 12.146186371915602 7.566904323923855
Sb 6.514395938823074 9.145596264401137 4.370046140084402
Sb 2.916032917882028 4.675666445075353 10.740186696756467
Sb 0.7588417658449412 8.892442031684755 2.140358973266577
Sb 3.1745056253600437 7.461345356081296 1.4410814951765465
Sb 11.458092615732156 5.589633574238174 7.190246292589908
Sb 1.8224679230587875 4.324061789816263 5.303660401220916
Sb 3.64208214255416 1.7434293808340444 7.881038306981262
Sb 5.94691146192661 6.443321606312907 12.037181097166613
Sb 1.0166792742169415 1.3788994233103273 1.985391812079959
Sb 10.955311131981327 4.237120970187401 6.924638458800089
Sb 8.345157618016618 5.434782817998594 7.416422527840416
Sb 5.248270886482826 5.173956044268658 9.051341888750857
Sb 2.262538240569519 3.986308306867124 1.8362445423008558
Sb 4.67409165522261 1.8118533626122058 4.3863806394244715
Sb 2.6593742346418727 3.994467408322325 12.243110852388714
Sb 9.404519616214586 2.935223471124895 4.852731685694987
Sb 7.465222471390548 5.102344206620296 4.640259887577822
