48
Energy = -187.03981385 eV
Sb 9.877001611984543 6.839192017101777 15.239384386578749
Sb 8.986558245945726 4.622777059226956 16.948719540553544
Sb 11.5886065050309 4.922030388879139 1.058518963662907
Sb 11.660543301481823 7.718569441200783 0.31591400704415323
Sb 8.96635770791469 8.713111266776503 0.22505670627084684
Sb 7.337794112827219 6.628168125628621 1.296156456380464
Sb 9.957946087671784 4.621160257382523 3.4137352627452175
Sb 7.750902616277807 11.77494898738505 4.273344597227891
Sb 5.005016184827416 11.042841266670434 4.771818800399313
Sb 4.835584916228669 8.20989933127915 4.13697534704594
Sb 7.708485777782312 8.095580624066985 3.808925911399685
Sb 11.24830866184498 3.395354625942764 5.725436656143905
Sb 7.9374423663181 13.870039861517297 6.251624796715161
Sb 10.895315963910695 6.248352716444852 5.6052623375300445
Sb 9.974182729164017 11.786186006239953 6.117349969504203
Sb 3.9028186503750413 7.146445072203686 6.682778930155217
Sb 7.042737016391462 4.27919846802088 5.202647482238434
Sb 8.706412325869385 2.42309014067656 6.705868051638275
Sb 4.354469789157959 11.29163201929731 7.5600846203198255
Sb 4.805044864035144 4.34942957849739 7.064451753799247
Sb 6.312416598632551 13.18848231296072 8.515678644820646
Sb 8.131326535649462 6.710540635630045 6.34338439503644
Sb 5.451762956396729 8.778055222153945 8.49148440008505
Sb 2.879074346077211 8.328303898212441 9.915658646755091
Sb 12.24744282854128 9.647979825737856 8.637290506451926
Sb 9.432011311395922 10.189489298329864 8.376543073528415
Sb 4.772388658279092 11.688416823919287 11.276655643481634
Sb 8.689197865450843 4.459934579269535 8.733293209661424
Sb 10.906421638964689 7.107334881185728 8.974954920012436
Sb 8.364639003775801 12.000443967892146 10.596275113643735
Sb 6.37868330968723 6.464403481560143 10.727484421753797
Sb 6.888105698024397 9.675118320173716 11.40351267433198
Sb 3.1175762509143072 9.615315916364398 12.504313571144781
Sb 6.039949223203495 3.780071478933529 9.651133800893918
Sb 6.628938178660645 13.47436278454021 12.658686783664129
Sb 12.498413421214147 5.418609348068996 10.669874963110965
Sb 3.9019670074757236 6.848288640599775 12.20682798572969
Sb 12.94279103355454 10.310131730632715 11.406323864421719
Sb 10.305632327981309 3.7215814527920337 11.07079144082647
Sb 11.026452812331442 12.343232811203865 11.96051040893543
Sb 9.720328133558588 8.119985834617857 11.451931998633572
Sb 8.54713941554832 5.791556006697596 12.641262316644369
Sb 12.222297075061181 7.871967211343606 12.833310521631436
Sb 7.58323579480716 12.125364585280263 14.999550064261689
Sb 8.38180432140801 7.659002385268179 15.141543948101013
Sb 10.46637615537002 11.805402513906193 14.67417880015187
Sb 6.473641170471667 9.616967777810592 14.275206113480376
Sb 10.869805912685182 9.002997440634314 15.239384386578752
