44
Energy = -170.43885496 eV
Sb 10.208793640389052 12.207361305864593 5.759214607854765
Sb 11.547126594632754 9.87068899464643 4.737700141815294
Sb 8.287143572365403 11.819256750182117 3.585064660500783
Sb 9.664389201222969 10.692603905855593 8.21342663182869
Sb 11.38940532628055 8.495698443170362 7.306951666487956
Sb 8.997859844226365 5.1410587585994 1.6337355211909905
Sb 4.2805595635702085 11.935395148603595 5.319403638774771
Sb 8.809103260590307 8.752425604180857 11.08338559451058
Sb 9.140530405048693 9.055129459740511 3.325117165969119
Sb 5.776499597936531 9.097230046176538 2.528125623593948
Sb 5.3816192991239085 10.65589568305063 9.737106548099185
Sb 2.1443240546071007 10.239473398009757 5.460312627648048
Sb 9.149006807897226 6.810887315158991 6.662787571817482
Sb 6.858902616994943 9.872754214823164 5.0752860417621735
Sb 6.246614773172042 5.30263541069871 0.7850915413390787
Sb 6.809383417867522 10.62666031521522 12.20555346516143
Sb 5.273599285829666 6.353876967764617 3.3027659291670526
Sb 4.703350233885055 8.66965427886262 11.727157013410254
Sb 9.778063759906095 5.784481943282188 9.317603839101242
Sb 7.374672866879983 8.901812344513736 8.563951079213117
Sb 8.017723335148359 3.2386339970415308 3.6568090022233255
Sb 3.3344504988346073 10.739398367085645 2.9025880728624243
Sb 10.18914891505029 4.101048061725876 6.968035385286644
Sb 10.096628563758062 1.2525559693772108 3.367994945046637
Sb 6.9616917201622455 6.8680400732494125 12.230921577631797
Sb 7.420514263457903 3.4696563546825017 6.531911104967616
Sb 2.495170264760209 6.8304492107109755 2.6621473241652827
Sb 8.844492635134285 2.6087246691651567 0.3098551433022088
Sb 2.6535442172502606 7.170316164319581 5.513654087495843
Sb 10.509533483741716 0.3537427649186911 6.159169750800013
Sb 7.329678312249466 4.647732500005198 10.339780508343157
Sb 12.888623327736177 6.717668168898291 6.199988189009852
Sb 8.458313750324693 12.207361305864595 4.531748437894903
Sb 5.164255681032099 5.541970772668322 8.714197613794699
Sb 6.236244065401763 2.4831581856718854 1.434910169358649
Sb 3.6624323735282958 5.213193222798897 11.21461145151075
Sb 4.428213491707945 2.4191983696152857 11.383087317776162
Sb 1.7896097482365387 4.063921816446967 3.0922930671722786
Sb 7.752375480188159 0.6276315206585908 6.950467718812158
Sb 3.1935568776014747 4.234497159613048 5.631825062735067
Sb 12.264715846014811 4.611783033534718 4.367528742684735
Sb 0.564605387139894 4.001326476738537 6.896989665054229
Sb 4.3451061246742055 2.741441890222787 8.461419943949416
Sb 1.9657443789010791 3.1473332218422923 10.105654378754961
