44
Energy = -171.36307459 eV
Sb 2.9002124967402736 9.390065065963046 6.915698578557147
Sb 5.987212035563968 11.368096489391354 10.031110699914118
Sb 8.547040025651889 10.871413415646806 3.962745593056108
Sb 4.820339505674983 10.820253781176918 4.643810608982957
Sb 9.880088894383757 11.9810736052365 8.13806506685252
Sb 10.796491030139958 10.571903019575291 5.797816096248791
Sb 5.598793136338663 9.717651418232931 2.068300519509431
Sb 6.940703957310506 12.57481476019934 5.666461912064761
Sb 0.9226547627532086 7.599387352954124 7.9801322680531595
Sb 1.5290569400808247 8.988602078985389 4.377556024928537
Sb 9.02171855183186 8.276104256487319 0.45098511287513265
Sb 4.098795923104204 9.154755165465403 10.166241138891436
Sb 7.875218579106588 9.877889531151617 11.6430372793943
Sb 10.379271248092454 7.605802846495938 2.895156711118294
Sb 5.293038330241797 7.002746559908541 8.604437602496766
Sb 1.009660198540852 6.254607271203986 5.312356934305125
Sb 6.751136258006613 8.633110280112128 4.4942520459313675
Sb 11.568276694104547 9.924289317674381 9.434195533773803
Sb 3.099345500721494 8.195969906025315 2.044560441446119
Sb 8.812149995224786 5.6386853075343275 1.5429214841924488
Sb 10.656626625713486 8.124704318578193 7.32917755289639
Sb 2.4321216936309105 3.546404202830314 7.956579211499889
Sb 9.457577119361215 8.061563302061842 10.004939514983656
Sb 2.698867294458208 3.9483157331868184 3.792001514417362
Sb 2.7523662454359927 5.948671229874851 9.54520463947339
Sb 3.8775263530448454 6.591808710103026 5.704930485702296
Sb 5.738174937460566 8.02185153325121 12.355598719371681
Sb 7.415854767706217 10.536244814688757 7.680903586910824
Sb 8.617012038396227 5.4073753622743945 6.390313402062024
Sb 11.287460450193725 6.531119420151977 0.39994846586126437
Sb 8.337017557582326 3.0440601107534624 4.688789017417954
Sb 6.896015288330248 2.693069232044271 8.456656669026406
Sb 6.817333416269505 5.811838512485921 10.80743780586341
Sb 4.619805748450491 5.896958741401872 2.9738996901010557
Sb 11.442875129136361 5.4300753014090155 5.719217495431717
Sb 4.564264362660889 3.705000543917387 5.972959959324938
Sb 3.2958233213721515 2.2676359488375475 10.397673809079729
Sb 5.301457941585063 3.646800588196031 12.017002011109595
Sb 10.552850017987025 4.5171070412188365 8.31823948723585
Sb 8.418457301060782 0.9719041250473129 6.722798728974097
Sb 11.205549296088861 2.6722425035728756 4.568854291265604
Sb 5.285556060565301 0.48786776941321586 9.341257516092917
Sb 7.246365612205829 1.6691831809887572 11.131747042305145
Sb 11.110060056484185 1.8287335100236266 7.319606961281519
