44
Energy = -171.01856715 eV
Sb 11.506076380272079 4.178794243412829 6.248417104977555
Sb 5.562603008045914 1.3575299150906806 6.658375208290717
Sb 7.422136368161834 2.7683653789052394 3.579195735405983
Sb 4.720220002106354 2.374582250836813 2.5754701894977257
Sb 9.193475858816935 4.564354432878244 7.919843636171159
Sb 10.318116017086949 5.439557093345746 3.909587186740728
Sb 5.096260970699809 12.851828643144371 8.517597351171606
Sb 11.064141125070229 6.70522733084961 7.631469309688041
Sb 9.012808745189005 4.156038401908635 1.6047013246362778
Sb 3.5222369154213653 4.86768114116668 1.8164053090581167
Sb 4.6051425061097 1.345619214115981 10.336727063683954
Sb 7.184462533898138 1.0407319699153117 9.069812679973085
Sb 10.787951441874421 3.9515977309211445 10.259650312833529
Sb 4.11774078953866 3.322378788634897 8.254147059991697
Sb 5.7038077131616 6.221099937623349 8.494098747011874
Sb 7.871396825121685 6.803321811651643 2.1830016643939496
Sb 11.469376968964937 9.166774869736837 3.992265807403449
Sb 4.077991630252495 4.353399985647755 4.597095626102077
Sb 8.53223390401355 3.475054172172658 11.981338115958968
Sb 5.309051712706273 6.93052418391282 0.9232379308557466
Sb 7.522729604887969 5.463775006129717 4.780139836180105
Sb 9.386624733191727 8.148955323028876 5.7303427597723005
Sb 3.874903345642412 8.609593941134897 2.784391646863519
Sb 1.2327359399797375 4.518694827187396 5.103147824555594
Sb 9.550939758839577 5.718330120054504 13.540619587493513
Sb 1.2736973213539704 3.245689527393443 7.711393256489534
Sb 9.471671460224226 10.60704865647417 2.5538739071364667
Sb 5.400532472294987 8.491991658010372 5.263939394693324
Sb 6.677060289976082 5.5439859009364945 11.218362408571034
Sb 8.929510403458366 10.849606213104199 6.837276636951981
Sb 4.199931005433822 11.248879378751674 1.7002713402922471
Sb 11.097198578029062 6.628353489479483 11.259500805854199
Sb 3.4785407584677195 6.536506374835244 10.357010088708186
Sb 8.45115846455006 7.719364385937053 11.630941570854704
Sb 2.582652939348475 6.7952140738395315 6.5033878849821445
Sb 1.101984254548785 5.974586914078607 8.772130752343307
Sb 6.03789523706293 12.851828643144371 3.250777531417335
Sb 3.6201546102629414 9.344283795300644 9.52668254743341
Sb 6.4421727606829355 9.040781539348956 8.789609520868112
Sb 7.291601048542762 10.574214775171011 4.509538322794752
Sb 4.156056412052304 10.853525017677393 6.366262525689856
Sb 1.77395865179318 9.47303546548425 7.227492652190917
Sb 3.3303184983313963 12.525440351057016 4.114895857850133
Sb 10.875038432030644 11.879362307244113 4.751872373664918
