47
Energy = -181.38943796 eV
Sb 1.1818751170093305 10.689101172722962 2.067809432010251
Sb 8.917188149914994 9.693381392790817 2.700804924762225
Sb 4.270778419381517 11.57565466801369 2.7580114599179537
Sb 11.536580979608232 7.847332954330478 4.286935539291097
Sb 7.2224196183728155 12.05267401621284 2.912202305227909
Sb 0.7654304371503126 11.374212911864461 4.804930971972366
Sb 7.420088469353615 7.293122690406265 3.0295202848874783
Sb 3.420164389182505 8.934619529267298 2.080843202652132
Sb 13.440609223343005 9.232590711271532 5.843118586674372
Sb 3.555944741751745 11.906419088036227 5.533015334762137
Sb 8.389990008727349 4.764727856638443 5.299543917805798
Sb 10.799956566199722 6.017401880609208 6.337758806957713
Sb 11.235492208345688 11.217691739636573 6.689512484866572
Sb 10.841780777389525 7.467603079605503 8.996941761769264
Sb 7.286277853587512 11.816768869255178 5.7622246073065035
Sb 9.232411050312344 9.353141105081109 5.5984269546781835
Sb 3.1442974772111096 7.4684698172269055 4.5041533560938065
Sb 5.7986635420815 8.4753694128667 5.033920998362882
Sb 2.2615892798379877 9.47607613767877 6.323738588455809
Sb 6.8912842615721726 6.548043586190719 6.971157950024914
Sb 13.299202999796876 4.760756667924878 7.047679966308368
Sb 9.399786177955763 13.65423380245534 6.248496494862397
Sb 13.726367259167029 7.410854642461978 8.130807524511564
Sb 8.065881544198177 3.063861574559163 7.723322228699918
Sb 10.730573851478443 10.694231322597805 9.494165016347159
Sb 12.959743378028296 6.570211334127794 11.266069918497516
Sb 9.313115214508953 4.951314639267627 9.788678994540538
Sb 5.553846097121958 4.233123113837338 8.064372342586982
Sb 7.226075663176135 7.819140035820191 9.943011673980015
Sb 7.793042065959971 11.010975599299456 9.05839147774318
Sb 12.204740789182091 4.242852374475409 9.793151419972387
Sb 8.35249410322569 13.899365772820644 8.915156447740404
Sb 10.143032564017405 9.13737269974286 12.535628336557238
Sb 4.502772834319856 7.72134725461132 10.82859876809818
Sb 10.683426537567755 13.437458243305914 10.542385479376541
Sb 6.087242213970137 5.271065817732788 10.981822312905823
Sb 13.796330244469182 4.582276975387509 13.422677323722457
Sb 13.056467404700525 2.3059139885662963 11.906972125249148
Sb 9.965727509655713 5.683370545112263 12.644507739939908
Sb 6.52911813678765 8.649989351778864 12.7108985314743
Sb 9.14080348584396 11.90847165248809 12.538220915359474
Sb 6.500107686072994 11.55263301885731 11.588807268255602
Sb 11.259525785359257 3.332958292545951 13.874033385651732
Sb 7.343800935071493 5.725269990628516 13.625403470045985
Sb 9.027851428267464 9.05131722718035 15.24496330087465
Sb 11.738176798731095 9.93237071496178 14.866254989461968
Sb 9.68337693026098 11.888312936974035 15.376403287984477
