41
Energy = -159.95628035 eV
Sb 11.82093222695328 4.90704575427137 1.8112427009253718
Sb 10.091186875782546 2.859099935147019 0.8003031760381961
Sb 7.434717637753559 4.030775877889552 1.5771664700564516
Sb 7.6578664570051 6.84013129839631 2.51853537786629
Sb 6.832373418752752 9.909479438555152 4.716858368017515
Sb 10.351585600809424 6.817578269350231 3.5151559436771285
Sb 5.662429180561872 2.240030792308189 2.7541370923351005
Sb 10.327444839467221 1.2798418366370719 3.1625054363968763
Sb 4.024609982177884 9.665091734538555 4.392278959272187
Sb 12.171644137327645 3.280793310771027 4.205219272637928
Sb 7.988025228358352 2.8475200795739664 4.1611576179450305
Sb 3.739348230380437 6.8009096921087355 4.453725370726939
Sb 6.432030480132557 5.822602185921553 4.8972884211593195
Sb 6.884531051086575 12.401049961574614 6.1696459799884895
Sb 7.541636200425294 7.8672899798613996 6.610520269870866
Sb 11.201749230725316 8.709891586554035 6.6578026652157805
Sb 2.832048885773228 10.543633400009178 6.855192360970547
Sb 4.7948799737414145 12.2213602969268 8.166249368635004
Sb 10.341058454028754 4.990909963503055 5.754270211415869
Sb 11.419550979262324 12.62885893888809 7.543265735047553
Sb 5.55583927916839 7.075676059468649 8.617897353386905
Sb 13.035125325867517 10.35059354735444 8.235649734147534
Sb 7.009152735847209 4.851016541159113 14.424262139030208
Sb 9.465398014993054 13.589768777141899 9.424375982475432
Sb 8.931351938156066 11.17695668888617 7.879973594646672
Sb 12.730348089018248 6.27472246032793 6.853546983089547
Sb 3.2609406752322077 5.972867489316919 7.173188016088919
Sb 6.165873216344628 10.359061666239946 9.974635182447646
Sb 2.9708530423496082 8.37636710268212 8.703461454206085
Sb 7.472551400489357 6.372554859587406 11.908360033110215
Sb 10.850019185419601 6.9771397646047335 8.942606080065778
Sb 12.238906513881092 8.94041177393356 10.641137555888443
Sb 4.641062649958747 6.8190381489678265 12.01975860977299
Sb 4.592022326574244 6.337041882702389 14.905213614286831
Sb 9.469964539458934 9.708170520941314 10.823707187230026
Sb 9.689870729288366 12.29797365998893 11.985542362130772
Sb 4.256360784610496 9.664520352371133 12.05582355671017
Sb 6.805786258425833 12.49448487620846 11.877174837002393
Sb 8.439012952486005 8.529915527066288 13.529039561054502
Sb 7.085057124020137 7.269919965932665 15.94623277573172
Sb 6.3337549871655385 10.44680484159343 13.904793428560538
