44
Energy = -171.37103372 eV
Sb 6.165171116720516 7.6639993340490165 2.267705047469905
Sb 4.331154952237501 11.091338611219065 4.965023733766334
Sb 10.949404922523717 0.9110969679829345 4.693554295563648
Sb 4.436937041198244 8.20277039320069 4.559766896007458
Sb 5.7637125314993165 9.13709192699171 9.175741042967815
Sb 5.279339778514905 3.741471062841317 6.420231763548248
Sb 9.162340020920752 6.0619141150214295 8.029624202701008
Sb 4.13508989697478 4.345730210378694 3.8361801584009583
Sb 11.268643480288803 3.5721190025168865 5.404603932483112
Sb 5.905765540840974 6.634102345942468 7.632544070504636
Sb 0.5840134402626409 2.809242425468698 6.901977112574156
Sb 7.592310911898795 10.15537389150966 2.0528798263965777
Sb 2.813332317514535 9.89775464427843 2.8589434669200626
Sb 6.813007536227312 7.572913986184802 11.370027457784225
Sb 12.556105413963744 9.81481936303739 4.728509058334396
Sb 8.49753466614376 9.921567330902963 8.236596690503927
Sb 9.449921172897827 7.9173114731175485 10.141679851799967
Sb 10.732371586083433 7.535835998630886 4.661396888811518
Sb 0.3372229457491217 8.403625396280669 5.144985148789945
Sb 12.556105413963744 8.73615515120216 7.787028507144097
Sb 8.211785733344385 1.7903886931508164 7.877156515763293
Sb 2.0029223223049812 9.31235311986421 7.2332354396094365
Sb 7.830881008083049 1.6306044688035817 3.4560398052420855
Sb 8.140159222718214 3.5874021127669455 5.560268596666728
Sb 8.632514362009108 3.8601650093407582 9.832976661789145
Sb 11.11950187814347 1.5409743603035395 7.4408455903924295
Sb 11.791885745099824 7.199913070169469 7.294923846241175
Sb 5.106173579623069 11.605895913720728 2.2075614648441904
Sb 2.94058785436202 6.553919131321018 7.97193710595638
Sb 6.33728333501635 3.736966772008408 2.008406017112246
Sb 1.294070986326354 5.549938646068211 5.794096659647264
Sb 2.174927966321736 0.7217612286626665 5.707133427174502
Sb 10.706837542078283 11.832748467070251 5.458461565173697
Sb 12.653059281412826 5.84949579193874 8.074752595905714
Sb 4.846535837058914 0.9246861036120316 6.881696521535929
Sb 2.6223199892777194 3.422478063333519 8.732294633684532
Sb 3.2193575410230926 1.6939335863983098 3.1887885705990024
Sb 8.153197289586986 8.443408373386657 5.736551917250037
Sb 11.903432282083779 10.175257984713618 7.5439402348444995
Sb 8.088377028584574 5.698156947392789 3.0658318231707424
Sb 7.971273336963448 11.129137775632387 4.7875866021652085
Sb 5.445212686999128 0.11269878050502659 4.186341371168889
Sb 5.99825091062853 5.059803861565351 10.101883209859883
Sb 1.2825818289226074 5.600747910891203 10.147360475107616
