41
Energy = -159.09783085 eV
Sb 10.458435299258783 8.741638840757147 2.6151034798643344
Sb 10.213172376931208 5.952734464769915 3.3771439235711505
Sb 6.2346323859996895 8.468209446684828 4.146936776247247
Sb 8.694514921937563 9.804754029752477 4.595885128357246
Sb 7.348038046425939 5.772627657952724 3.84379158732307
Sb 12.664945667682012 10.01950111702343 4.060051519260675
Sb 11.42708478051444 6.356514399449735 5.980208322842273
Sb 14.020987672967555 8.007650026654439 5.56146932876359
Sb 9.260149208846762 14.886333928869703 7.090837466037387
Sb 8.332265356636967 12.043639998054172 6.93876882254773
Sb 5.23574824312119 8.93669410532966 6.911157532438539
Sb 7.795452540914765 5.910035781998042 6.6802513714130445
Sb 10.033729888742231 4.255040157264765 7.52750555745222
Sb 11.924232069892529 13.81022596325883 7.197539357953095
Sb 11.572189225535553 10.803739819165088 6.720884075590713
Sb 5.533649616396291 5.613145581074568 8.305781453960671
Sb 9.583859053695171 8.347234006914174 6.981923377486009
Sb 5.414969091909901 11.955439777933224 6.877291497997485
Sb 11.600104368029395 13.978948169611902 10.045027011782391
Sb 13.943035384521766 9.626620336021045 7.83150786231705
Sb 7.202344205791447 9.664621017981094 8.90485396611003
Sb 8.812622696735854 13.296748509364928 9.529613465332687
Sb 9.919473210643428 5.435792180277468 10.116721559138654
Sb 7.313035116729064 6.892938071830302 10.10542608047566
Sb 10.31865593111536 10.193001405708856 10.121073566362242
Sb 12.82537557880143 11.488543947230575 10.851074726627747
Sb 11.80732841632136 7.657202257422632 9.980545793527144
Sb 5.0640604851313595 11.527205669365673 9.752640378951286
Sb 6.507283033604623 13.510861600080482 11.139573957249404
Sb 9.473955505224644 9.841314851117996 12.871613588168723
Sb 6.627362504358948 6.98478566814575 12.934002796498177
Sb 6.6080433373104235 9.898599234583589 12.802059459795197
Sb 9.664953707983283 12.606234549238856 13.486470048257228
Sb 11.923648359322586 6.996554253639651 12.859535680833986
Sb 12.508397654085815 12.041346832697545 13.664469445554793
Sb 9.275408533439162 6.18107234361913 13.842582949364088
Sb 12.740997043749426 9.27445641619135 14.490478375471248
Sb 9.089113151623133 11.755652147789593 16.18473538739202
Sb 6.887093661946958 9.83594790851016 15.687269044703987
Sb 8.760325535478986 7.649073747876872 16.249356270518938
Sb 10.926880370077573 9.524873018223895 16.684391245897213
