48
Energy = -186.04843402 eV
Sb 4.182412222893962 9.669599882272388 2.5040898001684653
Sb 6.771932821306084 9.561433441698817 3.927097384753164
Sb 3.4839017685252163 12.425078600378209 3.1847647586007057
Sb 7.1478086525858 7.4155344792516695 6.007486135311461
Sb 5.249523805424393 5.386839594728393 5.135600565522027
Sb 9.271501502514559 5.943008036890073 4.5827089645312595
Sb 9.727266370407087 10.038949389718494 5.4288919624496375
Sb 3.081048549041932 9.311358430826552 5.100169373472298
Sb 1.2065559690932013 11.665038175659209 4.7879991777183815
Sb 11.38588316392066 7.930359862310124 4.345233335634463
Sb 11.76680790382359 12.109163751209453 5.316161828269346
Sb 2.6270645294908204 6.498043550470209 5.476160169658833
Sb 5.499349610187658 10.373784411123204 6.441536295025318
Sb 10.051182449786205 3.8718571949938405 6.46036144547678
Sb 13.662957593441579 8.286952033621882 6.1291519631941735
Sb 5.4305520061072645 3.4434755921902473 7.315140162439739
Sb 7.827938493612157 4.827765043030405 8.042474128409191
Sb 12.659683474502094 10.629490837410911 7.599893269636075
Sb 4.883219654621624 13.071962913150086 5.6735169762978
Sb 9.8577756083644 13.842264617541584 6.606828400451366
Sb 2.077476780548443 7.000250530066743 8.259123510754984
Sb 11.74606624778083 2.568316067096428 9.396356062781036
Sb 10.056027548117175 9.651403342762512 8.329300563416288
Sb 13.992594195431604 6.183708277878759 8.093971005070989
Sb 2.2684714094875993 13.094685493370982 6.9002547662447276
Sb 13.607441258479763 2.505774796786807 11.593083663576891
Sb 14.241130444686792 11.913502891062267 9.578370334183854
Sb 2.2457253455217465 9.891094506097385 8.884768543699026
Sb 10.76987468589978 2.3209207431932115 12.105805471229765
Sb 14.594684411836525 8.57719134356325 9.808771110024267
Sb 8.37962195265795 12.044407388366162 8.334489585826237
Sb 10.020218991492332 14.116590280979498 9.476573020952765
Sb 4.617241221970428 6.974013743729565 9.525746545133671
Sb 4.726904531076272 4.162862473725443 10.087120294205704
Sb 12.156813432889487 13.037219246368393 11.07134960919631
Sb 11.261866181677014 5.405129403964706 8.69608609793239
Sb 3.034742394303874 8.554661719634291 11.42003609024078
Sb 12.938863071938302 5.371009953639114 11.524769794419868
Sb 4.617633989270385 10.688984624571425 10.363999534509624
Sb 7.07950126781854 9.114844924518767 10.051693668286791
Sb 7.574417643809951 3.8136185834547556 10.732441874092615
Sb 14.270287512901907 7.714876062740738 12.557755824777766
Sb 8.211946816404701 10.646302735655475 12.25625693609796
Sb 10.706923376010158 5.000525131696451 13.320229942372332
Sb 11.106660428250676 10.663113506996508 12.50243235287786
Sb 11.87039736390119 8.371293951902784 10.97927097630169
Sb 8.99712239827879 6.29811044929047 11.363228575241001
Sb 7.059996281842391 8.018645322345792 12.72646548346734
