49
Energy = -189.59464299 eV
Sb 6.692417868398016 8.061170006561325 2.0561706386402014
Sb 10.409802210282638 10.989067626299732 4.460729936509502
Sb 10.142495673007849 5.756415290484803 4.092754340442878
Sb 7.6456945266910195 5.435213811744505 2.7282972623499147
Sb 7.597555651882408 11.690480104569534 4.639699663563097
Sb 10.522860240870225 8.310270655556051 5.6035912410597915
Sb 5.519407147663265 4.273488686278011 4.237797281336498
Sb 7.256410989244013 15.088383086818684 6.543062338357318
Sb 4.48944565169937 8.619081213824895 3.9172421995202766
Sb 7.214735092775411 8.829287337856238 4.794873364303942
Sb 3.7459267038321626 6.266559032643389 5.412196416300422
Sb 10.808855904160026 12.401368733867326 7.067239340254887
Sb 13.443991281832 8.214599988666128 5.496796480286173
Sb 9.814477228682756 4.080145866236208 6.405409056999891
Sb 7.034136534346433 2.96954830729765 6.289734062771284
Sb 9.91248561914386 15.863888142495549 7.402091718773462
Sb 3.6422722997379764 10.340854678228775 6.825661951746875
Sb 7.60039441186942 5.4644844711895955 7.621580918312833
Sb 7.405257559749787 12.3636951526572 7.523175199813886
Sb 4.5537053040864075 12.97914558795107 7.663324174244978
Sb 13.47020985221441 13.012964263843745 8.0650449517161
Sb 9.394842217094293 8.290661990532247 8.26836927874456
Sb 14.266022256086126 9.662848692449968 7.8320632614056915
Sb 6.122822734700321 9.227440845644006 7.837862623242237
Sb 4.6160492838265075 6.758690807455441 8.151476191748024
Sb 7.582449832096969 16.970051309124255 8.697900500150944
Sb 11.581051970750613 10.304366827789815 8.80722400869396
Sb 13.957151452656644 6.719887579308652 7.882366354801501
Sb 9.891758143008651 2.529877480288072 10.356460755983742
Sb 2.7368796456990006 8.872074325264254 9.152935959790241
Sb 7.738495952249448 4.5223431556695655 10.422097201732576
Sb 12.493801437919991 3.728330663298287 10.471893492832486
Sb 9.383882162317578 15.12731370825265 10.111581946589402
Sb 11.33786212348782 6.030121499625217 8.78547837442856
Sb 8.481303441306466 10.722897643965922 11.130145294627505
Sb 11.948018404019063 12.771604422227956 10.367397643521251
Sb 5.172309346871737 9.627164618977783 10.580164296786828
Sb 4.743594614301046 12.513979154835289 10.503255256279308
Sb 10.189029541746152 1.8500834829445818 13.19365485727663
Sb 7.402707834387341 13.3844060484786 11.398150161054044
Sb 8.158441754604054 7.293908585312192 11.169455280475962
Sb 8.724838386647338 4.387992843066593 13.51982956158758
Sb 12.68820103068519 3.2549848444884377 13.219656140069795
Sb 10.941676191625415 7.654676921258889 11.845870627389596
Sb 6.88560476129236 7.444477634010321 13.774597172654577
Sb 7.759100358881745 10.200015634827093 13.915408566912616
Sb 10.532035353969965 10.25623398601139 13.129204680998571
Sb 11.044881554801634 5.922354596282918 14.15433952154607
Sb 8.592699790707123 6.251147983449768 15.764737781281772
