40
Energy = -155.70125508 eV
Sb 7.64239860330417 10.103863905057077 3.4982985297969154
Sb 5.531519767959039 8.156547836080255 3.0134177139441722
Sb 4.031053624456482 8.362790988451602 5.445533933295063
Sb 7.527569846333408 6.160678060891671 3.560771327227781
Sb 6.357952473063249 11.393336093247152 5.738150576466727
Sb 11.80949471577898 10.456044942632905 5.393461519962368
Sb 14.364335897800169 10.377334004930583 6.709934741313786
Sb 6.13592351244344 8.961171546009572 7.37224902819046
Sb 8.903721725165335 8.144443613520671 5.2567211071305335
Sb 11.618088523726188 7.825658704410843 4.263077307479706
Sb 6.304999743970105 4.402673261736678 5.463748140120307
Sb 14.876646922341562 7.53928192749835 7.12763863247398
Sb 3.6525177786173346 5.514811579933385 5.687620021336146
Sb 7.940539214904917 5.868940277482433 7.452259687962801
Sb 8.808680679875614 12.332931703593722 6.982859246027012
Sb 12.56852175361676 6.024450392800765 6.3262598112754365
Sb 12.901873358056575 10.360109164395563 9.215038204981271
Sb 10.155774168416453 9.835271715992866 7.712571032774537
Sb 4.037902262341556 9.882008801360154 9.286772532553295
Sb 2.5874067787911263 7.449064685797706 9.93208826949127
Sb 14.599604162521127 7.937631913688176 9.974344340943087
Sb 4.5852025965385925 6.080913436740393 8.360277438232009
Sb 13.23579890120909 12.974654236755729 10.395440579436904
Sb 5.0631731648845015 3.798447845134817 10.077259628037892
Sb 10.273630572550978 12.858166367023088 10.132633525001154
Sb 10.957768227043825 6.333895576065509 8.720285914881119
Sb 3.9258649794857843 5.793461109185003 11.933345904298895
Sb 6.717765503198574 13.057794616380686 8.91515910908645
Sb 12.786160956494834 6.077270715794273 10.875370590308219
Sb 9.682708030917892 3.719666619385382 8.355838782481616
Sb 5.046410206809882 10.166365766242055 11.927936957728202
Sb 9.010650302643322 8.93010089665953 11.102546091302626
Sb 11.601945985123617 12.21551411963303 12.612605323049108
Sb 8.072359243989785 14.70776264786476 10.816716946909798
Sb 5.72626892357922 7.644463617925643 13.201518526902898
Sb 7.747850292643008 4.900739966353561 10.18842533330943
Sb 11.60823767641026 9.255907034475122 12.341026772458761
Sb 8.493092367075905 6.800950993621835 12.971980698063307
Sb 7.559698956151497 11.767004566687513 11.354457810460925
Sb 9.18642376785029 9.46541091664541 13.941894531389112
