48
Energy = -186.98879396 eV
Sb 5.1365764741118 10.043758424099602 0.8234514241453824
Sb 7.65938656763695 9.097162382268916 1.9725091930179415
Sb 4.798116288843216 11.753689317745165 3.126126352120747
Sb 5.255460554874433 7.662733957345809 2.57153983580462
Sb 9.042537491712325 7.732372173428539 4.809980139517146
Sb 11.804819845701271 8.119821712596194 5.515188508241024
Sb 9.094586565377337 13.05454133162145 3.4250138211344083
Sb 11.548081809252723 11.822148717803886 4.375017225135584
Sb 10.536453080890398 10.52037628080071 6.781629360489531
Sb 3.7470786725483607 9.355722208139467 4.36093531427473
Sb 9.235304281961094 4.9176254339994445 4.058452865419158
Sb 5.415247794598065 6.115060736845235 5.810188127212928
Sb 7.367046185109445 10.887924807071668 4.208377165312265
Sb 7.342147992037285 7.718434955858623 7.200718450427882
Sb 7.10679599367945 3.7317381940898313 5.684508961453049
Sb 5.271280066605519 9.804726020897785 6.802733355035227
Sb 12.997137154209303 5.6861441117893206 6.517694940870473
Sb 11.850001932297495 14.2249772046018 5.995774961040628
Sb 8.920599332115279 14.320636133121877 6.04239529803707
Sb 10.957325023304971 3.7214998387953617 6.066712029843148
Sb 9.46281602538595 10.97916751262299 10.280231668338288
Sb 3.9246101220730116 5.631424640037981 8.270520535533384
Sb 3.094279145396727 8.442470828953116 8.19907965616189
Sb 12.501076804213472 12.31553913908815 8.018147400600153
Sb 13.8685671480496 5.530419591448554 9.345571118984385
Sb 7.999948306518325 12.203537681430479 7.77697776334012
Sb 12.861090891931045 8.117783880413649 9.91330384489578
Sb 10.031618556409303 7.496165060858519 9.797258813771425
Sb 5.943050993648854 2.6400587560257174 10.075834358066517
Sb 8.845459651569461 4.649067022456151 7.769296840988356
Sb 8.667891519557847 2.458080940164161 9.672003412287124
Sb 3.298581420660705 9.690810011604103 10.81376872249439
Sb 6.022154655594923 10.645923278251795 10.214535910863784
Sb 11.16655654745193 13.30257508917011 10.396071937960212
Sb 6.210239144942261 5.515292873698918 10.009891939030048
Sb 12.459309885282757 3.8852482900548475 11.218882747696354
Sb 9.720738061062669 4.886486276747083 11.173842174825026
Sb 12.936423047722661 8.123009418507314 12.762357970095863
Sb 6.8483654649488255 8.325382695397325 11.698740268537486
Sb 8.511904490209611 14.340875549140065 9.698618477740727
Sb 7.590448270583028 12.498209390711445 11.838928362229177
Sb 9.672396250665729 8.599870783830026 12.459074151449851
Sb 3.28058021082878 7.646949770741762 12.897550947318614
Sb 4.635120497432595 5.043279912969428 12.351165282681762
Sb 12.802969825190733 5.4979906877994855 13.52979681588354
Sb 9.369964756932513 5.977861677861021 13.867658854441895
Sb 6.498239687744338 5.7172880768882495 14.494611029370768
Sb 5.662498471940704 8.521020181023037 14.280214626695058
