42
Energy = -163.70493259 eV
Sb 9.875198866601593 13.71051889717393 4.465746995276073
Sb 7.536536714358425 9.964968451890968 3.1778725762127116
Sb 8.236408211671016 6.076492015573767 6.202397521583246
Sb 10.036799490914985 9.056086746452932 4.28288727035515
Sb 11.63958303009609 11.446278804620452 4.815605175290781
Sb 7.186445893181461 12.58040798278742 4.347237782886411
Sb 4.370343944591453 6.932484988103081 6.214669695377149
Sb 6.63912884991815 14.5998785751303 7.1108561294467565
Sb 10.833735039219535 14.318358984285627 7.153148822573805
Sb 12.301506487692293 7.340104608039909 6.314750033900577
Sb 6.224622964158394 6.106210690135065 8.297591038210147
Sb 12.573018382216643 4.841996271219012 7.7164582543925455
Sb 9.970166597560368 3.8581123956520287 6.8251616266310915
Sb 11.1507048172914 11.44985604767983 7.679275314108858
Sb 6.157892748261455 9.239229675685813 5.674821979541365
Sb 7.573336957108722 11.844881464119076 7.125878460770387
Sb 9.713633491886307 8.405660538697173 7.140697147237368
Sb 6.424410801408082 8.962812326062828 9.063775868195057
Sb 3.8512368061217512 10.967590722305845 6.040572121071192
Sb 3.58923480165435 8.970298888603988 8.135496546176356
Sb 14.63070151687634 8.716901686541762 7.402740663926556
Sb 4.994604815635006 12.466589699658758 8.271047216990885
Sb 8.720395567599141 15.13417778537018 9.057777187907199
Sb 9.159705751285538 2.230807666023755 9.151628758183243
Sb 12.901863153804356 5.581178414547863 10.506296605108224
Sb 14.00393685851444 11.400225782291054 8.228106025323816
Sb 6.423148645265632 5.516469364238132 11.684736184172401
Sb 8.874676983062106 6.615862460395072 10.701760168399876
Sb 11.804084757079968 8.299562210216038 10.479730652585832
Sb 7.2668193412389295 2.6812380070855255 11.431975729752748
Sb 8.834433627224787 12.461499710553456 10.204241074924898
Sb 10.387042540644533 4.119422599703787 10.827806566195083
Sb 5.225897909394936 9.563402554806899 11.67976228174615
Sb 6.190408794604023 12.365995552909054 11.510061501847664
Sb 14.469544958481297 9.351605875010014 10.219425783672236
Sb 7.375177070750835 6.226085329936533 14.361271941363935
Sb 10.092317666786933 6.226906529187201 13.346504276148066
Sb 9.019707362927576 9.821550622665352 12.273221565954815
Sb 8.594491050776563 12.588195638822487 13.092864045949288
Sb 6.879075053857718 9.067422413865048 14.014751159065508
Sb 11.48208775005595 8.834952774921264 13.346003108028249
Sb 9.515100720559662 2.786885039371083 13.152553935856481
