45
Energy = -175.28572964 eV
Sb 10.31511773482359 8.53690479355567 2.7468797830943483
Sb 7.70994333098764 12.465571299458334 3.5859946831962324
Sb 13.012428497143482 7.880855178491852 3.6198820765677366
Sb 10.0099423513074 10.939641755080345 4.463526605616018
Sb 12.40908306059409 12.497510330994318 3.8912196725738712
Sb 9.5115795840552 6.147468766051175 4.352986793272997
Sb 6.269331457931684 10.745202770774156 5.474237929382856
Sb 5.781606944187457 5.3215195830323 7.186689877911614
Sb 7.903641499709315 7.196179353579564 6.47304256418846
Sb 13.144288784088419 10.16891105150345 5.380677481553709
Sb 11.6110492824987 7.14104436332396 6.062812271561972
Sb 7.9321448669958645 14.421481341651843 5.755396958176853
Sb 5.319571092787832 13.274761977042504 6.437294438926706
Sb 8.587707901476431 10.361299493316663 7.258658245113924
Sb 12.125065488016736 13.729675334940557 6.520022372456419
Sb 5.933081728138968 7.060198264124222 9.46371226224845
Sb 9.558160996569532 13.108513202696612 7.713860800764528
Sb 6.8841234030624845 2.885419993420256 8.376504479237681
Sb 8.991423713882828 6.309225346558232 9.249673514043842
Sb 11.760894511177229 9.793105432382186 8.281093957887556
Sb 13.678749617787807 5.7885461730139145 7.580011238702852
Sb 15.455042237190264 10.499090957512395 7.051335329039694
Sb 14.288208873674085 8.378885331337031 8.796109073130863
Sb 6.932146916579489 10.357852902437331 9.715413661163211
Sb 13.562736462037254 12.122189660227448 8.536397314440942
Sb 4.569898381341108 11.519309080237228 8.642096362540274
Sb 6.746900374970115 3.2080083633773415 11.279731538350392
Sb 9.528987357185999 3.8317806087237436 7.891662370307244
Sb 8.994280384928691 4.840032190172722 11.975355824610265
Sb 7.896449101270857 12.813432861044365 10.904994654863094
Sb 10.150312594843124 9.157480128808928 10.777697475781643
Sb 11.965322213708085 5.967515211681014 9.978055700048285
Sb 4.633286475639726 5.164449755835675 11.203210059802847
Sb 3.616122694211496 12.128521887315857 11.346944563519807
Sb 11.772810844530818 7.809538568470201 12.649321192255593
Sb 10.209398875811383 11.639938326578479 12.232233977939984
Sb 5.95738760239921 12.626673597920334 13.004683901826867
Sb 10.89238404695561 3.3243342600660886 10.437424291393127
Sb 3.963732515126743 9.246491341924369 11.354186847323646
Sb 7.479047850638504 7.824319900053481 12.576075130975282
Sb 9.350361006790038 10.674601070691471 14.855767536212577
Sb 5.352896704129713 6.23292601165998 13.784141514884267
Sb 6.53893629884486 10.052602847114706 14.163471386707947
Sb 9.616885567763445 7.804734522461081 14.573687091130916
Sb 3.7092997986980603 8.634025835846273 14.02759622176316
