43
Energy = -166.8147327 eV
Sb 14.68964390789814 4.939426673751262 7.523888722570847
Sb 11.65334234710152 7.412174228936779 4.7348083814603825
Sb 7.453341508423416 8.849531973606728 4.031486941343012
Sb 10.420118123845453 12.002431761846786 8.09352465151836
Sb 10.014588944946373 5.402499682035567 10.266138859944702
Sb 12.473387038745242 7.73815507903677 10.398742914325029
Sb 5.532013849323244 7.023686651895251 5.155194978638622
Sb 6.704616331312999 5.8752968540788375 7.53978047358254
Sb 12.55576090507586 7.252300199840998 13.267933842843087
Sb 10.155307599668962 5.601433955817597 13.223604710542505
Sb 13.14826817203875 11.776873555960647 12.357694317174802
Sb 7.183741226709752 10.647265990494299 6.250177298004201
Sb 7.882781874876621 12.992589485121444 4.750162059967441
Sb 3.416135539001307 8.941776033656566 5.574017663250366
Sb 5.210627107159837 10.73707464419231 4.169577252771907
Sb 8.219374735088724 7.6838548382234535 9.340698904569473
Sb 4.384311076221066 6.388676159851533 9.296088286246444
Sb 10.583730017063733 13.510432335045925 5.641850078815163
Sb 14.04679850352333 7.412109639564355 6.296464224479799
Sb 13.154713425461464 11.159949610502917 7.728245642838834
Sb 9.592443763132515 5.765138727621729 5.87239631007531
Sb 3.1936252926055904 10.478583159115578 8.053290115136377
Sb 6.145350578730677 14.643905676985417 6.347603058673431
Sb 14.212022900450426 10.111055469405148 10.252997474742495
Sb 4.534402584553377 13.08183068294604 8.25543649271986
Sb 5.303540046597643 9.115468482175576 9.447380204676973
Sb 7.6101982462191415 15.099831605269587 8.794307860146654
Sb 11.65550152523189 8.638389947798862 7.3852196643396395
Sb 14.666031593673633 5.888384829110343 10.287033862715456
Sb 7.035409951004925 12.319181640777321 9.436037135131153
Sb 10.517338418382522 11.088253646459012 11.422091038534605
Sb 6.667711607375032 5.733659231302849 10.962510224720413
Sb 9.914931542081051 3.6460874006283333 7.598146754088298
Sb 10.428248720742975 14.892222108501915 8.151565119009287
Sb 7.94112896969903 9.41401657650534 12.40550085031396
Sb 5.034544036840639 9.78309072910105 12.297572728392486
Sb 12.55089286104784 3.964649310759196 10.763400942558267
Sb 12.661160728686546 2.955809466418245 8.047466198229497
Sb 6.082444031350952 12.641357546823352 12.12491816529582
Sb 5.693078726987595 6.795092733847689 13.413185040964171
Sb 8.597732634215237 12.009990071939077 13.451014699624713
Sb 11.538531540732924 9.897373615709597 13.875959276984451
Sb 8.294855877619684 7.442816398786067 14.468614989487014
