45
Energy = -175.64102851 eV
Sb 6.884019382767601 9.435292224334653 3.3407241772345406
Sb 11.134986827973169 8.449178232975571 3.123097995381742
Sb 9.442298519206192 10.782835705884308 3.4717435912472783
Sb 5.549261857530462 7.510873740606706 7.344692896696748
Sb 6.174836949988686 10.821334302346433 5.771382362472934
Sb 9.508310348805699 11.148320177795007 6.348528841832242
Sb 9.801767673556505 6.191320236553103 4.42814885470921
Sb 12.94440498255298 8.782805054396437 5.359490851711759
Sb 7.940904089379512 8.067984489361097 5.635973572846334
Sb 5.537961581806141 4.584810281441066 7.153375041870397
Sb 13.010366303707466 5.306272829912015 7.732106040608479
Sb 5.920390532413588 13.690194281534202 5.561850527395388
Sb 12.382600344994627 11.524863535115754 6.128080595577902
Sb 3.6827924467384996 9.467536873266722 6.073487921056563
Sb 9.139412990843867 2.3820529690850183 7.409444560158516
Sb 8.826103789292532 13.986777320931992 5.9734119543097055
Sb 11.866717478756746 11.019725620201795 8.9393731452737
Sb 6.996066975944924 12.937192131270727 9.569983078737128
Sb 14.374632115221306 10.76886151740773 10.361802527963823
Sb 6.2135575508479555 9.963307760505776 9.45623722367738
Sb 5.341699680009543 3.690076139071881 9.910182690355795
Sb 11.006708332980145 7.2060423534319415 6.879507211917276
Sb 8.358491308868661 5.129288892483029 7.724976800278321
Sb 4.585604004694016 13.693662905639034 8.137855691078617
Sb 11.838413575054247 2.7420555699431763 8.470303602788874
Sb 12.735443671513565 10.99837768008636 12.730568430087065
Sb 11.618490149045627 13.869237407088814 9.468178564243068
Sb 3.6146900579164134 10.930209374196103 8.629558145384753
Sb 8.24772009752912 3.3250588091591715 10.01629470656937
Sb 13.352678717452724 8.006006958689605 9.959438975371869
Sb 10.950115046260638 8.99154111426282 11.638335473435538
Sb 8.067584703663897 7.373306588098348 10.529857021502925
Sb 5.398712341004626 6.332647310343547 11.164811913179998
Sb 8.989394458816834 14.88899626559471 8.723224711947008
Sb 11.175572584110354 13.455426470112483 12.30492912578837
Sb 6.47152356430714 13.182935208024029 12.4121158938603
Sb 11.394130966831113 5.110815181828716 10.118083173572488
Sb 9.075509723520778 5.532341579206054 12.612030478049448
Sb 5.078012032888875 10.640521520155156 12.032572259954561
Sb 8.939064402441014 11.682320809834849 11.970732916740406
Sb 11.355039799352765 7.070670062067267 13.714458702181984
Sb 6.498340796307757 6.114401457861199 13.883580300791182
Sb 13.482520229120663 5.866817807105253 11.972843114666166
Sb 7.208680420991019 8.773737143938098 12.989251706279942
Sb 9.360969299506824 10.048468813369228 14.299875335730134
