43
Energy = -166.53525714 eV
Sb 7.275038130444676 6.880136875210594 2.8906344204917587
Sb 5.13473896392015 5.578452651581151 1.460419729513754
Sb 6.030863934994816 5.527442514927374 5.183266380468571
Sb 4.991624994215889 10.781833617100748 4.741424848298283
Sb 9.788477510298865 6.102636208332029 5.737597823032186
Sb 6.5361028265262835 3.191855244701575 2.215359959837582
Sb 7.360322669374242 9.702527909496112 3.466175862774044
Sb 8.266389433950007 3.77366977119056 4.682720108997703
Sb 4.168220673050521 3.770721451874839 3.674470027113022
Sb 11.237133676897372 8.278380992756729 4.452420481683834
Sb 8.867965314721125 12.488377937290396 6.839225360685453
Sb 3.5804529000123884 8.47870967417619 5.7575016570807005
Sb 6.161296412929875 3.39773282565487 7.654904528806487
Sb 11.714976695596652 10.779338368588068 7.597682851819555
Sb 4.752680678337386 1.5346852568607916 6.023513473771828
Sb 8.767735050337041 8.876892410832912 5.881332353760652
Sb 5.783195836585178 10.946607702686658 7.516776010970736
Sb 11.001042298334724 7.367386521839673 8.522232481117461
Sb 13.023023824453162 13.365023939264326 7.4552588297089075
Sb 8.958138010560171 3.830223039106085 8.296690219244391
Sb 2.9777113985710786 10.316678103699159 7.920350826869915
Sb 13.076021667189597 8.386701075265904 6.716607675169301
Sb 6.368327034209775 13.800549522001662 7.620894191451781
Sb 13.137168125531513 11.790356909882323 9.872260930518774
Sb 10.483927361845979 14.75902900016543 7.507908882330449
Sb 5.773742389025669 7.42325395341547 7.418376443219274
Sb 2.8035445077417718 1.9656669574594703 7.950247588698637
Sb 8.745383388872915 11.09283394752769 9.400329870564109
Sb 8.82652636406891 2.4592276167180582 10.674028936049144
Sb 4.84888908677379 2.280789045762286 9.939966656700244
Sb 3.377253642008994 6.069024950796574 8.460168535707576
Sb 3.28976168007178 8.418550727133576 10.125068357171166
Sb 12.55274988940079 5.245200823960088 9.712353534782649
Sb 10.630188171651566 12.334972106696004 11.176337557604977
Sb 7.915217315385506 6.600360015761924 9.7955466501304
Sb 10.846074683430825 4.1312767413176825 11.788278938993844
Sb 7.259652800567195 13.458006785170282 10.34547632626713
Sb 9.799793994728374 14.927300222792502 10.291379127358194
Sb 6.077367210287558 8.664226337065038 10.98960995750321
Sb 3.805266696738542 4.775147104650806 10.97173016852148
Sb 12.1961577737179 7.788365444238923 11.114881086843818
Sb 9.659758313029881 6.764197451029885 12.163098553020227
Sb 6.210371019297729 5.955924593705594 12.055766145035285
