45
Energy = -174.57737224 eV
Sb 8.117085933471506 9.787036107675343 1.1415374230156723
Sb 9.564229849244205 7.278608937712807 0.9063370785926527
Sb 9.082581157434038 4.972179742354807 2.5687216113988853
Sb 6.09545493252924 9.129009247292833 3.0820499659048344
Sb 12.1449123227522 8.292263168019291 1.5399349380683884
Sb 4.321309792998453 6.988937570573412 2.6605860992940076
Sb 13.199097382608523 6.557658012861682 3.5196043062371603
Sb 5.311548991639438 4.454389219344996 4.129062677079797
Sb 9.094297356724026 11.107963545899237 3.503095765026124
Sb 11.463764307340956 4.5829691014956895 4.041755751002499
Sb 7.829603740170912 5.411468187586588 5.151540806206842
Sb 11.906032628885281 10.595315922389558 3.3191594160860975
Sb 1.4291623794634345 5.924858749151137 5.697204650993249
Sb 3.625813171346131 10.049798307589127 6.325997625597164
Sb 5.241395607506102 2.437604043706202 6.400455770004497
Sb 0.8604720200531162 7.887045012133796 7.583968567320621
Sb 4.531195794174154 11.431262276024782 4.054268712433493
Sb 4.1638566274868785 6.910870877564622 5.5267129585705055
Sb 8.065261367320293 2.5179702921693567 5.78261137498893
Sb 14.607306019545781 8.991477826289252 6.19947153944537
Sb 7.9443727009412415 9.061874519331967 5.3007107865815275
Sb 11.73798911691432 9.188296354172184 5.864607283084825
Sb 2.4143147210430302 4.470004684569599 8.189546530937239
Sb 6.220151496142972 11.19645166123455 6.430908079965043
Sb 13.257664807930885 11.28600822447766 7.208500424277347
Sb 5.936686108396963 4.101946003426525 8.623959331546581
Sb 14.146625875776305 9.25033714141925 9.055197391328935
Sb 8.418352035581323 2.581461305586469 8.66611646098956
Sb 6.577711947035288 8.092357039418122 8.973916856969206
Sb 9.451125728820243 5.279029062749441 8.834328018396718
Sb 14.607306019545781 6.5061371437007995 9.091258634945149
Sb 3.923042612380527 2.6684244885599484 10.131449893536118
Sb 15.651794460179586 3.795724050593383 9.220796542509209
Sb 2.9427446587252977 6.893509652402479 9.668035104516184
Sb 5.900524164853266 10.304806611459988 10.70807848882949
Sb 11.555512223451414 7.994024546541395 9.070769552568333
Sb 8.379562741216336 10.336563639364908 9.261611712488918
Sb 3.372675208503224 4.796199230574732 11.858471760942368
Sb 12.06014439316827 5.349400589800096 10.137425811368363
Sb 6.424127397942127 7.69986941776712 11.817730681831703
Sb 9.679753879377106 5.103906492101809 11.697598104670757
Sb 0.5032698465573943 7.188065226992825 11.31505840740316
Sb 0.5024691712268177 4.382787761778618 11.995879912753649
Sb 9.119782932992052 7.717924780761208 12.783167368633379
Sb 10.444688798894777 9.64031538117706 11.154910979454455
