41
Energy = -157.77400515 eV
Sb 8.921574099872302 6.726942004985196 3.1466393091841174
Sb 9.46751935886667 9.45103387116275 4.082886076986101
Sb 10.428047977839723 5.357307124496995 5.129194030336444
Sb 8.113823484735756 12.408307548830239 4.788671489369761
Sb 13.200935537967522 5.332973033656062 4.671084099556806
Sb 5.95607937529257 13.917147728799709 6.199436618795124
Sb 6.420056118237208 6.414606912949967 4.511288662028661
Sb 11.77010899279445 9.009020626424666 5.706237448087161
Sb 8.683134775863959 3.2116976630044705 6.047609034386451
Sb 6.076288399639811 3.5630078967331973 4.841885421018877
Sb 5.155696385192442 9.543349921733887 5.4178615343409895
Sb 3.6943162690186173 12.103817491756066 5.892032283158099
Sb 7.808274684873069 10.076572971840491 6.42878722209173
Sb 10.276610231331311 13.507688693536776 6.2847315805962385
Sb 11.986934353782031 11.413729442314217 7.057556522674307
Sb 6.845674513903733 5.191040303543638 7.1044600065826256
Sb 5.206364425237787 12.026546066242812 8.294683854360619
Sb 10.711412531433055 6.67047843098143 7.74659680363697
Sb 13.477402671977073 5.778655114062508 7.46495010144007
Sb 11.5253443569591 3.8211539452780765 8.315131338096023
Sb 9.13528051565671 15.33952052793138 10.409951659874729
Sb 5.044652467103091 14.845869483010873 8.987296676192988
Sb 4.5289733328101045 8.394624127701787 8.02242311359181
Sb 11.705956268360307 3.4910600063654433 11.18113418135185
Sb 13.39834345227355 5.728348409145722 11.81531267766432
Sb 8.825217853030372 12.90582378580801 8.875965912363199
Sb 5.0100560681344275 6.944954310690807 11.374108717019594
Sb 9.46122154885149 5.289884323051408 11.403392305765244
Sb 6.916514331946263 8.370769680696636 9.670419121297492
Sb 11.280425527657851 7.50505423427307 10.818310974542182
Sb 10.931905700255719 13.842252680914628 12.20595236080653
Sb 10.911674344818843 11.527298937699653 10.4381441455097
Sb 6.749424436911982 13.84744234715765 11.002230533699851
Sb 5.02660174615703 9.803987151879765 11.304269930111737
Sb 8.994334198947751 11.770301918896635 12.619788416404361
Sb 12.388417133302319 8.822990872426255 13.175273490852332
Sb 12.346421645651063 6.260225673362784 14.487482781119597
Sb 5.832640812469533 8.402657619345497 13.749458847180776
Sb 9.50866512756619 5.690716153427715 14.230662016203153
Sb 8.610719806997244 8.197174647840107 13.02947238957473
Sb 10.193883335403655 10.02089451516473 14.594154511269718
