45
Energy = -174.33079433 eV
Sb 5.354135902257883 0.939917700292805 5.0642848833011005
Sb 8.700365829270808 9.652652043189631 3.256702297355638
Sb 10.431508681259295 3.97500032051314 2.4443152094505898
Sb 3.0593361389818603 2.6393021227170235 4.675543543617302
Sb 12.250446731767726 11.201420437636802 5.176041876456148
Sb 7.717162805213815 3.2247819675197382 2.998221958589834
Sb 11.499363616510124 9.020131198551905 3.420574318625695
Sb 9.810022397717924 12.57876075143657 4.428542598560185
Sb 8.500858115779305 6.049433454289197 3.0692403330134477
Sb 5.929377908237686 11.151611727702939 5.548900908311406
Sb 3.554985129131803 1.441151799469681 7.235067504600591
Sb 7.866171680139186 2.2984985729595175 5.730428874739313
Sb 3.287362160192979 10.158919715643663 6.21484229274925
Sb 10.257043119975542 5.065273536373527 5.108431558160178
Sb 10.097454844837923 15.130340847284579 6.026944907867355
Sb 4.51796890625753 4.093178935770553 6.712611352220525
Sb 10.728837453201015 7.74035966863046 7.917619397498403
Sb 7.906742184960527 8.973945081823853 5.8505037080732665
Sb 12.225167428270003 7.142356633815829 5.484927446714988
Sb 9.972160957890887 11.002978910196735 6.90697287367094
Sb 7.643765068742399 13.784483913254252 6.898514263943732
Sb 10.129973267641851 13.532300677774039 8.374587504904943
Sb 4.701837782902661 7.811996618481301 6.986946911437414
Sb 5.713961255224299 14.23471414223711 9.080155667706533
Sb 10.691455555587972 10.419721939904008 10.40379118201681
Sb 7.804065731793859 4.844001183408938 7.239304916716404
Sb 12.910028200933674 8.909601774763265 9.445515433336125
Sb 4.989976145662533 11.413445113233433 8.294253985973391
Sb 11.842812157628991 5.274064402705378 8.940339037056326
Sb 12.8172332085392 6.670579367325855 11.330258805317873
Sb 9.507767592571785 3.577120580918314 9.295924382858074
Sb 7.363602975979288 12.300945782251626 10.466929320331236
Sb 6.462268444513787 8.65151187675843 9.281528612793595
Sb 3.1840239526070415 5.911818880777287 8.577602353431573
Sb 5.9200041808310795 5.714514048507722 9.529083174104446
Sb 5.007613494942974 11.585306274141905 12.043340872116417
Sb 8.716990996566212 8.381144011108644 11.928411851722197
Sb 9.046663597716961 5.241371269916833 11.55561796770033
Sb 4.671863646103192 8.719039776783474 11.571551198248141
Sb 11.096236211047025 7.732676284023181 13.417174200115797
Sb 7.319026494505203 12.76321812704997 13.320803480170293
Sb 11.539936675873452 10.620616504240843 13.14002165195733
Sb 6.368413905164006 7.394010000373709 13.486255743546108
Sb 8.797182207269003 10.434152141228868 14.102633800011308
Sb 6.289051696814855 4.799856322030722 12.22096227792488
