42
Energy = -162.90590633 eV
Sb 6.431500565374398 9.449668704535577 3.664051495720956
Sb 8.447148622732321 5.080131856657739 4.972254079235148
Sb 8.012491504490574 11.793378123084702 4.376820914480534
Sb 14.376825713409705 11.019667341654792 5.177444101418758
Sb 8.743034076625666 7.961196880575993 4.664317995849971
Sb 5.493941120961883 9.528837679116597 6.40260288942532
Sb 14.171508507800826 8.223143172873304 4.669671877330678
Sb 3.9043355427241466 11.885973725969984 6.11460112679789
Sb 11.321688898088832 4.9620058791128825 5.460053606841565
Sb 6.116215045786295 13.65199558036762 5.66023272842428
Sb 11.786074697128809 9.727593250544226 5.018193788709765
Sb 7.654216388595578 4.17509862136898 9.319114743432111
Sb 4.9907895252631675 6.315687030745294 7.173363364137759
Sb 14.994811753917125 10.62298845120888 7.9985518620689025
Sb 4.820700073452768 3.9191940925568267 9.016958518333256
Sb 7.87792052585518 6.78155434379049 7.230756824997994
Sb 8.196060877125698 10.602025947718746 7.0527910885197205
Sb 13.843086597692958 7.975343583511212 7.862322331941321
Sb 3.3604125612709956 12.067458059702568 8.913458523106895
Sb 12.434204570505191 11.618316683739456 8.817485267709097
Sb 10.818443802571283 5.740211174258282 8.238626650599226
Sb 8.841284414475366 1.8215499564816484 8.212537247390895
Sb 11.393889273073084 2.970485715926676 7.58492063641056
Sb 12.514267863926584 10.331563201580268 11.389264356120169
Sb 4.54147623931954 8.122553555677248 9.36577365304546
Sb 13.95368205157723 7.794730987798674 10.788174551058916
Sb 4.295652818589849 5.78030055568545 11.140164351059951
Sb 11.196487809317615 9.176275572794903 7.866622294926011
Sb 7.679634342686034 13.239505159558595 8.055246102118137
Sb 3.6248802320195117 14.970352966194255 9.332636578679203
Sb 8.997318451995874 6.642235435416949 11.254902712216376
Sb 12.88361641454694 5.158423755847148 10.159292968795194
Sb 5.965400070690142 12.112899003930922 10.090463643428693
Sb 6.643249688552893 5.9611517663999125 12.795511902144673
Sb 8.990606576785305 2.3006141139836322 11.085069884992594
Sb 7.1460178899828986 9.360669221742594 10.144066849274111
Sb 9.778107666062807 10.688818622861767 11.766843243080851
Sb 2.700101206114077 14.863457881496906 12.009358176580923
Sb 10.751506837761912 4.452683793359405 12.033862456938449
Sb 5.382037718630218 14.803842914383518 11.625829153962211
Sb 9.37345882972508 8.489928602539877 13.498429448547533
Sb 6.536672814623906 8.8412472150759 12.982116191978468
