49
Energy = -189.85563666 eV
Sb 9.427130139184447 8.255898068283807 3.3634820825930647
Sb 12.341503940189718 8.213595300757344 3.0906835910458015
Sb 12.060106509451458 5.471367446734542 3.790393669850418
Sb 12.149285758598644 12.35810755927335 4.601825912446463
Sb 9.480185503332217 11.392021348298384 4.272849880574106
Sb 6.095484715875746 8.366210377918426 4.479063127109839
Sb 12.597794835965614 9.534694502361438 5.685394750633192
Sb 6.447945934017788 5.6712213848004085 5.3142150030496556
Sb 8.006641078628963 13.68521964400414 5.318653945249489
Sb 3.8687657263717985 8.898841501807334 6.297252070988454
Sb 9.148461331279274 4.903503848501804 4.334172722055028
Sb 9.76620343094629 9.028852456284318 6.1569624019843525
Sb 14.301408005021718 7.548617221975168 7.008663544887278
Sb 12.8366947468992 4.983094546789175 6.618526082158425
Sb 12.185815946395111 13.014734756495832 7.39971104902252
Sb 5.668408126053809 12.32188324707807 6.317144032592203
Sb 11.296863626048623 10.519241782423745 8.615187262471343
Sb 9.975807371067779 14.793795403004664 7.080948145941553
Sb 6.512897229483859 9.664182393116187 7.116786351143576
Sb 10.025662423824691 5.665552583440148 6.952186364631866
Sb 6.754580573712305 6.447440948556144 8.157179607083362
Sb 3.8775588503412783 6.451752582700302 7.869834498764975
Sb 9.314720702000045 3.2086684191216257 8.399798204145027
Sb 12.013242935887265 2.3627847093903758 8.149783232916532
Sb 14.678023332791472 7.9437484867284835 9.875464674733614
Sb 4.742233610231411 12.893694762927554 8.96278424681658
Sb 6.245412346527213 8.977525846996743 10.469585536704587
Sb 9.073244233183793 11.585084629917063 10.220583679139384
Sb 12.220855835492666 6.3832401256103495 9.974667615803389
Sb 13.60537273102195 10.622636571301536 10.353526744585935
Sb 13.252056042176074 3.7055009035811484 10.331582157389617
Sb 3.4957548448776747 7.981284220033611 10.314147989681096
Sb 9.168033046780709 14.458738448101414 9.777416796126767
Sb 9.134225926139587 5.303946939854077 10.377703774822674
Sb 6.3467020054833245 14.93076654623817 10.073554246469483
Sb 6.2813640171827565 4.494665806222342 10.33359931192634
Sb 4.6491568021892595 11.18172913559802 11.731629912075512
Sb 5.351985658844589 6.614935544541396 12.056793634320513
Sb 11.321965661521766 4.648954217006939 12.203116819063212
Sb 8.267842309147396 9.81856836106895 12.790470192830409
Sb 12.517415406723286 10.440857359924529 13.027396445567538
Sb 6.823830189118396 12.922946651978986 12.15858284274567
Sb 10.785353637922523 12.632364278533544 12.311728263246088
Sb 5.168582829488805 10.752158752912662 14.8118683865748
Sb 10.616642652840703 8.275064712468698 13.43098049057912
Sb 6.917817356342751 8.492334089311633 14.879821988977206
Sb 9.621970387110196 12.3190560202122 14.99255309112029
Sb 9.478277864237992 9.523928824152959 15.818169597427103
Sb 6.822616799187057 13.074891698802212 15.071478995075289
