47
Energy = -182.80791113 eV
Sb 9.378640017362073 9.017011466848462 3.645609503335316
Sb 11.270501625310526 13.614054966502803 3.7293022922667234
Sb 12.251483382788662 9.530149019450343 3.4470334042098103
Sb 7.4654660483912005 12.7564220003973 5.083118597097158
Sb 8.987289452384752 10.226966939485271 6.272013872379154
Sb 9.236551393154668 14.987808205935751 5.234674927110811
Sb 9.650313884261081 6.204113956996812 4.051183368042599
Sb 11.486453990206014 6.149430162648114 6.244907032082232
Sb 13.672606817437485 7.5431403378278095 5.01785041384933
Sb 11.89779242012045 11.492197778083115 5.547261222732205
Sb 13.684302815397709 13.753865458396916 5.259010462087984
Sb 6.7944558347937045 9.037578919092807 7.909737613467338
Sb 6.470448316004683 13.362185353653397 7.6185742692945295
Sb 7.347844005601375 5.108605514983263 5.476525007351103
Sb 5.396113850181499 6.8853127578716204 6.602867890861923
Sb 13.442663501466411 8.997721378523906 7.576964187178249
Sb 10.615601975487527 8.314091950673179 7.956617323763681
Sb 4.716864115330978 11.122856452638432 7.565126363189625
Sb 10.001911005902423 15.048503509621677 8.008916391791985
Sb 12.856659902537617 14.56654062545425 7.92713848867332
Sb 8.264172264349789 2.6559453092216336 9.716460787798736
Sb 10.810573806527955 3.6266195879248584 8.67884875537208
Sb 9.147381041403253 12.388770394307233 8.846401243774388
Sb 8.355115431256772 5.099994279782761 8.177212683226122
Sb 5.263155802162179 6.565575273919155 9.68114779042418
Sb 14.076921594520668 7.209721147223537 9.806401697669722
Sb 12.287685756707296 9.108655750011726 11.208824026053016
Sb 12.233505595562251 11.995386286798679 9.093352242665787
Sb 4.089433741244243 12.045668435206284 10.264718742937124
Sb 11.420189401937034 5.976160500249867 10.37017083403741
Sb 5.164239755758981 4.787208907323745 12.230250913780111
Sb 3.908941610793478 9.229694857456288 11.09339906316626
Sb 8.019066194352204 4.3799132955111375 12.020217516363285
Sb 9.002084192409544 13.194982807583168 11.67566589761225
Sb 8.050414660820794 7.021612231383404 10.582370138914067
Sb 9.69815929030248 10.506939510289039 12.635627530320185
Sb 6.44669300230297 10.677992949729923 11.116686652550136
Sb 12.689195438415679 7.806258574583045 13.831766637836195
Sb 11.919135028640268 13.531407965542869 11.509016494679587
Sb 9.930003972022392 7.133242359816703 13.353668336392639
Sb 12.446006622001173 11.260526046095887 13.24976790430487
Sb 11.998098483111301 5.099226422772626 13.106566981303404
Sb 6.23118768361871 7.28146732390554 13.211297272303751
Sb 4.1243676925967225 9.050169086711517 14.062307245370787
Sb 5.892772858280212 11.299279848661223 13.926201159230528
Sb 8.297534513175687 10.30565964039328 15.22015350951669
Sb 7.984277389865406 7.417641630769543 15.53134248989179
