42
Energy = -163.68265314 eV
Sb 11.365955947222552 13.760485859695155 11.521493869583049
Sb 5.2238298343043565 8.291293972738488 8.28013951958127
Sb 4.176771936505016 7.788876994126432 4.984412649765243
Sb 9.669538996477002 4.7468730209560785 11.225958772462503
Sb 4.600879909984467 4.484654827294596 7.388944231181498
Sb 6.941926589906642 8.39799273462516 5.487647580636796
Sb 7.131920741943373 8.90509058681689 10.515543146028167
Sb 4.317334360205022 10.78250300622845 9.09070459315193
Sb 12.010286580527522 12.631029326624274 7.871168091846681
Sb 5.6762028232810735 2.870988461941027 11.486683712649123
Sb 11.432455134935987 10.969341976698077 12.224827020724666
Sb 12.88915177801116 10.664655625787974 5.93329628067021
Sb 9.122385601280524 6.15592685733419 6.969481216779501
Sb 8.589208941895157 8.041518204350735 13.040003689473703
Sb 12.718697164243364 8.17017981528358 7.417478419951768
Sb 9.728641919831215 3.7933296317315905 8.527100454953361
Sb 13.459184886749554 12.256093055124252 10.217525803603138
Sb 6.1622813339139855 2.386958560209244 8.666918799982588
Sb 12.38280433931868 3.4673912486496046 11.367760023207753
Sb 6.518193723343716 11.24215809960522 5.002636825523359
Sb 8.080497541063734 7.684159984620722 2.8211448113857034
Sb 3.287596622292586 2.0637003981434563 8.341720464645343
Sb 11.172994171017985 7.179322281990824 10.960003622471634
Sb 7.995478385172556 10.259277138217964 1.5780137234138847
Sb 3.3583736228514187 9.469440406521574 2.7348099992526245
Sb 4.295380494252649 12.23415416573923 6.609304133533027
Sb 2.869982365235602 3.2036041717007806 10.961680044339767
Sb 12.60722496553669 3.5773016600043848 8.495733280691539
Sb 13.569038037371882 5.762220316412035 10.08586213488801
Sb 10.09573944069787 10.251659422969981 5.521927473786503
Sb 5.731142781197624 7.697684780031042 12.72755243040884
Sb 3.5547668241440724 5.874813841891233 9.683660231717823
Sb 10.79097671426346 8.324179312821247 3.5068929434626335
Sb 11.600624268680283 6.31107815259847 5.441942268239329
Sb 6.2332907150463495 5.619867072779851 10.724902660544357
Sb 2.645029489484175 10.195585599227673 5.452810970062474
Sb 9.876383325354043 11.817734975544571 9.936240183835181
Sb 10.040830132807109 8.399776591702231 8.581069602772175
Sb 7.021187844947953 11.747812667584446 11.113859165909997
Sb 8.926087330838742 12.11674375991454 3.6076188887229925
Sb 8.577271539973475 10.873894417761168 13.38325256843228
Sb 5.439882909597875 11.416079081710059 2.3977057614353545
