43
Energy = -167.51946925 eV
Sb 6.606994613447935 8.082974907818532 2.429318340078085
Sb 9.312548058059852 8.0743637418569 3.4049914128316656
Sb 9.29794836219478 5.2497048375325335 3.777275534437679
Sb 10.097351879814102 11.326363766771593 4.643485084659735
Sb 5.234927124071937 6.9019167644312915 4.653996394440181
Sb 8.742917429667077 13.760216408288585 5.37164617129352
Sb 7.094394343446155 4.9347470619496026 5.610784118100353
Sb 5.626415038223828 10.588029436506684 3.5287355882503357
Sb 14.121609349995543 5.761159701939324 6.380500193400356
Sb 12.490866017764905 7.896197603987537 5.395319150186487
Sb 4.995479210190595 11.867275832404344 7.520437868685543
Sb 11.10584451296468 5.497188301293318 6.21381383337276
Sb 8.9319497372271 9.10277643970629 6.114879238288409
Sb 7.8985786451746725 12.269430071009412 3.030978623694784
Sb 8.353573795911434 5.987771634954314 8.082905319213575
Sb 7.381167016300618 13.403312239222764 7.904931527664566
Sb 11.357196984388182 13.261760871035737 8.791517077280343
Sb 4.5482482900641505 6.848056022991252 8.943847596778513
Sb 7.130786311095185 3.524020702949117 8.922751431320508
Sb 13.586135213867852 11.463285625733981 8.097714113176533
Sb 6.042407008092525 9.43633815518394 6.119557686827183
Sb 6.793416467351198 7.2484218977125 10.807014122711234
Sb 12.403920742258403 13.407560175922871 11.51160165245126
Sb 11.788012236231118 9.19787743949135 7.974932648986242
Sb 4.738087176744649 4.335063025588726 10.44894961785848
Sb 14.021102557267048 11.085756757783033 10.955859307336778
Sb 12.598633609444668 6.52208968716557 8.755811553773775
Sb 9.115379881026428 11.401581805201479 9.145817304257681
Sb 5.649875837347543 10.297257922161947 9.83237037167292
Sb 3.166401637629997 8.973908411805274 10.45406932300186
Sb 6.583067628826362 4.998869574066156 12.628835402366164
Sb 8.57829317086607 3.2034061150637303 11.447461522540324
Sb 8.531865871036697 13.026959204244836 11.456506268595842
Sb 8.468136982475462 9.174949424088386 12.484344049382399
Sb 11.463522444139352 9.696914505524104 11.240828461244607
Sb 10.502757413232 11.704962931346145 13.105110458559688
Sb 5.756491985393481 12.161262769233911 12.02472175492613
Sb 12.855538375543755 5.557883006039024 11.511769560555791
Sb 9.963532968490489 5.69380764058355 11.069279821790591
Sb 4.547427332292745 7.872382402324133 12.718768366727234
Sb 9.558453559359153 6.853520598091621 13.764685319478522
Sb 12.315667461061217 7.799751868930267 13.25875872872625
Sb 6.1002572825323975 10.0061042725773 13.92029964158952
