44
Energy = -170.93761199 eV
Sb 1.4561433796308547 10.63371800150484 6.452639484300774
Sb 3.3198014532381004 12.79544605946664 6.896067859001858
Sb 3.2717302304744136 11.458711322501811 4.463078795165523
Sb 5.236750058789267 11.424095056175906 11.308256929383282
Sb 8.920776180842115 10.76122774281712 3.210310729631171
Sb 4.678361428188373 10.67177796408838 8.599517685354295
Sb 6.333212435554044 8.938771795929826 12.32371527509189
Sb 7.831002629962749 11.982391359033056 10.054861033280387
Sb 2.5904163175819876 6.602090481685183 11.21606388360675
Sb 5.072505120416518 10.196245346818214 1.1049988588871873
Sb 3.187688967286312 8.425677199409899 2.3328201729807296
Sb 8.612692452097896 9.228248694763716 10.571355426092081
Sb 10.705373449993402 9.759425245663044 6.902050455772066
Sb 2.745886543456787 8.583818997440138 8.245484104960088
Sb 7.432599376687954 9.89684497938656 8.023707358629414
Sb 11.758695562496184 10.94695939029672 2.6446496210624177
Sb 9.204782448553892 8.352564576905026 4.876725872364612
Sb 9.644892453317945 5.533328299220704 12.123984570203367
Sb 5.371988647970424 6.981821347088152 10.443039432448506
Sb 10.068716785110064 9.362682473985155 0.9699583366948255
Sb 2.174549906090914 4.507946408727161 9.304258117257062
Sb 13.321380474967869 8.508138135863952 6.625810819736098
Sb 11.491249899932292 7.673796875597952 8.729731440979357
Sb 3.1299383005085164 3.822458954282409 11.94071101458868
Sb 9.889024906065169 2.719555566140174 12.545903532403726
Sb 5.523827125639928 9.222379749315534 3.826476514105724
Sb 4.836004632189058 7.282973267170587 6.743618939727772
Sb 8.651906413375798 5.6077832894382516 9.300863313854276
Sb 11.53223123401741 8.106935533729443 3.14968225297074
Sb 5.885080325871225 4.686221900864502 12.214620079639454
Sb 5.872112056242019 4.638490208352874 3.790202766954027
Sb 3.382825537546273 5.682255749369262 4.891164898492076
Sb 12.270331136224863 5.8216918372353925 6.63427663413387
Sb 12.117985109236216 4.132054433437864 11.558505341335627
Sb 4.390049427311469 4.4647076765106215 7.412742037657888
Sb 10.730475938656646 3.5680675160517636 8.938408006766972
Sb 7.07501295804214 6.9642993004837335 2.5989795653851093
Sb 10.131594760115787 5.078140006472822 4.779641905648476
Sb 8.865577015615905 1.5913569578327127 9.89954418142991
Sb 7.551157265709141 4.866860551203096 6.214681067974955
Sb 10.779073318510997 2.56687535974776 6.1056715694900205
Sb 6.6462111487109 3.4658497678601874 9.734188354485118
Sb 8.096159987296598 2.045527405102222 6.744670840110799
Sb 5.142744500777413 7.37030651533333 0.4828802202651942
