40
Energy = -154.626145 eV
Sb 8.104924610343627 12.799142654640272 2.4336573525835146
Sb 9.18591670314257 10.586119023238842 3.606718302407886
Sb 8.741775647397187 6.196349738636804 4.918464364004697
Sb 12.619164898327877 10.4304897870553 3.475478543113097
Sb 14.859569156819601 12.125673552806367 4.090126785301815
Sb 12.570719125953046 13.227680179268853 2.7089703330749817
Sb 6.066589111918076 6.980394529542603 5.7682820246912225
Sb 12.068109207082175 4.991944090784163 6.871476769086664
Sb 8.786626493413836 12.950224466318547 5.20316667480379
Sb 9.415977632744564 3.853607649883833 6.437650732882826
Sb 9.284005154819129 7.854936142837595 7.18505185422162
Sb 7.2547783968143325 9.66146982677958 5.966004358019641
Sb 12.815697105075921 11.62760289271215 6.117117084909124
Sb 12.120496416422425 7.915619070692801 6.535760350432363
Sb 11.486315411121119 14.042174451617424 5.2752192765194
Sb 6.475914666441319 6.589932003927703 8.623623003109305
Sb 7.392003585907298 3.8344713030091544 8.531835059309572
Sb 6.665826590803051 10.195271149922585 8.869627699454453
Sb 9.97836997836913 10.056394545203721 9.92608212298056
Sb 3.6362141782942103 5.940946816907271 8.53150817628831
Sb 12.356640782139962 5.119894463634972 9.745343260952042
Sb 7.225510531654402 8.711363607040836 11.62459584370205
Sb 4.201213264525209 3.9217111614231417 10.536878593611432
Sb 13.648978582574935 7.603442572702356 8.98834467605933
Sb 7.447817699697729 12.990678868059204 8.898862806167333
Sb 10.32445769692165 12.554870975943015 8.502057784900735
Sb 3.9260463860720574 10.589369554011531 9.889614249322024
Sb 2.6532146007167556 8.018301726386223 10.245284800910648
Sb 9.902593007188358 6.4662236761945335 10.386623397190881
Sb 12.576988690507484 9.431876334165763 11.00437735968675
Sb 8.726515312128573 3.9208343098391274 11.11459715150385
Sb 10.67131164570153 12.44888295005968 11.400449092541425
Sb 6.275490303014489 5.235554186344734 12.03317182491967
Sb 7.234853851216959 11.041851063330094 13.343977393396473
Sb 7.972146721447563 13.324227214142555 11.781747402874004
Sb 4.380519194713921 9.024599491653523 12.313307425024412
Sb 11.223174641726787 7.553217390398018 12.745994907279007
Sb 2.6973698360349956 4.345861563662583 12.91347352423328
Sb 8.869168055461325 8.702127993641604 14.048855118569309
Sb 5.020817954444743 3.998489850680338 14.27044534906039
