42
Energy = -163.25978082 eV
Sb 10.24283593498434 8.700727079137469 3.6383516998873904
Sb 8.516035194798569 6.462525431426531 3.1238789842655783
Sb 6.313627953707844 6.220312447045686 5.130752944438484
Sb 8.29187592444591 10.003579519720455 5.3218401988781565
Sb 4.041025142264894 8.267877785610578 5.761786027556934
Sb 7.453923169650633 3.3057496506394655 5.969242516126413
Sb 12.254321760958565 8.320964128784127 5.75433994628213
Sb 8.873383057737255 12.858022086990806 5.030124543768946
Sb 9.540963207402962 5.1554501193029045 5.473382015871873
Sb 5.208016946408582 10.866577214929574 5.364723574639785
Sb 11.938128320461537 3.6829334701501053 6.096572000035125
Sb 8.123528040699188 6.988958237653731 7.37840002476422
Sb 13.733157101530612 5.837792332003414 6.246688004999238
Sb 13.669891495403995 9.760561000270613 8.416367193609942
Sb 12.422682311613851 12.210885757508787 7.490483996055874
Sb 6.634871232314491 14.663629591407025 5.535724001979273
Sb 9.610485536294613 11.520092619693607 7.520931752120482
Sb 3.951002391537869 13.577456893278 5.538520382204151
Sb 7.911159657004395 4.318465771104046 8.605491550406377
Sb 5.2054606357298825 7.933991723884959 8.349292695757608
Sb 11.043734208510504 8.448974819820444 8.402141797924914
Sb 3.8341026481650906 10.241522509985664 9.443143161256573
Sb 4.209169383068312 5.774623188827811 10.077498578157975
Sb 5.30111466534892 14.079973747001247 8.003393060056355
Sb 6.15659698756043 11.295772649641892 8.102565932582863
Sb 8.58384200972632 7.257158804610404 11.176110991165723
Sb 13.674006771107742 10.717960123209796 11.206430190024909
Sb 10.786970698882186 3.7173769938202685 8.962095320414756
Sb 12.551103888587495 6.002594589538894 9.003209886207317
Sb 11.871416723371805 12.834115986325527 10.347530448889895
Sb 5.9259473392032564 9.42906239513467 11.282403682846962
Sb 4.376541709685715 7.3142478910713775 12.50959098175072
Sb 9.519743439307428 11.171162172148172 10.859292534575456
Sb 8.017482891361993 12.785066980041684 12.737013278926266
Sb 11.605105824951053 8.763024662348453 11.82727669904618
Sb 10.341998262061907 4.9867230594282885 11.879560897469945
Sb 10.670331382438544 12.049593687859467 13.49174146006181
Sb 12.898111572952638 6.183766762276725 11.96066964133753
Sb 6.431515781365835 5.363018050881739 11.865365541632812
Sb 6.518370787112184 10.595805909499 13.853270636787325
Sb 8.215151771990366 8.21163754997575 13.972113997214356
Sb 10.781651184527783 9.370649552249095 14.541072174259533
