46
Energy = -178.47348243 eV
Sb 0.40214763633876166 3.7768220449269676 8.414194231527798
Sb 2.564659083502332 3.0678324516012214 10.254222865278658
Sb 2.484794359796001 5.711610009341574 9.020321617999445
Sb 0.48359490851606385 5.510504504318814 5.549416145682958
Sb 12.723872957514173 2.4914259845435627 4.171200043775088
Sb 1.071878697409639 1.905390871449634 6.292494375061431
Sb 3.921331414246069 0.9104999244391405 8.924122006637823
Sb 1.774506339706792 8.132862297112618 5.760145873689416
Sb 11.532992004877887 5.122098773421962 4.3297809940085905
Sb 6.549720527387451 7.950404023730842 10.609881000058666
Sb 5.775445353561724 4.376758118989902 10.56224317061588
Sb 4.734236747129294 8.875102477351748 8.518814389386185
Sb 3.250245997363852 3.4271662260917655 5.191122569620892
Sb 2.526565500125703 7.522959476566292 3.0105198748038693
Sb 4.103737477245573 6.596019964202811 6.730312302348679
Sb 6.523423148832231 4.195221985803715 7.680661308031219
Sb 3.3909500281989664 1.631076486170601 2.9361899773560776
Sb 5.251104307350456 1.8573379495174076 6.564106898136483
Sb 4.08395017397272 3.1583064564045515 0.506466359040438
Sb 6.22237549539068 1.5098802047361126 10.63057741952972
Sb 8.376465805783658 10.152394479235461 9.878425427303316
Sb 4.792937208068907 10.533967950482506 4.54306749803187
Sb 0.2856429322020383 4.722972925604094 2.7504244558782203
Sb 5.816502162642441 4.710968452543977 2.543956256848412
Sb 5.384853290981754 7.7694525891976625 3.5396470384432415
Sb 8.687483251334227 4.247630697784266 11.010518747375032
Sb 6.017272073422068 0.4871436546277182 3.3330979579571935
Sb 3.0594539216588625 10.264370136231308 2.194112136331936
Sb 8.488320125552683 6.395577033986632 9.101054195975495
Sb 10.571350525974392 8.356807201978347 9.334535983211532
Sb 8.3996574771383 2.295688162042866 8.8550595319379
Sb 8.384421738487358 4.819290622182412 4.843290415488272
Sb 4.869758207408849 5.956664233685842 0.2400933322212297
Sb 6.902101527592075 10.419309258379917 7.3432529851597765
Sb 8.075913929425681 8.376824502093113 5.650170792092158
Sb 8.465312538401701 1.9841733199820826 4.029364469058792
Sb 10.605919789695434 5.146394850115799 6.686636101722068
Sb 6.455527690463368 1.35084040740945 0.5556836372391656
Sb 5.460101787400318 9.12232731423308 0.9685532734503536
Sb 8.259071954799905 3.3939074506462767 1.5395247258625728
Sb 10.856332684765038 8.055270122452724 6.396702574051384
Sb 6.678619126535667 11.327480553699772 2.508454670400517
Sb 11.149476200949758 4.451570897510786 3.8907591406507427
Sb 11.532992004877885 7.233428472470517 3.236823870219073
Sb 9.091468228660817 10.19907717696522 3.608030594940572
Sb 8.954770741732357 7.578311700702544 2.3980150590866396
