44
Energy = -170.82664761 eV
Sb 3.154951500836662 5.23293398323953 10.330239325310789
Sb 0.8384347211206928 3.4904346247046036 6.644397494870357
Sb 12.008662027170436 5.166429846288985 5.617048763450003
Sb 0.4595193649276318 6.489454241713965 3.745883751663816
Sb 1.2997879493720461 1.754698097377535 4.360844747512129
Sb 2.5144726689045807 7.9466521273104345 9.367443201509412
Sb 3.959546049607121 3.631718136127109 8.08097638108924
Sb 4.178931794114752 2.0918774482035722 4.370213997260427
Sb 5.861462096744474 6.1606757824739535 11.004104998087994
Sb 0.2209953714774798 7.485312274724689 6.406948876809698
Sb 2.4826455157322522 5.714317996077617 5.77944721715322
Sb 7.451900424336634 2.387054719476378 6.423706460458572
Sb 4.46964757986463 8.839949304282582 7.433183582251462
Sb 3.841854062022538 7.664500589630078 3.10640376177408
Sb 2.5634244040258176 3.6847343283486746 2.626754587076126
Sb 6.707371299596658 3.250699502733466 9.093181525128468
Sb 3.758719232997908 1.217716196787044 1.6460143799632383
Sb 4.0516793704858625 11.50152370049563 8.53487656676981
Sb 4.3603268044505965 8.59538349848198 11.512209133879347
Sb 9.53431420666011 0.505909656468434 7.108252876093027
Sb 6.18457137473659 5.936226350866419 8.144375642248
Sb 3.1666840439404655 9.728393258285847 4.980600115645412
Sb 9.537070605382453 6.224094112073231 11.765798844945108
Sb 6.0483288047704935 10.697098349796077 10.448654193389885
Sb 7.248642723455009 3.5652361768572987 2.780123339549903
Sb 6.40340470524364 12.192718866930381 7.0010379256409
Sb 9.977512132397042 4.6142159700984156 9.395382013319828
Sb 5.36018639652147 9.250071273103465 1.1905976264108369
Sb 6.740806358344206 6.660164886844741 1.2635538079471282
Sb 5.687785004643368 2.9606026007642505 0.3617843750917698
Sb 6.715643318550111 7.188786805688305 4.141861083202287
Sb 7.626404610639797 0.7097609799748794 3.2166938237111364
Sb 12.008662027170436 6.444817136188605 10.344148273971902
Sb 9.913951236990956 8.438730136935337 9.901090499089841
Sb 10.231126362226348 3.135423858857667 6.211756230072684
Sb 9.01917095156757 6.805261494473595 7.685264699014112
Sb 7.440597987046838 9.68688461417047 8.077704871538602
Sb 9.882395005605892 7.1001021691141455 3.9716718891405876
Sb 5.287101816385789 11.605020403642913 4.399966936093258
Sb 10.120151767927 4.707847084339119 2.5654202923786706
Sb 9.634054384392405 7.13006662199033 1.1016220436889423
Sb 8.317194536388795 1.8273231070333993 0.6605036273344693
Sb 10.302675646095814 0.8895820417868976 4.355817376170017
Sb 7.283371656140057 9.898860380690003 3.2308807672353095
