48
Energy = -187.29776083 eV
Sb 8.522709842975642 8.302870113142664 3.534775238812602
Sb 8.036428043100528 10.844170979080207 2.235900112210227
Sb 10.971990637061225 7.6342285563821415 2.195017041482139
Sb 4.7392671207074875 6.890090795630305 3.5006717672527006
Sb 12.392047253700357 10.059545320739423 2.480631082355889
Sb 2.2317970415190853 6.620960519264509 4.745541924552698
Sb 14.85653594506684 6.794533588963049 3.923767964532385
Sb 10.41541677095472 11.869043524953929 3.5439854508760424
Sb 6.884394090130464 11.46552321271846 4.838017387536826
Sb 6.725030051910825 5.4272856327790056 5.07486355618411
Sb 9.35961099347623 10.147555831647162 5.654694937759326
Sb 5.122921650673713 4.284295782691232 7.188031474244988
Sb 4.612774370370731 9.53760246435284 4.671937267239931
Sb 3.4595540213454337 6.584960911998007 7.259505782046659
Sb 12.154173258515561 6.178912282717589 4.576099992850904
Sb 13.174390130423378 8.83367943015614 5.093103550234786
Sb 14.599931981278457 5.747212302040687 6.606317072328527
Sb 8.625837518151542 12.42044212478162 8.608519413288096
Sb 11.230754167031387 13.211537925637595 9.547479068756557
Sb 6.563977103858855 5.855014133332645 9.14793458873158
Sb 7.744295362693552 7.377903976066789 6.952524268233353
Sb 15.035928237256233 8.266490392523862 7.62696071068832
Sb 5.331981408419237 8.899468872037236 7.3353630481625185
Sb 12.590049142475651 10.795488448630637 8.591417643349276
Sb 8.738250977750276 4.292125222940502 10.238730262694403
Sb 15.006453869481147 7.399995180564242 10.38724971566311
Sb 11.07726124306782 9.753954248988645 10.801569098874376
Sb 7.520107396864064 10.064660439091496 9.877077852622364
Sb 14.94426922235379 11.952533615635208 9.765829015868315
Sb 2.5756150338591173 6.34739804055774 10.054952846566474
Sb 6.9631850429132705 14.08399998663453 10.26198439984695
Sb 11.218098395671904 12.221604478690274 12.282662623402127
Sb 8.82541331118321 6.016060404138836 12.52999025929687
Sb 3.8276924518392206 8.69484971038594 10.857187730777623
Sb 5.147510183841858 11.801980973082175 9.947424167712104
Sb 4.618473447101734 4.680582604049136 11.749199982841024
Sb 16.468243846454392 9.79438981632692 11.037098988291559
Sb 6.054260731934042 7.154504475355461 12.162154387514972
Sb 14.06262041945407 12.53566749640389 12.447836860951082
Sb 12.87414169956853 8.06004477299344 12.248276308471791
Sb 7.381579696405894 3.6092147246300215 12.674732997297884
Sb 7.804428307821694 10.401204397470337 12.745464110867612
Sb 5.137299334763221 11.57433489039769 12.863193617793332
Sb 7.540139127525416 13.23937428322476 12.962835830810775
Sb 5.093257619322212 7.494012934729679 14.922224201277633
Sb 14.78090254881998 9.918846361197776 13.428081753624697
Sb 2.697528283288676 8.283159434041723 13.556187809082974
Sb 3.1825104209145447 5.497723141498484 14.186033589436759
