42
Energy = -162.11340033 eV
Sb 9.616185941724426 6.893933106078649 1.2973379569292254
Sb 7.4743033014686295 5.551537383439151 2.3300241225817975
Sb 5.931888609884216 9.20856203445107 4.013580255688731
Sb 3.794265700141947 8.82325628637284 5.90036120674669
Sb 4.7757317257471374 6.571922674255108 4.247098361547317
Sb 10.566156988211327 7.1307645387497836 3.9950747138798515
Sb 9.33001284474125 4.511442690913763 4.237861077450503
Sb 6.297947207874157 14.52487815834033 6.23440244314598
Sb 13.408527844487306 6.487146136460025 4.695622444418312
Sb 6.324931714852783 13.794742507390756 9.079581666428755
Sb 12.250735782524108 4.394046945218651 6.297993123110921
Sb 8.201269291254295 8.40401097075072 5.602200379550705
Sb 12.005923291453122 10.393474203469278 6.253035750617222
Sb 5.735879839147049 8.247560061537767 7.987692671457216
Sb 5.876703002719034 11.812213711802965 7.062988063220669
Sb 5.521118462804837 5.5767568811209225 6.876407426288099
Sb 8.160808665831762 4.336727889761372 6.915410956196968
Sb 9.21624037234483 10.9155524920228 6.143927466504287
Sb 3.883218467163576 13.831766389108665 7.610398175027997
Sb 13.644903775897797 5.524401342488067 8.573708831217505
Sb 10.277190574432597 6.302649370263913 7.381713518649109
Sb 13.707501752267643 8.063016759807226 7.117814506842025
Sb 7.936521554261395 6.516301495290452 10.15195538848767
Sb 11.56092855981062 12.298329857445298 8.423114586703578
Sb 13.581481543398834 11.536370240644015 10.34928965191288
Sb 3.395788437041651 7.787755752636219 9.724001376602146
Sb 9.615559238621765 10.41982933039818 9.52095195106278
Sb 2.8438284192955408 10.602354582553403 9.819745657106317
Sb 12.096084784228568 8.986897401665203 10.20946241890168
Sb 11.181090655966964 5.896814963159246 10.153558131223479
Sb 5.658898108783759 5.074761398990207 11.232294180918068
Sb 9.048107037531228 3.812524454982759 10.2561096180981
Sb 4.591576130023262 7.597288154335296 12.372029689580868
Sb 4.826373924606592 11.725140680146158 11.315950474538312
Sb 12.380845617892026 9.246655978341183 13.045066200484108
Sb 9.373571441016775 12.254413652892325 11.751555211249926
Sb 7.805660935556641 3.971900081695635 12.922626467019683
Sb 12.061885152188237 12.0890777832971 12.77204877660548
Sb 8.084109829350236 10.612585430804051 13.739230290321458
Sb 6.5904491093912645 9.479047346037849 11.465789596903901
Sb 9.970980193524573 8.525762860304399 14.424955521151091
Sb 7.989488236305909 6.860500086345889 13.090703759397558
