43
Energy = -167.4121706 eV
Sb 6.115077003508789 8.951750316601064 2.6770817627436205
Sb 8.217359678131684 6.9817644386749915 2.659478796844071
Sb 11.039736083088641 5.495286107199861 4.623484801310113
Sb 8.251745412470983 10.940790113955089 2.6037345258540134
Sb 6.669213766279408 4.933784796729382 4.00362533253352
Sb 4.452381694525762 7.761318349515813 4.799936978504151
Sb 6.784289792066304 12.999966387392298 3.998282521163119
Sb 10.491561918734876 10.290669377448019 4.320411442916745
Sb 3.411795172149304 9.95428398693345 6.414446167204699
Sb 9.328764121258292 7.7552129447454785 5.198676544046779
Sb 6.480827281357628 6.485394142223424 6.449548905591234
Sb 6.057274567429036 11.086461905876714 6.037778776493227
Sb 13.694051592828226 11.27102604386289 9.054326240558355
Sb 9.001585757152059 3.4380004337662955 4.819292063613449
Sb 5.332823176313049 4.113770206062801 7.727636102079138
Sb 8.474980561461791 13.638378793639442 6.283541975540201
Sb 9.353490316813675 10.960635859579236 6.880410783433957
Sb 7.769582747721722 2.6197237620974514 7.322873999969005
Sb 4.870594704508069 8.978117145241876 8.710872037592024
Sb 14.35858545871627 7.4630489835062175 9.641031223685452
Sb 5.5922261333313745 5.64347022355783 10.211994943941612
Sb 12.781795443259414 5.54424149229882 6.921862029283001
Sb 6.775358432066912 11.107139265127461 9.598847940453233
Sb 6.00759094489175 13.287601267805835 7.873417674779049
Sb 12.78541281640635 13.797401609965767 10.051475422967219
Sb 8.384601305754694 6.305425331804223 10.114878626241195
Sb 11.775772563939514 7.82997613999708 8.397094994715212
Sb 9.199057997175641 3.5494119882605015 9.62594381453059
Sb 14.559745130627926 9.790417336587879 11.387948483599711
Sb 10.83274126216941 11.747023353069405 9.422275846104483
Sb 3.2404669665443278 9.577533474541132 11.052610645834719
Sb 7.348102191276819 4.653427783840395 12.307987704604361
Sb 12.026812452534651 3.7444315376831474 9.06401704418474
Sb 4.7565396043437955 12.010600166423723 11.523597843121067
Sb 12.01550414772312 6.158056137825524 10.738537129609725
Sb 9.16942025912511 7.888523912206305 13.191967341247668
Sb 11.61331145679323 12.767360101604696 12.472620149680278
Sb 11.771381763213855 9.922328114279571 12.133668252990086
Sb 5.8291525479131545 8.609810309278666 12.125050110318645
Sb 8.596841469046753 10.763617088687203 12.85477409553295
Sb 6.674438435739987 6.76445838953572 14.213429596199715
Sb 5.914946022352383 10.805810398236076 13.950042147748793
Sb 10.507605685951576 9.927096321029573 14.854033019332576
