49
Energy = -190.29719207 eV
Sb 8.215668408546293 5.925884493938854 3.197487543433256
Sb 8.526813143149909 11.64376855204019 3.250445703583726
Sb 6.20096560465531 9.979797611268076 3.6059352990606564
Sb 10.685256142928527 7.263279536845712 2.6307388197016923
Sb 7.761188876459515 7.990180323472514 5.144070622677929
Sb 10.466653239209542 9.73884633388613 4.389096143587502
Sb 12.74207511660017 5.74375154361854 3.8817672844344435
Sb 13.403745956175758 10.134583351017447 4.239341871334507
Sb 8.137075100568525 12.59475425021945 6.009987792440357
Sb 2.942330771674057 9.399701374954805 5.681433047646251
Sb 8.988979511199714 3.7560873212999946 4.939898190287373
Sb 5.9211621305503614 10.65400282594395 6.472581274534954
Sb 10.779257045774234 7.302206122703748 6.603631328505476
Sb 13.608557406465305 7.829737011443586 5.950016972712726
Sb 11.460152146734373 4.544781181564269 6.1537381851124
Sb 6.144223994052021 6.807841416372326 7.290154347771978
Sb 3.091168343259211 6.819895693249293 6.775362811636769
Sb 1.9728042135456012 11.169458037407928 7.774184346279408
Sb 4.310184489232454 12.872768158583881 7.488156965226688
Sb 7.057357491231338 4.037614905573251 7.065156525025262
Sb 9.95392085074317 10.761027402085848 7.276975055300792
Sb 7.7650498236959375 8.85126401624757 8.77196758162985
Sb 13.939169333310664 10.809478594978982 6.947372711020952
Sb 3.793844453038008 9.537870059143257 9.191920650190134
Sb 10.42383815295398 7.706373603274453 9.495142987035884
Sb 11.960309004260218 12.830558748476374 7.220129062765014
Sb 13.797869001054277 8.463395974496976 10.902544576565179
Sb 5.44220275257831 12.97977637416394 10.19943517130928
Sb 11.106516814884102 4.863483806435202 9.811593854284054
Sb 9.663122378673195 14.177360165554127 10.833514362647014
Sb 8.851704402964963 3.1945997991106507 9.152443888779603
Sb 6.282673700773876 8.650128241708382 11.511566186697774
Sb 2.285770594116894 7.131126036382841 9.554730159247725
Sb 8.117523587925477 12.05169444374563 9.565216127008616
Sb 4.897834700138914 6.235332611929512 10.51688874418166
Sb 8.901129585411002 6.6404752886272265 12.198797561935786
Sb 12.262194769885701 13.247086474475134 10.065913285438281
Sb 11.841691990123792 10.640723225377902 11.303829216438775
Sb 7.626525036816766 4.1064587660442005 11.614958601312745
Sb 4.297983659923348 10.784037330843576 11.735150559044609
Sb 14.867160226074677 9.2263737923698 13.391527796876314
Sb 9.786957162127784 12.847349231825834 13.438608649177073
Sb 10.419746185642563 4.233497127627083 12.588512039074335
Sb 6.61936908500837 7.190712800061707 14.072942033444214
Sb 12.727543965673398 7.2926211326234105 13.297471112581501
Sb 9.04702224614863 10.411301564531364 12.236155984995632
Sb 4.559246558184435 5.441985925821838 13.243923690987224
Sb 12.62479907320224 11.373870456984998 13.956975288792705
Sb 10.799105112046828 9.18854029904268 14.438051325639758
