40
Energy = -155.26638343 eV
Sb 8.197841973930434 11.884718621325746 1.9347912797875124
Sb 7.661907471505718 9.215338806026255 3.0103129822081756
Sb 5.6085143285148655 6.004100641291215 3.6605471200833977
Sb 6.170816600716641 13.590895794965235 3.0827411181715956
Sb 9.773235844217634 2.352916414968477 4.0241780515879615
Sb 4.795847716374491 8.789834139357104 3.0721292040946575
Sb 9.669226644358659 10.903843443173628 4.200681613543526
Sb 4.607986103931922 11.799598132557687 4.650002732035695
Sb 7.484426730345216 3.075114415638391 5.760869109873501
Sb 7.717285835912379 14.775237386593108 5.181889883868689
Sb 3.856971553415159 6.00656708101158 5.970336114522635
Sb 9.209644577504465 15.263832811972645 5.0466963695462885
Sb 3.2941589578603017 13.958092622723154 5.982242964422307
Sb 8.787075459999464 12.437888963109332 6.456943240112548
Sb 6.468912092856769 7.236192979704776 6.112765964556621
Sb 5.6431529168216334 15.263832811972645 7.136061131744304
Sb 2.7514420412186995 8.559274498998759 5.137448345973054
Sb 11.719622357805822 0.9153887490917254 5.563484143397627
Sb 8.100613132691297 0.907129936305664 7.555119560678078
Sb 6.384245432409319 10.972576425761474 6.811800452639298
Sb 10.579576978659903 2.3198126911642016 7.922307657555101
Sb 8.027370708538461 5.27431455842352 7.5944423705562905
Sb 12.134596302651827 5.703360256937877 9.028505406814544
Sb 8.324239857473577 3.1089203978014264 10.105336782822
Sb 2.7199179228402057 9.544589093185952 7.830474190391904
Sb 2.803359400374 12.33473411465373 8.370891793827136
Sb 5.804389833395197 4.199848940612816 9.093723920045198
Sb 8.489879659979957 8.725031169194382 9.366882165089482
Sb 5.72736717286075 12.848651946387923 8.855917481705823
Sb 8.000976198132282 11.300710922671547 10.468158010277818
Sb 11.494764841666262 0.9096909901832766 10.341390388957135
Sb 9.337531367715423 1.3220790860093452 12.103767793587483
Sb 10.865871081493058 7.130286288996722 11.164093318398889
Sb 13.601497347907696 6.443418623859549 11.38094796307888
Sb 12.15687708011386 3.8020570415367603 11.188466466233033
Sb 7.235059080529112 7.638388995565835 11.78624635103415
Sb 5.330973478361822 8.67232851702665 9.017102285277431
Sb 9.563777600008462 4.507813597004633 12.302636296322904
Sb 4.855785746294505 6.36581356568003 10.745495099726956
Sb 5.631599315251846 10.08192548590565 11.570511622089585
