44
Energy = -171.35362007 eV
Sb 5.234060211937513 3.8234360847826467 11.529090615468002
Sb 5.726279822475663 6.0940290507625345 9.816249391856397
Sb 8.143488752619469 4.109066848240487 11.3206387948932
Sb 3.610641580798177 7.973883378929965 9.030594377138453
Sb 2.01647125570488 3.2289389425401347 9.828294537968304
Sb 7.42350648855972 6.868214301861372 12.01467290328518
Sb 4.539176900743801 1.982178039760428 9.403927486666223
Sb 2.6233020276542143 5.4826549468906345 7.779272850347994
Sb 1.487006834184353 8.78899679108383 5.270435770299308
Sb 9.32123005890319 8.497276019041617 10.537780253776438
Sb 8.247688986600709 4.6927473223053555 8.42279338846885
Sb 0.8375202049270274 2.080986147057686 7.485417632098225
Sb 5.896791519442967 8.104200994021397 7.1622305438665785
Sb 14.1331436741627 4.793331590943752 7.155135609754851
Sb 4.938551883659944 3.6422285679371265 7.047850605490077
Sb 7.023584594556303 9.79525362993034 9.29733160564389
Sb 10.514550980806355 6.071967534272043 9.48449915095632
Sb 13.26747133121547 7.5692187105534305 4.563241836063971
Sb 0.5462814217651554 8.897426057974997 2.5406594093082147
Sb 3.403166300182789 6.668002693247287 5.1686272807045635
Sb 11.92380195278708 9.811097063787322 8.001710755076155
Sb 5.864833639674352 10.650578621208627 5.672473190878933
Sb 8.191368460447922 11.45857733560508 7.213227988684232
Sb 13.267471331215466 10.08414203969635 5.435419283615799
Sb 9.532511416916817 8.997932561435638 6.580929583662611
Sb 3.024112466964956 2.182101719280101 5.587505099758069
Sb 8.07247850017573 5.804741823499882 5.245702664829457
Sb 4.454405003747972 9.289169850154892 2.6758566912719886
Sb 13.853450014276518 4.774458817386972 4.312217099403539
Sb 7.246791800239679 10.064115681664173 3.1730630704424674
Sb 9.788191244720117 2.28789065315253 6.9660199360095945
Sb 12.656955723553576 7.0489159123114025 7.757356298534233
Sb 1.6724233431382607 6.662508397466551 1.161650571303935
Sb 5.383682071272218 6.52042827891097 2.5805449729592294
Sb 10.693937364277438 4.48682972533706 5.2491206358533775
Sb 7.321969008303444 1.5639251050503473 5.673244173336453
Sb 10.84428847133452 9.34994875616442 4.0322265674395705
Sb 2.3028380885309843 4.700898526779389 3.419652370733483
Sb 8.203751343188173 7.338762710484692 2.737241751858108
Sb 4.2109152705635 7.744901366948467 0.2568920140662272
Sb 7.21299807185123 3.5576241602957097 3.5834533723486537
Sb 12.625489214984938 7.232141869051507 4.8490033744135985
Sb 9.861204201315163 0.6310123461491949 4.450331823333098
Sb 9.987972229045734 3.0099931015426167 2.8509087506687183
