46
Energy = -178.54803056 eV
Sb 10.480690845262217 9.624934858907627 8.901252926365089
Sb 11.843464519174807 5.85051179568993 8.493323135066257
Sb 8.2853790256009 11.567343715387448 9.009062321635591
Sb 11.18415686101259 7.561332843137157 10.796425327547961
Sb 11.289293859572794 7.639015276362325 6.23791455991563
Sb 9.743801204470016 10.657225661503565 4.0030636558585435
Sb 10.68656323344456 8.296706044750682 2.5395990190581266
Sb 7.272201836318375 8.370249708924378 13.214421394309042
Sb 7.1022627435939745 10.922802847242576 2.8279329129253146
Sb 7.925398867241513 4.555623394833301 12.282702964599931
Sb 5.468205880534965 11.041094566643812 9.454051772082673
Sb 7.858183910488827 10.487056837573174 6.300987183870087
Sb 10.041090439487679 3.569293459897865 8.612640767546436
Sb 8.713924042347715 7.933951225366783 7.377742158285488
Sb 10.682970143283782 5.799975901758599 4.059746897078691
Sb 6.737880973524872 9.154989219356331 0.5717216491405713
Sb 3.7398844763531587 11.180748835049084 4.355840885451442
Sb 9.157740708867166 3.068457415246463 5.9244427945501945
Sb 5.012565582382808 9.319046400201453 11.709902840190887
Sb 7.875167465429432 6.454052409146508 4.0752861864065
Sb 8.365940220833568 7.031121340457386 10.875285720436501
Sb 8.453931512024647 6.952555196865787 1.2943267913464434
Sb 5.576994431471476 5.983216781166348 13.299912161379392
Sb 4.841277749251495 3.1893693601303696 7.534283942262418
Sb 4.30960681624169 8.82311867396689 7.879009010677412
Sb 6.613795395885253 3.778079092804418 3.9257138874638406
Sb 7.471030189152437 1.202799658166257 2.743639748818062
Sb 7.294758600030134 4.139225201649169 9.4211497675013
Sb 2.330515489747727 7.9256697344219225 9.783501259570146
Sb 4.755470254827752 7.662825179688588 2.0882982736940114
Sb 4.8159235330918415 6.5922603280454615 10.51884485003754
Sb 8.208027142844818 0.6318503498802951 7.008983529537282
Sb 5.695829068565951 9.033828496889376 4.540806864941996
Sb 2.0979515928044474 10.110392345618433 6.515094413001283
Sb 3.651096792229385 6.078230624215038 5.554830171328208
Sb 5.35544752139681 4.42825517885606 1.3033829323745847
Sb 6.356656497294947 1.3833159712990977 9.141983000368809
Sb 6.442116442763827 12.499311713106211 4.917776753018967
Sb 2.431710613560273 9.392176975656003 2.446997480349137
Sb 1.6975363325358612 5.868335506323282 7.759718078058479
Sb 3.085524826616024 4.0501782152395025 9.465428688872674
Sb 2.5901150601407 3.9328284101532676 1.712325498619726
Sb 4.3295146926913715 1.9704461619688285 4.585286994706077
Sb 1.474829843915729 7.847488921716145 4.7345557718038584
Sb 4.6142342745252884 1.579966345303908 1.6907298750234945
Sb 2.026367799512566 3.9539904742776275 4.444891037837231
