45
Energy = -174.57119803 eV
Sb 11.646404650736931 12.183568924829222 4.043562304010967
Sb 5.339162946713932 9.77055726154392 4.143063534831228
Sb 11.518452457255602 3.065603656293895 4.178123379295105
Sb 15.01181926251191 8.670953642218393 5.614432590867923
Sb 9.714426425911565 9.973412223637864 3.682564197593892
Sb 9.49806625840739 4.9311227395319195 5.002245601576531
Sb 12.955771653130201 7.288081089011588 4.162477222025945
Sb 7.247130067909605 7.760127713294848 4.846617099599081
Sb 7.498452784014971 11.67401528160364 4.474128746398206
Sb 13.32167958546532 4.843914651284037 5.659655421806773
Sb 6.509977354354997 5.561060585581994 6.993323891266855
Sb 10.529618411823947 2.9964199602368145 6.8891218961755705
Sb 4.061065022274775 8.174149559013106 8.715475662621307
Sb 10.301317863553646 12.94526860015058 6.435986199878563
Sb 6.918011098094502 3.556423286015288 4.949943722061869
Sb 3.6520649862894405 5.569951531105167 7.528903598255945
Sb 12.907588244341918 10.431595204411027 6.574452274365605
Sb 6.640533842816195 9.912207819266678 6.716288249403439
Sb 9.943218631605696 9.964530901319662 6.53218253638258
Sb 12.605462362317455 12.817950932543967 8.24223987637279
Sb 7.213585213344259 14.038015944629976 8.647811066047266
Sb 11.529746420919697 6.89913274578571 6.760305477984435
Sb 7.891338540838975 1.7559220625443337 7.03351850831783
Sb 2.0368110632947003 7.346147615285889 10.58582479969786
Sb 4.491626098944107 5.8079699148937305 10.29027232666026
Sb 9.832686294447527 14.677355714397875 9.603589670598431
Sb 13.753773681777336 8.097850753446872 8.21464325615279
Sb 7.3261016541670285 3.59687391392736 9.214638079756472
Sb 9.658912563984275 5.345092892665749 9.136572647437566
Sb 10.397706810953007 11.828113570590798 9.8493767099113
Sb 6.129818836480724 15.460179555825826 10.933716217593048
Sb 8.305959287153247 7.774211736293695 10.115233567691703
Sb 2.9598685791777544 9.137978370816649 12.728608847214948
Sb 8.763539455769477 15.480420645182948 12.205500401598162
Sb 6.217190780777848 12.552794181812349 10.91917334883364
Sb 5.680338353776242 9.241066235232832 11.74798756204828
Sb 11.13914284178239 8.180497736850828 10.728318703725368
Sb 10.88108950674095 5.492751808103685 11.796732583638004
Sb 10.832629774170124 12.133121666610595 12.669943690491028
Sb 8.068195669237163 12.849033557381771 13.12915853845037
Sb 8.155862048007934 6.217978722931797 12.555629753938167
Sb 4.9349170004205165 7.3104807981226365 13.768535212765467
Sb 11.18477892237808 9.340582166628588 13.354586230428254
Sb 6.417585850406704 9.706713088097159 14.514178552746852
Sb 8.863608915436028 8.125837112962325 14.598394315396735
