41
Energy = -160.32824107 eV
Sb 5.8861744857968175 9.209572232671269 3.4064307104743423
Sb 11.172309513090708 11.497385696167902 3.5618624344463683
Sb 10.732921164604535 7.1901420871781285 4.037363427724605
Sb 6.701710820999481 11.965628877418972 3.8740678723512962
Sb 12.573632298419152 9.303190229234275 4.825686845003098
Sb 5.723142751191928 12.810896682597388 6.429388893389739
Sb 4.036708111407133 8.748193782133239 5.556073652918702
Sb 6.711395688423407 5.320700428422157 5.033179678109273
Sb 8.024663208300902 7.899022066605325 4.870698828670923
Sb 11.540371659753974 9.856374772651874 7.463179773290919
Sb 12.613294284645969 13.444980251045104 5.0252827480841535
Sb 11.189016856148863 5.219978088214164 6.106834422856129
Sb 5.188311077531303 10.336726580039581 7.666416202083519
Sb 8.88379598513036 13.275986893904134 7.281663665238468
Sb 5.296284648996949 6.645262609666245 7.180387349807137
Sb 13.916623536051356 6.832720065688385 9.010771012267265
Sb 8.97716565077479 11.096359739556247 5.390868412416752
Sb 11.896311499959863 12.748001832498232 7.626511373254887
Sb 8.623763007430252 3.9349513736408244 6.705062857589357
Sb 7.511036108083673 8.603780553550056 7.629358532153238
Sb 13.806200753620564 9.703324454811318 9.297619621867817
Sb 11.733110111812847 4.208288259622057 10.077306787399982
Sb 11.034937379747584 6.617984943145771 8.623087706239536
Sb 3.705162516755855 9.655360191869558 11.092187956726905
Sb 7.460504506743977 4.534589843844952 9.310297465621675
Sb 8.567598885826104 11.497634251510567 9.587508412895687
Sb 5.0814837263167165 7.180614729842527 10.843273359674178
Sb 13.52386297628598 5.792056312001919 11.708353058510243
Sb 9.262221652112958 3.4555775823459016 11.33343998066685
Sb 7.985458621326715 7.1963921520502785 10.505700656092694
Sb 10.943643135973005 12.181159091171482 11.13872776610008
Sb 11.412464365402256 9.319192375571642 10.840351036779019
Sb 7.254962636779608 13.125938481595647 11.635494060884605
Sb 12.514041542385137 8.097795893649188 13.18156389226732
Sb 4.996784632382049 11.659941616217814 12.751238970684138
Sb 8.216815350606822 5.633810668205149 12.941386183151137
Sb 9.207896638612903 12.057668059347764 13.483984979139128
Sb 4.145602795777435 7.913973409214904 13.446158006454736
Sb 8.313173590830393 9.368373107831877 12.886232255488785
Sb 6.07514122243027 9.752486449717175 14.621929271971029
Sb 9.942529639968091 7.490212321988421 14.39529891769388
