43
Energy = -165.13208199 eV
Sb 10.35804272271858 7.64351676187139 2.9824094088904887
Sb 3.4178028394488496 7.291463292050172 3.1045488739572584
Sb 7.791675115845378 6.354119434182168 3.3022092271805703
Sb 5.110949657129709 9.61227457691813 3.29711806233381
Sb 9.649701095744977 9.477592644839952 5.166554787028047
Sb 8.122372797974622 12.091913289323408 4.8556765012153615
Sb 11.305352800223947 6.927571892218892 5.585679673170467
Sb 1.4725674219760008 7.4030124357245555 5.182949400446031
Sb 12.027641767998931 11.209738601464643 5.556897016579995
Sb 7.122461204664124 4.795052154700139 5.692061159260493
Sb 6.049045730374933 2.25124292883693 4.853347718410424
Sb 3.4514553491414404 3.5047807327463922 4.952272650801457
Sb 13.612964453026402 8.511776659082487 5.644818160222282
Sb 4.344988416178003 9.479047079091933 7.713276506378877
Sb 9.207378614558639 4.9253350932714515 7.72971119213198
Sb 6.731429108197802 8.255877416836338 5.2590270558357775
Sb 3.9923150058686634 11.202680135219275 5.410242816748533
Sb 1.7054050641416085 9.920744337771955 6.553481913470504
Sb 12.764734471996878 8.558751740662126 8.396187413303235
Sb 10.366990554625541 13.471166662494264 5.776346539995305
Sb 4.15306366553462 6.271930174159494 5.750335996247488
Sb 7.345885794624486 6.892559771838824 8.729274884902479
Sb 13.006430652276297 11.432261843326211 8.615033939614833
Sb 14.949235854777955 9.681932084939117 9.935837574231329
Sb 7.71730126527451 11.117498368357019 7.558913274445284
Sb 8.822451214070849 13.422386239181968 8.884902881295934
Sb 9.346311217793845 8.95237741093508 10.384691100536152
Sb 11.165005533500882 12.802589615747198 10.436189922270502
Sb 5.202662450508475 12.197236990973654 8.45276252629106
Sb 4.607422084407704 2.421165428910255 7.332314529941826
Sb 5.049133354114859 4.9257763230286375 8.790409310352773
Sb 7.556981558815604 4.358407138399059 10.095835903581392
Sb 6.757495621025714 12.803020213807704 10.883398707799309
Sb 13.074478229685212 8.247914395608833 11.783257055615303
Sb 10.040949282801073 6.467170768701153 11.807383949045194
Sb 10.447199060507083 10.784347087553193 12.342977241323835
Sb 7.592618612169325 10.36396676135203 12.178217725785766
Sb 7.665197305491842 6.006820773159533 13.49078579321005
Sb 14.254753268177469 6.397975754008242 13.674777130364612
Sb 13.219479679359027 8.926576430312714 14.574997225971764
Sb 11.429906319512028 6.701088958954593 14.386174543306415
Sb 7.550989253489635 8.284681101087816 15.215927906637626
Sb 8.885449321045202 6.098333287148539 16.126459590666773
