49
Energy = -187.88015061 eV
Sb 10.737703924926345 5.822766212520626 1.6803777082633402
Sb 9.239829123621423 10.130361787115415 2.9442838021960624
Sb 9.010127459311104 7.286751619419321 3.537744713590793
Sb 6.995084133893034 3.66818352582518 5.724603133687968
Sb 5.85091358707405 6.6080664994259015 4.159779650773678
Sb 9.548836323781574 3.9395581158028654 4.02910046285781
Sb 13.067961382754543 5.854669937691979 3.1660821587615646
Sb 12.051685815366586 10.597723704917865 3.656305698212451
Sb 3.839207834605985 8.556027067775906 4.502587825528241
Sb 10.37094285781052 7.9771125828914675 6.049140800492501
Sb 7.980059090732429 11.448219200943766 5.151684582306417
Sb 13.013182468357616 8.139951763800765 4.963470255893878
Sb 10.578381775513257 1.6006487835111043 5.451698891043028
Sb 6.99313644071997 6.479261025233419 6.772518488626616
Sb 11.893107564085408 4.259830181799187 5.624021026182236
Sb 4.595545835641116 5.088239379141711 7.369690697322041
Sb 5.414057858964378 9.403521506160022 6.8987082676028875
Sb 11.508027638861583 13.785286949685403 7.327688435080646
Sb 8.81875980510953 14.11405013586337 8.232112510873817
Sb 3.0368173709393367 7.691040448409942 7.27796510065133
Sb 10.645724992470026 11.263332670194458 6.145100917688169
Sb 9.464501469047672 16.097225246429907 10.158682360968932
Sb 9.099299257701574 2.9976390592074167 7.602585603315564
Sb 10.586740058299931 5.737077880102055 7.924422505163669
Sb 12.361688443480084 9.29215962731266 8.635701500559572
Sb 12.90708569861548 12.170067532870474 9.289556081418993
Sb 7.711650267784225 1.9711677203492692 10.097297027192333
Sb 4.365205423498051 11.057599768137868 9.15861273088659
Sb 5.915746948744275 4.325751697183004 9.932616378470742
Sb 2.2610100219177993 9.138545059415772 9.701116611058115
Sb 8.85855716552204 11.658276428884594 9.689764279537274
Sb 11.227503938529978 14.881222531656935 12.086939248359
Sb 12.416260641846225 5.767565501795098 10.280861459328952
Sb 8.152190494531606 6.214385447808635 10.18618180376329
Sb 6.399939222900284 9.106415726623155 9.943017621820486
Sb 11.074179275872329 12.063457816726432 11.475339993398734
Sb 6.796446001771922 12.566717161397868 11.574480378075151
Sb 14.06864106479303 8.115523591538386 10.670445386327732
Sb 9.224133678250245 3.9003688195293456 11.573346810623796
Sb 4.687597483478108 5.32354073056665 12.427327025362287
Sb 11.198726510785153 8.301594218798353 11.08940191957179
Sb 4.269105473504859 8.049634018519319 11.555334242420319
Sb 7.197710430629319 15.548249986318925 11.850069047742041
Sb 8.192767649170857 9.076610687514536 13.760358360893207
Sb 7.410504468655906 5.920781230193365 13.091234050787344
Sb 8.600004830113567 12.245861337350147 13.90475601080563
Sb 5.724674639203542 10.288903039641816 13.329194970869825
Sb 9.051986509629039 15.24925454186664 13.976989989489864
Sb 7.099812634914524 10.732563481862229 15.882464461883542
