47
Energy = -182.24120108 eV
Sb 8.25539431701446 6.727140938992779 2.406815589763645
Sb 9.97089533819477 10.492155621573046 3.1333272675532386
Sb 7.32385518876602 9.42832095738806 2.43167911790914
Sb 5.217128995809327 9.67901236896186 4.430451571349213
Sb 6.459278595754733 5.211615123244057 4.011743252396987
Sb 10.01820003987948 8.986448833438748 5.542375921283043
Sb 10.546587409513872 6.351834658711974 4.464401016433956
Sb 9.890885239773224 12.821591960048915 4.866844577116513
Sb 4.327332032130922 6.947833369005756 4.862047816179702
Sb 7.074320492461288 12.571841846776078 4.867547369871267
Sb 7.040369960339448 10.235615701435279 6.621019689293562
Sb 12.444212734784642 10.193557225552297 6.764640060248309
Sb 13.8376843202535 7.66788176608804 7.3611214969972085
Sb 8.77489063945897 3.188797563191451 7.120384655389909
Sb 11.295210655872735 6.3643644115989915 7.420389083682774
Sb 8.240559000574802 5.841079660593156 6.219998912463039
Sb 13.543723556127619 13.645386750397632 8.289588541306324
Sb 11.47593917570074 3.511665430779488 7.7048014356287675
Sb 11.261672016596796 15.091363865894026 7.406283965756088
Sb 12.715459365467009 15.95168036374076 9.724611545451413
Sb 4.947390606025807 7.4636014464307765 7.654129330914991
Sb 6.478862179079233 12.928493219174642 7.669917120806546
Sb 2.9609128724288256 5.914702536990365 9.039474393782479
Sb 10.656013500218332 10.403329171858385 9.058457155680896
Sb 9.360103055678218 12.905633207325193 8.109817873968884
Sb 5.724604997657908 5.01986109956473 9.00195157582808
Sb 11.457572728931181 14.018593321175805 11.631355293848967
Sb 4.931909178058502 9.74819767068256 10.55885458598744
Sb 10.962056557141295 7.441939566206305 10.635926003567379
Sb 11.346367900620598 4.479784128039225 10.5297982166626
Sb 13.781772057681899 8.106359361774652 10.247589660150476
Sb 8.746930395372225 14.034746387393566 10.843877432197399
Sb 7.3971390282648555 6.639350356569944 10.925670698715777
Sb 3.761028224481479 7.279440240738784 11.466843021431359
Sb 5.383234889837343 9.72474513126056 13.41794484869324
Sb 8.775832648353756 4.325605825375751 12.00696621666564
Sb 13.895085148651445 5.507244419556244 11.646813915456082
Sb 9.154548622446882 9.800766597948959 12.30747175362876
Sb 12.748303242880324 11.590607960925182 10.62467654512153
Sb 2.68428476569142 9.80504480952329 12.373878109055724
Sb 7.993195342371369 12.391213684494401 13.12372079893162
Sb 6.201479651751025 6.860272439975179 13.5786133334056
Sb 12.224175224650049 7.205523207948286 13.314960305748553
Sb 8.581865176149623 8.149595352601763 14.672953752173402
Sb 11.684239663522058 10.654791288237027 13.40846110781664
Sb 9.989336276347597 5.640719540292694 14.295673577711735
Sb 10.558791965906243 13.151284585196496 14.304765460646871
