48
Energy = -186.76400116 eV
Sb 5.852858563448068 13.758488895529664 1.492925617611603
Sb 8.946740911997802 8.24847643230153 3.0916181205454
Sb 4.295640448470521 11.49974738854042 0.588282728799131
Sb 7.411994284194987 10.694867856320103 2.833732124833516
Sb 4.43851610697621 13.993390444149254 3.990253396563713
Sb 7.182118339936988 5.917472217428691 3.765612379707114
Sb 4.726692614322415 9.699702052249117 2.807246286627632
Sb 8.378640828531447 9.797936340054388 5.435256601439742
Sb 2.9876121769022044 13.917458382312848 1.4810684337966167
Sb 5.017772346042194 3.6953905619527063 4.9209776740040585
Sb 5.315542404179763 10.852915373885374 6.9186249250611525
Sb 3.4652892769839636 11.413051661236546 4.709260509175859
Sb 9.551317943627856 12.511851642565668 8.075231819317468
Sb 6.850288907086882 13.290165033437782 7.163630209201342
Sb 10.789596352746674 11.380679289793143 5.663332149582659
Sb 9.171121180329164 6.002110088860668 5.850702920294732
Sb 4.490977152627223 5.157839334856444 7.32668594090003
Sb 6.552766893372441 7.055428194409344 6.390002785455747
Sb 14.074052882601793 6.042701518274396 7.823243447119886
Sb 11.449933565548411 5.568817984660851 8.969972356347007
Sb 9.730798814411683 3.6325694157452606 7.45117771637568
Sb 14.308816210093484 8.900312459580748 8.218164565085845
Sb 6.984055887159724 2.1944482585808385 6.135808981386464
Sb 3.4810155764291553 11.61286618504036 9.064409277149702
Sb 11.611778174906368 8.917851001640486 7.087734440935804
Sb 15.117716714879691 4.660428861579778 10.204417532430517
Sb 4.104551143448768 8.953587402200123 10.046877146997947
Sb 5.591726536540185 13.503316396439812 9.781294133311237
Sb 12.638947705029244 3.1792544289651588 10.016416838652786
Sb 8.064439218826156 4.642759131013797 9.566657251339935
Sb 5.8497555016239895 2.980290906435997 8.647368364425933
Sb 6.871307023767376 9.300558433793862 9.234268345326125
Sb 10.11718268099348 9.874164854916707 9.380506770798617
Sb 13.997633766989244 9.246133044906596 11.081433218653606
Sb 7.496781907643459 11.635972943988511 10.827700333586366
Sb 11.501025971539109 7.835481154385298 11.497771814828505
Sb 8.206689302523213 7.5261805135998925 11.412568579095266
Sb 14.824558103189426 6.358908546915385 12.473318067636827
Sb 11.583111319486745 3.2737300180224373 12.663678639380096
Sb 4.406104964337685 8.84858714726783 12.9050522193857
Sb 8.726697709446222 3.1659658782998017 11.998790703993256
Sb 5.723984618918923 6.315798195081654 12.171476774262995
Sb 11.885563718108697 11.445515826283321 11.012591482790999
Sb 6.313964131250663 10.99112812631969 13.340539684356697
Sb 8.389664061787295 9.085936296512173 13.862051919482681
Sb 11.11996594872492 10.006155011362814 13.433242571069611
Sb 12.25551927818054 5.904499577624703 13.576546073487416
Sb 8.158409860230288 5.520348321071882 13.621715157781336
