40
Energy = -156.02353771 eV
Sb 8.00150838607503 7.860992607449796 2.0622990635793124
Sb 10.9011787061205 7.537148889317163 2.187209380296677
Sb 8.494752698558317 9.533680430819647 4.319904489202102
Sb 10.865253708281985 10.35742980863737 2.823666844466402
Sb 5.7704661536553665 10.533064836882088 4.517829115215244
Sb 6.9536668643030985 5.903152174084048 3.8974762385454795
Sb 12.40143701003943 10.555635869149821 5.270847202758722
Sb 11.15380870756231 6.063258018938438 4.653617326900782
Sb 4.859303376833795 7.753077866495151 4.812556094012423
Sb 8.708110412441306 6.80226916531429 6.014943853314968
Sb 13.06760374342238 7.798742177236837 5.9080133980676575
Sb 6.439404355094597 10.76548432479543 7.367453654705261
Sb 10.191778733170432 10.328916801454522 7.1146803396741145
Sb 6.484951878821888 2.028068934936618 7.043426107468602
Sb 9.53590464194255 3.4849267363598373 9.404856133646463
Sb 3.0612729396050216 8.738887767673052 8.230311875311656
Sb 7.576355388301776 1.3545007065033283 9.633553433825153
Sb 11.417077819622374 14.668050095400007 8.717635261719314
Sb 5.807393302028692 7.878655231262597 7.585020507557913
Sb 4.216885503268157 11.197031655227029 9.250940855986574
Sb 9.226839062030614 12.970942449152236 7.729022655335885
Sb 7.528524853132308 4.68185375639104 7.728102275661923
Sb 6.7497959868724555 6.2298384001276705 10.743064029694377
Sb 12.57466316461025 7.506052010230903 8.787548773128451
Sb 4.553358094276818 5.308042718509121 9.101075632974778
Sb 5.995671105874921 9.338935421492783 10.661143644152467
Sb 13.493425809380833 13.11175346622398 10.000638454299033
Sb 4.874746561594694 2.373662052436656 9.418844707406485
Sb 12.337844730852455 10.447125223329948 9.077399240266505
Sb 3.885676737280461 8.52253598473607 12.421986250120408
Sb 9.805156521086571 7.726053605205464 9.560464735911932
Sb 9.893019586814523 14.536957869061428 11.198716487136995
Sb 2.4557386920545596 6.96679622056799 10.444290694665966
Sb 8.414609341198338 12.118506739539324 10.333046006356353
Sb 11.952911166338275 12.87291616591063 12.347412900162745
Sb 7.902731976452525 8.617303600395744 13.128443869335623
Sb 10.496450727476908 10.295027624018038 11.266652930383795
Sb 8.547402842767783 4.327167047149352 11.982866939048304
Sb 5.832970441868609 6.624227955139801 13.459489322662394
Sb 10.069878368556584 6.780857692114504 12.293079374709189
