47
Energy = -183.07000008 eV
Sb 6.886656828606857 6.676983069589168 3.4517926671891037
Sb 7.040507808932093 10.414108148496778 5.023027669610618
Sb 9.703805558606751 7.501114647221275 3.5701275687930365
Sb 8.966130233831484 10.220811767484728 2.9265045224284028
Sb 10.824978248657311 12.23811916195432 3.854797846551152
Sb 5.071977441711246 8.928820296630201 3.5441968046959262
Sb 8.52824264113648 4.394309608213563 5.28788012858582
Sb 10.900866460202593 7.098790838412262 6.235886941490496
Sb 6.385402496087368 13.197040105416722 4.735005206413093
Sb 3.91903004052079 4.960687323502124 5.419745562338833
Sb 14.504031970099868 11.9511717469553 6.75270447628098
Sb 9.089963050023183 13.701333473652483 5.698117100749796
Sb 12.240439408019848 13.440887980319134 7.712493134695821
Sb 11.813286347358705 10.98314404609417 6.253523798431955
Sb 7.606437464647435 1.942672597899303 6.334281839214692
Sb 11.411210273368827 4.371967790668071 5.350533074690154
Sb 5.58464769341622 7.292244311748637 5.966731501883383
Sb 4.807839976257447 2.5824137047796314 6.802210859925491
Sb 8.597199628568552 6.252418143443351 7.884406715433797
Sb 1.6415838894075157 5.269516433554216 7.177042601968201
Sb 5.730421030749829 12.59073378857361 7.532354186441973
Sb 15.013288452173432 10.145304944341483 8.971564709787746
Sb 12.304419298871382 9.070033559219759 9.10574440102173
Sb 10.404171376533945 6.489308265577165 10.321222374809476
Sb 2.438367363519357 6.536629200996502 9.65416442383742
Sb 8.55594441968829 11.81260974219226 7.864211264522761
Sb 5.252776960699181 6.081150187899474 9.116658927841238
Sb 2.083482866934457 3.6743240055492286 9.545205186966095
Sb 8.691201692188839 3.3537397522079875 8.721038168494383
Sb 11.340076414295154 2.802990877973541 7.775299389318463
Sb 6.202056789804606 14.969626468670034 9.115965240519634
Sb 4.97487535340973 3.2612285167295725 9.582360408036239
Sb 5.260629851811372 13.616849478817821 11.548282705470234
Sb 11.475887481688629 11.771393207107717 9.935943491235852
Sb 12.239078465764132 4.062894093107339 10.219536828522882
Sb 13.99253531535661 11.49457896531103 11.332641209605477
Sb 8.593722021131919 5.440121108279872 12.309288579094991
Sb 8.86426100785532 14.003035132413004 9.728891746637656
Sb 6.843367904104777 7.499517916092567 11.094501379829698
Sb 10.003947594775555 2.7907050393086688 11.325252589029601
Sb 6.168804846738487 7.9376855684828636 13.864908081044508
Sb 12.734801915497057 8.875250526761143 11.97338779906518
Sb 5.690160820710029 10.889452792760096 10.662110112655636
Sb 5.562803887237449 10.747117531084426 13.544687222842526
Sb 9.076384339392323 7.834950411920011 14.082215595208039
Sb 7.80509836709543 12.242015351793867 12.031108377109177
Sb 9.832377104290913 9.247378772571858 11.719625981459775
