41
Energy = -158.63094053 eV
Sb 6.072246592432257 10.330504690229503 12.994343276113684
Sb 8.791672995858645 12.244695445168148 11.845046142468831
Sb 10.813759568402942 10.34111181434299 12.999186375463255
Sb 10.923952765847588 13.76538773256984 10.50861817078788
Sb 6.672966277083957 13.803394226169008 10.059460759043036
Sb 4.73526546541363 9.634691994303353 10.55694453203691
Sb 7.027358834244058 7.639585246515732 12.731189623772414
Sb 9.781417501834273 7.765736408302602 13.735134198773064
Sb 13.162920041327002 12.092438151237019 9.928367319742184
Sb 7.596419180720524 9.501247220086814 10.579347085167566
Sb 11.943256858495472 9.46734907037576 10.51965032152282
Sb 5.474314420235491 8.692328051936292 6.753823754557647
Sb 8.559029920203546 3.8492982291529287 12.183350440413886
Sb 7.7602361247950835 14.076894557779331 7.417050992792183
Sb 8.925120134995662 11.498643669060128 7.995091878715105
Sb 7.509981539499768 5.135903232381192 9.825051864660894
Sb 11.459838871038064 12.880737196275991 7.756424023099057
Sb 10.23916955825186 6.642777673075741 11.08302861246146
Sb 4.204813156734287 12.429381336149342 9.841348877080435
Sb 13.091295610587462 6.756505842697635 10.827475772896356
Sb 5.947071831522915 5.231170736987426 3.7755764351878978
Sb 8.60425577723034 4.064911396334298 3.519550089404054
Sb 9.524292053985663 3.7848605028736837 6.274929062455619
Sb 8.781888016463519 6.953448160232147 3.6853268832511645
Sb 6.826540755708307 11.567884632662947 3.804365284874925
Sb 5.001465897789092 9.326687446623987 3.985949710951135
Sb 5.693065673166864 5.753041275637677 6.579555502792951
Sb 8.304590952824626 1.1864136196481279 8.964082721867005
Sb 11.671304052824885 7.190547376107612 4.084659377916063
Sb 8.512171916879032 6.45894485897232 6.538843132908805
Sb 12.164343814898311 4.9946391515481245 5.925346913757814
Sb 2.920339259668964 9.776278686495147 5.9225038117276485
Sb 6.937360761774595 1.4218671156645233 11.45264062342239
Sb 5.6404271490511 13.505747249545756 5.574485718422463
Sb 8.465401697048078 9.937972954754041 5.586899100215557
Sb 5.913774409895412 2.7265484311766306 9.108671785912334
Sb 11.368978717285822 9.61942237244244 5.723370353037916
Sb 9.970607704886909 3.5925369025412617 9.699847200937002
Sb 3.4503528224114315 12.40136013024796 7.041622714142465
Sb 12.800549497997618 7.049590600238246 7.912239309001462
Sb 10.290195671710466 8.441528464481543 8.23361409927112
