48
Energy = -186.30624146 eV
Sb 8.320395595490897 10.233399160276573 3.262885012223793
Sb 6.405248764498565 15.354203362842194 3.2297622548935245
Sb 6.556644039495975 12.40321826711033 4.089888485330913
Sb 9.241897426697516 15.001084585096281 3.2947345107028614
Sb 9.434122244005769 12.442205852273903 4.791209574367983
Sb 4.043333302006066 6.548547901239737 6.469973466346541
Sb 6.457588688982362 6.771644981103252 4.9437791181868445
Sb 14.818388602860704 11.564844386149682 8.532986414176168
Sb 3.6782826112387244 8.799115254829912 8.263473323364007
Sb 4.890595807752748 10.800991234572619 5.971097475376078
Sb 6.219488789533547 15.847433075020977 6.049629023107798
Sb 12.117464476179023 11.835062971870144 7.600013486831833
Sb 15.414724968964695 8.862624355112821 7.670575108549145
Sb 8.34417846249092 12.29744204654039 7.673366872914646
Sb 4.5851911448794525 4.105266176507899 7.939116201805874
Sb 10.985874620522821 9.337621914293603 8.53026826412947
Sb 12.852480140264499 7.744094902611864 7.038130968962993
Sb 8.480538253528971 5.426886226639898 6.472679768249713
Sb 9.029553877802295 16.410011788992097 5.838496921966495
Sb 5.628960685913406 13.220699215335461 7.704763808824715
Sb 6.143985480591215 9.453076268632588 9.702222860813777
Sb 7.392892900555667 9.343099709927907 5.90303749909854
Sb 14.481052095020408 10.72046611270875 11.26890104173713
Sb 7.027917088544222 3.0376678156567336 6.931519542432713
Sb 10.027483089556274 2.450512167694632 8.325278977554674
Sb 12.27975347246311 5.804197097123745 9.095702145213476
Sb 8.110407537255277 6.8285407601536825 8.96650291936567
Sb 5.926446918679256 5.385406040522124 10.109839193121134
Sb 5.014852169834671 11.49730058433329 11.410309507642948
Sb 12.959230649140192 3.0012688053378427 8.928298699665728
Sb 9.563968496555592 4.571073805176465 10.270842234582343
Sb 11.353987214742208 13.641809782430538 9.740017324080908
Sb 9.138870083260468 14.962222860776057 8.354288937751086
Sb 4.322170091168444 7.643960342388665 10.953310793699758
Sb 9.125938938525877 11.920365263944857 10.548463875088379
Sb 6.805561066416529 13.644657000170758 10.650167879811038
Sb 9.901840247779484 1.0671106552183498 10.873332742262127
Sb 11.935905367386088 9.296535797810686 11.271016246367191
Sb 13.52881336589412 6.876708412867914 11.42129452189173
Sb 15.886434551884642 8.2746127783556 10.471960960780129
Sb 7.487579017110018 2.832214799104472 11.388237540006257
Sb 6.550837047105935 10.59786239553849 13.713254927058658
Sb 11.88430931627026 3.016018044652648 11.593494718384301
Sb 6.264261853113291 7.674381112414059 13.783117044416198
Sb 8.434853986948566 8.836088661977922 12.358613624067349
Sb 9.943414864796951 5.849509858194953 13.303512760039814
Sb 8.913372676537039 7.937221691723799 15.059199268853758
Sb 7.673621483723769 4.414427290710652 13.822145727870012
