49
Energy = -191.36738393 eV
Sb 8.055258743729324 7.482560509613422 2.474392584879747
Sb 4.8213476960485755 7.159468428747554 3.4015512536697257
Sb 2.155894555653735 5.644054234477568 4.21802954160744
Sb 10.215697333326032 9.382383104345815 2.5555190835030888
Sb 9.468240824843354 4.928234792966722 2.493209108749028
Sb 3.722631927828779 9.458673900709574 4.682185414443645
Sb 1.0381990291402394 8.183305718425409 5.004082888255812
Sb 11.5951634444415 5.263477087705406 4.428603536041177
Sb 7.234974869004788 4.034450916647149 4.160863685995529
Sb 9.463907647198507 11.384246604362481 4.5171564467043055
Sb 12.396139278293008 7.9699005962211125 3.836595157467253
Sb 6.623153765505898 11.285202478961068 3.996638864853443
Sb 15.062415854951084 3.982745083034128 4.634059055071104
Sb 3.611650742671098 5.165559740211066 6.616019305637857
Sb 3.511351584925517 2.2953909129641605 6.730129524982255
Sb 7.722379393493674 9.88729193607426 6.264565260741592
Sb 14.045555768118518 10.866723211912168 6.343171268812396
Sb 14.677492966615713 8.209082370461198 7.164538225746367
Sb 7.092403952746061 6.779765141270571 5.129954971698515
Sb 4.453736916704653 8.610171420404628 7.387220164437692
Sb 1.5955903381474146 8.478673495865445 7.7922343180061855
Sb 11.920004152891815 8.90132781065086 6.5257518598509785
Sb 8.902566994113922 3.045720271083634 6.288426710060127
Sb 9.966904719247307 5.689100619387208 6.800867992558758
Sb 0.666596491323133 1.8375074031648997 6.284194139929824
Sb 14.506515054811945 8.15252224050761 10.033055400849225
Sb 2.8227700878448916 2.7759131257322003 9.449958414431896
Sb 6.7159527991254935 12.376707105850741 7.3521233807625395
Sb 10.71595787260628 11.162538258989573 8.953043796289954
Sb 13.359699129639294 12.376178620117678 8.699087059632971
Sb 14.677492966615715 4.132585043805452 7.441581446302396
Sb 1.6101550162073421 5.537861106694611 8.654596206313249
Sb 11.378508056743913 4.793863118675645 9.197021521176415
Sb 4.527211063659658 11.171750237666464 8.82711765399304
Sb 7.167202040699914 5.936189712235532 8.578930566758363
Sb 11.656390324685098 7.698362512056229 9.860627053679616
Sb 8.673375500503932 13.238649660076053 9.416026823509421
Sb 14.15280904318347 10.82332201111955 10.966312072303664
Sb 8.523015468011943 8.48442260357157 9.192490052541272
Sb 7.457109463646931 2.3234049486050807 8.727276755674929
Sb 5.361446037854361 3.371621702486131 10.569589646853542
Sb 4.8825531940246485 6.285298221528788 10.339023981966921
Sb 8.782306317294092 4.300228836310127 10.443822621278887
Sb 11.136340616697844 11.214348841974433 11.79079960827316
Sb 6.488927985658755 10.00786544519223 10.620502407822725
Sb 11.173779213058177 8.444151354798496 12.638894759546762
Sb 8.67285589305248 7.244961315892821 11.830990390895268
Sb 7.982822187192116 12.05293578011408 11.888556775109874
Sb 5.922730065991631 7.923525928096475 12.55283676209492
