42
Energy = -163.15297086 eV
Sb 6.714006798094517 8.425408617871128 2.5661990719799497
Sb 8.98371210394536 9.346312019248735 4.07981724756987
Sb 8.60198331665998 12.116557718512762 3.2028660824924713
Sb 10.686272723907685 5.933431643465319 3.327301037632586
Sb 5.973233166069445 12.108148355561642 4.4411192435008635
Sb 11.069118345245306 3.362438654587448 4.651069742228536
Sb 4.377544304016559 9.108505656934598 4.10714981382856
Sb 5.4178451397885725 6.316639449804656 4.072770460259979
Sb 8.415947473250517 4.519313457745324 4.366853529786709
Sb 9.233962343115751 13.0055786296087 5.9286856863308826
Sb 7.5981072660957025 10.69300492880934 6.449826909623582
Sb 11.688474402453965 9.100138737296234 7.488290703721451
Sb 12.029976527996475 11.793686626096175 6.488179345294795
Sb 6.252222118699964 14.210226790327246 6.431019653532728
Sb 9.777601212195355 6.627774999369065 5.9754884996171835
Sb 3.303006384710866 7.852013439860516 7.956761540354897
Sb 11.91700127610046 4.855832175075813 6.978467742395346
Sb 5.099158767398955 3.8210231583513603 7.728046311344558
Sb 5.763975157620543 7.987003319162128 6.3941222808663625
Sb 7.457522033829218 5.618815631406495 8.404705618154853
Sb 13.43610849702447 9.064347963389555 9.808121801086267
Sb 11.745593781808125 13.249826094729173 8.868549149951457
Sb 2.8838541639838087 5.192985454707092 9.024919833661238
Sb 8.3608060142364 2.9295903304568807 7.775920093219815
Sb 6.267857331236591 2.1149582475839224 9.714424568693197
Sb 9.1008692117182 9.369774972482913 8.792836616724212
Sb 6.692486620747083 8.204636295531692 10.910520880729893
Sb 13.448890738342868 11.833265338167223 10.677193273362047
Sb 6.147898230592204 12.447834625738434 8.582066210464657
Sb 3.8434972231934363 5.151257392904264 11.711390979027836
Sb 9.042071567071106 12.187900971633477 9.434935003969107
Sb 4.260933790504069 9.544736506337275 10.106280268972446
Sb 10.929457109910043 9.094925162060632 11.3159083926848
Sb 10.858799583992424 3.3152875067707743 9.194783195993462
Sb 6.632340326808667 4.674751991908105 11.04327717865392
Sb 4.2082527842080815 7.893202538093052 12.468622704270748
Sb 8.967425849528741 12.26437232574541 12.330269112894129
Sb 11.64610668768813 11.370716611891984 12.925513653311167
Sb 10.206230237271205 5.923988060540181 10.220621197244196
Sb 7.578690879191545 9.775271475854892 13.166619708371151
Sb 9.127523792354951 5.2067956435630975 12.70328378372145
Sb 9.744045679027742 7.878131442449204 13.675612834111305
