43
Energy = -167.10263283 eV
Sb 10.344846260463575 10.127842277963982 2.8470532588218203
Sb 7.684775980664429 9.316834997798567 3.8218330178974247
Sb 6.433971489317448 11.932765964142842 4.153224538350904
Sb 10.74810174589617 12.471589390679483 4.440845562618278
Sb 8.452318070397416 12.378442304587864 6.201045910949268
Sb 8.950138252417721 6.099789625874481 4.343895756164474
Sb 5.091483781983431 8.129058213525791 5.466172535940766
Sb 4.819098258207246 5.315835058555108 6.107745780102904
Sb 13.85968015277044 7.541323930541748 5.295793603484488
Sb 9.553068308691563 4.10882438997038 6.377192082590904
Sb 8.610155978197794 9.48553763596181 6.624990346622484
Sb 7.535872732256968 6.092382512132447 6.970942062925229
Sb 4.471594885973861 11.639746115539186 6.306678470062693
Sb 2.580174067946592 9.537951556100538 5.4930993205884455
Sb 12.0686872149186 11.095150978277434 6.6927866768487165
Sb 10.883004800010688 8.25242580682787 5.086290580929944
Sb 13.815595082011033 5.945487673331581 7.680169940506785
Sb 14.739227199620055 10.134951308244705 6.0972918053658445
Sb 9.689625281589075 6.7718091764252515 10.333429525452985
Sb 10.91965266505507 6.260941771899383 7.7261248890822944
Sb 5.71563364634612 9.586622037764842 8.00018707659502
Sb 11.115564474201829 9.358128128975101 9.252303402750721
Sb 4.17914123562506 6.711962696755641 8.58056685018924
Sb 13.706089055291814 7.83564025294856 9.815569229776676
Sb 1.7909435026693523 8.32802347444513 8.044188335518314
Sb 15.253412679212536 9.999669408530032 8.950156787824621
Sb 10.559315051801557 4.888425760481697 12.318230110579073
Sb 6.663530891804958 5.5591155530436245 10.518884453697515
Sb 12.701404717210288 13.257116207976683 8.488236552044198
Sb 6.764525315743295 8.279054715507682 11.512966636241728
Sb 9.939673292423166 13.745713995154945 9.326040406233895
Sb 3.66982574661323 5.466797731997273 11.128851894168223
Sb 12.940933771326794 11.302304248141297 10.565799085090006
Sb 3.290591867159618 10.050060046630508 9.752326265714597
Sb 7.122236082385356 7.184651772196564 14.185584449212365
Sb 8.953140958311396 11.239327113120833 10.393743900042535
Sb 7.861472472424173 4.414495934690564 12.943115404518272
Sb 10.596841396211383 12.811339068323957 12.010621236271387
Sb 3.8358884862947478 8.24047918824358 11.953595093510154
Sb 8.026550389031659 9.792483923302404 15.660794466868744
Sb 10.515305622042543 10.20762349002849 14.415946513388793
Sb 10.011252944849065 7.316806608155368 14.119958899357039
Sb 10.31625475383366 8.566068516406592 16.776327846301488
