42
Energy = -162.10282292 eV
Sb 11.53260512831026 9.679500849025315 1.7396378048971681
Sb 10.260947859334607 7.243414890747907 2.246272864453774
Sb 7.221801704641164 12.77110354556332 5.3195037355376344
Sb 9.942394957269741 11.079618003077195 3.7898664979270884
Sb 4.907594409790737 10.903104309838737 4.573494253235791
Sb 9.143469309436043 8.45834202384275 4.601098380681732
Sb 6.2750631409129864 8.41876687537832 5.145483644979534
Sb 13.851207290194129 9.222976736250068 3.6549629587352053
Sb 12.530228381380965 6.843938308113798 4.446063897144996
Sb 5.768348010518062 14.66419959168638 6.939627244687729
Sb 15.166204488821368 6.770471085161941 3.521025235770463
Sb 11.195780963364308 11.467670297140275 6.430311633597457
Sb 6.973787453865095 10.368993517011871 7.254056107343604
Sb 4.091972493637228 10.490081155745871 7.304619837068325
Sb 6.901980061145612 3.292231217921666 8.173447971159284
Sb 12.264147519951747 7.011443346872552 7.365448959938078
Sb 4.924280829156608 6.6157425565561425 8.15757055968402
Sb 8.57090423623926 14.416087682790142 7.539285830892816
Sb 14.029987852566045 11.046362416678082 6.378752787400208
Sb 4.176849642837624 13.023834737192828 8.697414966610154
Sb 14.712823462728922 8.461294535554737 7.494155562074878
Sb 14.17018165551476 10.681258066619817 9.274324731940487
Sb 8.091566965748422 2.0449617617580382 10.500530760309745
Sb 7.786374295207228 6.052602214012855 8.381593655877941
Sb 8.415121969314507 12.250561022535459 9.339768107378733
Sb 4.202992275424374 3.9055990840939594 9.017864199505146
Sb 8.998342746818837 4.0366970452290305 12.482093462007866
Sb 3.9516635750601106 8.275118417263345 10.398292092021594
Sb 10.264182455884425 9.070291150201465 7.716483137376002
Sb 11.693519596589555 9.552267770823931 10.19226058147513
Sb 6.570562344145095 2.5758701333268985 12.915042828596953
Sb 7.76848557592613 6.48782994899257 11.336316291284229
Sb 5.3066165881113365 4.757274692997023 11.480805269938504
Sb 6.652592527695043 9.3969619774405 10.410821846947744
Sb 10.052009627407102 7.926797711056813 12.84896926018242
Sb 5.975223531272272 12.258906376112016 10.839300859114777
Sb 9.662307707242554 6.066143148840176 15.031396100112248
Sb 6.990199192445202 5.6163405242774855 15.502909511877325
Sb 3.625524760692002 6.648586641556398 12.791855684480852
Sb 10.327186873227967 11.761666970176071 11.454183826211759
Sb 8.306732113040649 10.164600695796866 12.9213311348699
Sb 6.160024831266177 7.634277368876866 13.80554632880829
