48
Energy = -187.32400137 eV
Sb 9.129933937234481 10.537085771743921 2.4110855338580577
Sb 9.280419227901849 6.341322904756558 4.234524140633758
Sb 11.071584104387156 9.689185873381806 4.440178267452878
Sb 11.95765531020147 7.269666751402991 3.0451356087952415
Sb 6.798022367040946 5.479000379093195 6.053815882096674
Sb 7.6782116458972505 8.057793249766785 2.525122139793262
Sb 7.767349889130926 12.523508234064474 3.965926527798535
Sb 5.15300058806147 8.864486112797309 3.6550749743623956
Sb 4.495890163491232 7.154866477045886 5.929645719244911
Sb 13.516820483859895 11.012300427860872 5.306164347214594
Sb 12.812141006803412 6.500873750024186 5.6458209519857325
Sb 5.7155174098785055 11.06226726067104 5.391695566381939
Sb 14.846212941374644 8.511165898012342 5.987866709954968
Sb 10.304253593035675 7.809298336919325 6.53499625294709
Sb 8.292197719498843 6.004176044646135 8.468125585398404
Sb 12.208561856670807 11.203810177936766 7.90322884914611
Sb 9.448137374122997 11.903030389457202 6.294171332457265
Sb 1.715160306643536 5.870174292728464 8.026499815209519
Sb 5.973370330956895 11.740163546116552 8.900976774126631
Sb 1.5380588307663694 8.571629880495463 9.041109795739269
Sb 7.624588251729002 9.8857880741832 7.224752457017958
Sb 4.267994048905924 9.169514420014101 8.156851766840168
Sb 10.498378095156706 4.075580806721683 8.222215795160027
Sb 12.073871857821914 7.9088925812804876 9.434802425776521
Sb 14.910249976889865 8.132819560773438 8.891298827161814
Sb 8.052475655088607 3.1735261746821357 9.619240289205036
Sb 14.808400311501645 10.992905621055534 9.22633693986953
Sb 7.883651320013168 9.314660434567847 11.415617782863738
Sb 8.786868411303452 13.12099181971802 9.193325659080235
Sb 1.7326047340253607 7.491540986163487 11.72812874373509
Sb 11.645015703142512 13.93270480950134 8.86118780090871
Sb 9.185181343219625 6.114730887045815 11.687852854113052
Sb 4.2300773689616955 4.8567332693535805 9.14584995861378
Sb 10.083303313676996 10.817973500149252 10.346194829255046
Sb 1.8607223690614034 4.78733228236054 10.749869051824357
Sb 6.241928182043078 11.688733702732439 11.830139113184977
Sb 5.612252682521413 7.319034990933509 9.868490070211195
Sb 11.806458784809216 5.2199190037245415 10.49213643526021
Sb 13.970381940184033 11.184163297701117 11.959327548134043
Sb 12.585302483059046 8.599582507554205 12.17241951780832
Sb 8.704665378103066 3.3245046825138123 12.402638579117893
Sb 9.933232662018671 8.40095485307681 13.37991450628529
Sb 8.071060417070676 13.93084166305301 11.985494762143484
Sb 5.854740941843701 3.768478922528501 11.912228689273446
Sb 12.49652468025222 13.678170975151387 11.602047561196988
Sb 10.26481193610248 12.27932722836679 12.812926852146253
Sb 6.306411204211799 6.155647873825022 13.246624500113425
Sb 4.4502401958543345 8.21303264787686 12.314815244631466
