41
Energy = -158.86923721 eV
Sb 7.487499650512106 7.401566243037751 3.4520865348821195
Sb 9.846926478882345 9.116172686726522 3.862266032621384
Sb 12.452862370220824 8.034753961370455 3.3146877538713317
Sb 12.92440410606882 5.236166125170705 3.9390598494107145
Sb 8.602421358102436 4.836376467293215 3.8894335570803604
Sb 6.498020592039698 7.748599953248779 6.187299746866085
Sb 4.11186175757362 9.393061154017895 6.5595235287397635
Sb 9.131524042100965 12.32346332904489 5.996257155428923
Sb 7.383444891210483 12.872147335815217 8.30124295992575
Sb 9.50177947905635 9.56580659892376 6.75951310919181
Sb 6.2559036767673915 3.5208952698400315 4.951201642583352
Sb 5.238461820192246 12.04242477747555 6.384195049011906
Sb 11.820100389688795 3.6789848930070774 7.681657662025329
Sb 10.896900974335448 5.8147796331301596 5.857789690630381
Sb 13.803841613004323 7.152373666103725 5.874273777183699
Sb 4.63606789966922 5.566230474062396 6.178245487316492
Sb 11.635471028807075 11.489619813245179 7.101904559348747
Sb 8.405184138151577 3.063209530471405 6.83777747432712
Sb 8.422098647173556 5.663987464486793 8.162990128024123
Sb 5.159976588585923 9.470891560856069 9.234033543472796
Sb 3.1779178164514397 13.086714986160011 8.092373749117392
Sb 8.109159733005308 7.559107056984848 10.93336823410857
Sb 13.632270463260134 5.72268440643273 8.603363106240788
Sb 11.469606923595217 7.5190924222052855 9.22569181057648
Sb 8.611874897283753 15.183120141449077 10.486835433326567
Sb 4.135676725415045 7.042659373143579 10.46705028461344
Sb 8.238968178552991 1.763874188572964 9.516925761091727
Sb 10.974953899748526 11.656790488668351 9.93764425601395
Sb 5.173110182590911 14.66055485354689 9.514631027319274
Sb 5.666267537386442 5.142912638539915 8.909927747757312
Sb 8.209318347675964 10.847564455400333 10.200108567191608
Sb 9.986922626281428 4.025840209910683 9.976829525340078
Sb 6.115357628404002 3.076875881270337 10.925641625995754
Sb 5.892986319152552 7.2506157696902145 12.784597157753597
Sb 10.91196430010763 14.07433566967038 11.601896991605777
Sb 12.47576277326413 9.446723317331818 11.099062737939246
Sb 3.097342668555502 11.197389552854215 10.314513108650491
Sb 10.767160780065542 7.323407595073536 12.07513621708766
Sb 8.208851063259484 13.052999031134869 12.275525444612054
Sb 4.884368409093944 12.99477678980927 11.701488429328721
Sb 7.654839084405216 4.989882094522679 12.441381402086165
