42
Energy = -162.73032562 eV
Sb 6.999524283501239 6.7350345760250665 2.3744523283070125
Sb 7.6501666088701405 9.393610610289969 3.4370075800422244
Sb 5.036643613220254 5.709721795480629 4.252581858718693
Sb 9.565108119251569 6.035428080935239 3.5139852706717414
Sb 12.880241200196053 10.351504924829259 4.525068447585282
Sb 5.235506363909362 10.031521295814839 4.894114179087715
Sb 12.660523491803382 12.304996042996319 6.565224765079063
Sb 9.972908452899325 11.862469005455033 5.509783226264683
Sb 9.207684716637054 3.6398092073041295 5.07566385836904
Sb 5.335887967730022 7.575167338351006 6.508999986377922
Sb 8.385362253637684 7.606212093036036 5.606884033011673
Sb 6.361965569535279 3.377494879477495 5.269011561772491
Sb 9.240248280868263 9.805412370727096 7.341542874332399
Sb 6.51225280242956 11.035465282098155 7.301574761052007
Sb 7.62225532149668 13.523773061050473 6.349353597807369
Sb 14.59525688059489 8.900868026274773 6.315639764240867
Sb 12.097123770306645 7.915604350649737 7.3525896534161665
Sb 13.362629899997984 10.274909737333955 8.546659835591406
Sb 9.464225647549219 5.231638106910846 7.499209511233175
Sb 2.5991207411793438 7.516640931533095 7.7170418596306884
Sb 4.193681510447148 3.0792884039834867 9.625572216433845
Sb 6.111482634334795 4.605602994253936 8.009630090912705
Sb 8.244827513814554 14.732233401874906 8.867705702786118
Sb 11.614623937073574 4.02573338763167 8.992358908167986
Sb 10.863236713395356 13.634817853628913 9.452776201679614
Sb 3.165016851015087 4.727417887732909 7.533674689961295
Sb 5.887724101674945 4.92846408164945 11.025847869938197
Sb 3.097905473911298 8.892389373764125 10.174288662488763
Sb 7.118413021623871 13.507858436597214 11.399315271952734
Sb 5.997986028467347 9.070833715095874 10.084025690755434
Sb 13.271061962048405 6.3391367204904565 9.535085933132784
Sb 9.203720266385629 11.39619480332147 10.026163010737104
Sb 9.473300675744937 4.352842394312179 10.933340437210155
Sb 8.956706852761295 7.151902439530646 10.210812838414563
Sb 6.1199384436111055 10.858846662269968 12.335613365971305
Sb 4.664516406398806 7.322031584329983 12.033000924315509
Sb 9.919642165297763 13.633905644902995 12.257630290573815
Sb 8.09671070967172 7.146081105717058 13.012990892170603
Sb 11.563691975346806 7.669479202530504 11.421441274622348
Sb 10.818048059919262 10.753170801876454 12.286436101563059
Sb 10.635198207887425 5.689781422694492 13.303706899343748
Sb 8.474637161339716 9.931412623023297 13.798900432061822
