49
Energy = -172.21029145 eV
Sb 11.013816098667009 9.851727547717383 1.46152882088552
Sb 5.376937652960391 6.883772215743476 2.473252234769235
Sb 12.151628869350443 4.722895287196764 3.7411118768634455
Sb 8.520467608947964 11.389209527105972 2.840476179285136
Sb 10.463706822576 7.572005575767849 3.5995197511909387
Sb 5.634585674591903 10.007463248655675 3.0800689257793974
Sb 6.964129993338546 5.289998372940649 4.729067862446876
Sb 8.952113796209595 14.270866225219775 4.132468124399225
Sb 9.464912803846904 3.4488749058282537 4.911932465112555
Sb 12.351935715093681 10.402501586631153 4.411986496309262
Sb 7.551593458126314 8.36929673295846 5.02864756375387
Sb 2.6272243572552427 10.446827694789613 4.473103093045293
Sb 3.1498510595477494 7.289994162595882 4.604246416857523
Sb 12.033531515842633 13.624697945915809 5.087841924904772
Sb 12.47396882578532 5.725669703923722 6.746432852126343
Sb 9.579422154918076 11.749607310191461 6.131042670809913
Sb 13.739308428301962 8.634049887391868 6.8252058328027685
Sb 10.513903124177412 8.646056309642399 6.759623103886605
Sb 5.246063569262078 4.026825167054107 7.199785720632801
Sb 3.310045519879605 9.95792480862405 7.576930970350879
Sb 7.892547606547925 2.0167175742488923 7.224480707472967
Sb 8.053034978799392 14.436512886884099 7.707441057672907
Sb 9.207091256701187 5.32252845886657 7.6746296320422855
Sb 2.1694982002560734 4.8544601894565815 6.449658147408097
Sb 8.41616465535357 11.323157574176957 9.493372674663858
Sb 2.9520465416688086 6.94981902851871 8.616765049790176
Sb 6.470327255231589 9.276502613893852 7.971729788697212
Sb 11.17286979891934 13.808325195229472 8.168032905758608
Sb 10.938209800605122 8.277929340695643 10.107344970095625
Sb 6.547272051653076 6.394398518007933 9.290715230452026
Sb 8.143196877740891 0.6262142981715102 10.071515525361107
Sb 4.45895226246488 11.299959507359565 10.179163206471982
Sb 12.107456773916141 5.135960582434768 9.88239730397691
Sb 9.444941032984095 3.472667664797234 10.516757852657827
Sb 5.787035591108088 2.839765876338974 10.24951400831149
Sb 6.500678004879388 13.673908851430499 10.677632130816512
Sb 11.615414523528802 11.646112202399717 10.449081160814876
Sb 13.998808159370128 9.602286778869098 9.898294341892349
Sb 7.695298329565862 8.71674880713279 11.825608859204786
Sb 3.5165374448756728 6.403572589361974 11.595337562602946
Sb 13.541599977411757 7.162191156655092 12.037806387209187
Sb 7.352235808562014 5.181529263287672 12.31188765631216
Sb 4.38919539596461 9.221372388250737 12.486183345740377
Sb 8.052050568757567 11.832996750488153 12.884811161800197
Sb 4.495567510991519 3.7234238004260316 12.98932755490991
Sb 8.45677666014745 7.1698589347351795 14.681778711567624
Sb 11.142863154348596 11.899414553207263 13.56689546464291
Sb 10.992490853909938 8.667772051236437 13.374797967396628
Sb 6.398754342395495 9.781690814880431 14.830829215380263
