46
Energy = -178.87572483 eV
Sb 7.230121935455889 7.143060012902371 1.3669232564335465
Sb 3.054606894086983 6.887823977743235 12.218048799730306
Sb 3.2526905329253295 8.756627545476006 1.0817386640882527
Sb 5.9912815113264335 4.507623060633319 1.2428731552920165
Sb 3.1509000203211484 4.425633074224029 0.5772122538669838
Sb 8.775727832857012 10.002928166904466 2.7093147852649584
Sb 9.745456739613546 5.904487718167282 2.2322839440862543
Sb 1.447671499169993 5.486298870593018 2.6560949706115893
Sb 10.963117367023626 8.238564597475252 3.3517934724155922
Sb 5.182914718416731 10.581738863378948 3.245787877851624
Sb 3.9287233344482675 1.9329642966430673 3.8283494532876197
Sb 9.970993028692101 4.247217013229641 4.860679622057322
Sb 6.847609617361729 8.308622215031143 4.017491976116439
Sb 12.484550173022853 5.818453102773735 5.804682932679503
Sb 8.011289230778734 2.4120414667654932 3.5575698016222996
Sb 6.2481056499055185 12.804932923078148 4.829958197236843
Sb 1.5322943385139847 3.35028438741068 4.623575782988547
Sb 5.780042873906746 4.175012525814608 4.069340750335582
Sb 2.7191436774203477 9.771564581370857 4.508916873156193
Sb 3.645793910287577 7.18184432370636 3.484464324796201
Sb 9.053887951204457 12.323899108036624 4.42096124374481
Sb 7.450008608968231 0.6872700205089944 5.781106731253265
Sb 10.748623166616857 8.032323105291582 6.228770772856905
Sb 8.902355556669885 5.905813852122231 7.094231322885072
Sb 0.3777438376795237 6.454408033145064 7.183641474407864
Sb 2.8652304299035696 5.217853034216626 6.414117709370485
Sb 1.5566714488833062 8.59334458465069 8.741467641428828
Sb 3.0197492770719387 10.604955359746734 7.232615943034669
Sb 7.918240021589735 12.049611246608704 7.054000105898571
Sb 10.968408862600857 2.2382184504380915 6.975734843858278
Sb 4.96253255747933 1.9333263416974091 6.544852737467814
Sb 8.28292287420054 2.494392101438768 7.8765579221001625
Sb 7.393177778601217 9.252743229843066 7.343533222367321
Sb 11.36883843058612 4.7862103864845595 8.23660312916901
Sb 4.782723712560669 12.804932923078148 8.413988880725167
Sb 9.200847901790175 8.907854380462709 9.64233105873656
Sb 1.5752874808609867 4.406743249862695 8.888888757508964
Sb 4.093886678275936 7.30949074203179 8.733663868922207
Sb 8.124664814799024 6.313626187810791 10.27808012956412
Sb 5.229992691303645 9.931043783492358 9.152181649195372
Sb 5.250700229461608 3.8106197315505583 9.63603014497392
Sb 7.416746576322377 0.3197786474403388 9.610995880267655
Sb 3.6379685214931157 1.5245085124963451 10.39658538625492
Sb 6.982114114734634 8.505377395912555 11.447465766273272
Sb 6.204538136497562 2.007813607835358 11.669138866285657
Sb 3.3559689139140136 5.602541743543049 10.922373193299748
