44
Energy = -171.19356204 eV
Sb 2.747775948367731 8.353492573081756 9.399536813789855
Sb 6.416942074266474 12.397657914110923 5.994986567164223
Sb 12.565914459966345 7.360737638976524 6.509362436821319
Sb 3.210883359057879 9.54097557401037 6.8019681667086065
Sb 5.908534783166904 9.955304652578647 4.45519490047778
Sb 1.585127817872369 5.866458519134788 8.355427609786117
Sb 5.272518562415539 10.959257339886793 8.258933481729958
Sb 8.853973129954827 10.92545192429374 6.618670612530484
Sb 0.6459135367498677 9.793675080863347 8.021999285925027
Sb 7.624327697171467 9.76110841521584 11.114063789437363
Sb 2.560527574389064 6.390594028834722 5.7174494826025315
Sb 0.35379680299351957 4.121002230964365 2.745369313628076
Sb 6.638470037838262 6.568561347751665 3.509795031512805
Sb 8.081491367606242 10.503707424837154 2.624565946588391
Sb 4.715431838316425 5.539267069014305 10.71235402871435
Sb 4.736017482717738 4.421172320298593 2.4268707205035973
Sb 6.877760842190303 8.840269469467373 7.0066009725155896
Sb 9.693203103719608 8.50690027809169 12.733886429812394
Sb 1.270262383216016 3.815927031024258 5.4502292801411025
Sb 4.284126564807002 3.689465432655689 8.51971380966924
Sb 2.380914211620796 5.889770899925809 1.6850246241683111
Sb 7.097329617294403 7.037485284399177 9.948972659978908
Sb 9.471030941953941 11.298808749913283 9.420949229678717
Sb 1.9908524376434102 1.8567454077380356 2.0696342261087732
Sb 5.938971561780298 4.477220992002039 6.099701215307774
Sb 3.113542398716337 3.5496484104391337 0.08963826934541343
Sb 9.414466044058152 7.255852736272317 5.372578502654288
Sb 7.994851299804344 7.943074173498389 1.2946805787324875
Sb 10.25314070475113 8.648649467693824 2.9596640232085694
Sb 8.205302263752568 5.987003204788833 12.384713736057936
Sb 3.7778669961783784 2.61525449250063 4.538517593873323
Sb 6.299055534520008 3.122141874314064 10.458234365228893
Sb 11.95254761196378 9.877490565937588 8.852920240540318
Sb 8.421764256162543 4.512391277471753 2.5588452778676136
Sb 10.672077931384917 7.704246945220451 10.176967786665246
Sb 7.853175678670912 2.859786548122175 7.692258701634164
Sb 12.002440141344856 8.073907654611371 6.523605830822486
Sb 9.972584407107178 4.182832966884624 10.808199307549573
Sb 7.482041315490553 2.4222102127295546 4.36107328195237
Sb 10.786783199975996 4.9733646293206935 4.199029708212018
Sb 9.235718972388078 5.373569336746347 8.268546677516294
Sb 10.037628698506538 2.5541258732775844 5.5994903067226165
Sb 12.168234553254784 5.3679220892903645 7.628623030064545
Sb 12.548282059970273 5.574863986419533 10.500506190660408
