45
Energy = -175.38762584 eV
Sb 11.645874447094062 10.882211438936814 5.561890455959768
Sb 5.34429313604424 3.7359208008170968 4.204053537658732
Sb 6.964861783576453 7.359553822462776 4.885760569826349
Sb 11.652505634843449 13.771042988111343 5.366412761195486
Sb 8.58601133311099 16.28385494072751 4.395109752376244
Sb 4.43096015654664 6.114086125652509 5.625746217043256
Sb 7.99334122339426 4.875942886925289 3.8386643786019796
Sb 8.54156467442807 7.820034719082578 7.280708742782143
Sb 8.960594226740525 10.63688191918079 6.49233466915531
Sb 9.234047078119954 14.61601458061035 6.71937144864721
Sb 5.020332308148442 3.676226746297898 7.036873379474457
Sb 13.457395419314901 11.579020954263289 7.9962546152698275
Sb 9.368227233659418 3.7249858923387653 6.0693998355354655
Sb 9.871459782128277 14.079850874096271 3.05975657344835
Sb 3.655846573449207 8.667559014835515 9.61910700630551
Sb 2.571945627556343 11.18939227261018 10.646548268622045
Sb 7.511176521746057 4.7076102751888484 8.013633836036771
Sb 14.767149434959798 10.101894837209903 10.186094764646159
Sb 7.484853180537929 13.664049235457405 4.6047855460040115
Sb 11.35279049897334 13.136096867272252 9.111874148259686
Sb 10.797398906891738 6.235778709463004 6.316040232166934
Sb 15.193221298370203 13.97132992132565 8.18122025442404
Sb 9.675030393385727 10.821442439343095 9.293269056337026
Sb 12.170312277062681 5.298807919742733 8.705126837607414
Sb 7.83441380123603 3.1350987631232274 10.401833857297229
Sb 14.743326697713847 14.674526626520468 10.92511835237519
Sb 16.504454607199644 12.478578635240343 10.271386933773499
Sb 6.515883559332252 9.017662726119024 10.287486353636131
Sb 12.06964655453459 7.954031793749309 9.853979976876321
Sb 6.570776887536443 5.713841473100285 11.246659344269254
Sb 9.416531654502064 7.186492589105125 10.88928606372192
Sb 10.713819680918371 3.5824225316564506 10.589450443213654
Sb 4.744130176218924 13.028041878828356 10.833047850343167
Sb 3.5771028325345227 6.943658387937694 11.873089410511616
Sb 7.400849516308207 11.662672797493554 10.99821467894807
Sb 3.886509293614001 11.555088902087876 13.130795320035364
Sb 13.767846042664011 11.12096526144405 12.637631593504837
Sb 10.613607869205842 5.428830148728235 12.84876704341041
Sb 12.280363323101682 13.423395562903236 11.7979692174007
Sb 5.37236771859791 8.942029281290925 12.866966534901671
Sb 7.58323923896081 5.461388851731299 13.854946696255414
Sb 13.156127460345676 6.997436603241177 12.299033137877439
Sb 9.403081551344572 9.476441890967495 12.68896857586048
Sb 12.091085100124685 9.094092543349122 13.907643607054315
Sb 7.56832783180693 8.238397117314383 14.652372669231365
