42
Energy = -162.76086352 eV
Sb 14.317128707002748 3.4777719666170945 12.106882173439246
Sb 13.700806000388626 4.242730586526784 14.828602066866685
Sb 15.255416424029335 5.9370444628935175 10.767367247084918
Sb 15.072698553612868 8.104104218027098 12.656499055921543
Sb 12.851476735337354 6.7978029904642145 13.844664803085282
Sb 11.001334045932573 3.291849236422222 14.417075431149627
Sb 11.488570989527009 3.2825665914544397 11.549098258245806
Sb 11.057644667536165 6.193640426402079 11.685293658239761
Sb 10.67467912183524 7.948457228682202 15.250529535464441
Sb 9.361491360041953 5.762535652314039 14.015360489257505
Sb 13.553321523806343 6.698364866265784 8.538195283991245
Sb 13.25102956357994 10.062701902403072 11.431431873961884
Sb 10.815472801637123 10.351354919296028 13.018053779546666
Sb 11.711096634180109 4.5247216055352535 8.169900515223059
Sb 11.631239219756306 8.750594044266323 9.426476089338816
Sb 9.00452660145555 4.612686238222519 9.301091443588902
Sb 11.256240269745465 12.799595268826018 11.173022395644647
Sb 7.6566152608678175 6.998549698810806 10.339778600575537
Sb 6.916659412303508 11.295367807575065 12.098757384669174
Sb 11.719729178067592 11.686630427868014 8.538893230835315
Sb 10.116054833995108 8.387714010539288 6.36302063659168
Sb 4.813349871398954 12.045672117615265 2.5561662210336396
Sb 2.4653335398340674 12.813648818215604 4.0513355585926165
Sb 7.060985833702876 13.524217424600739 3.823056142823993
Sb 6.262325753095522 15.033974683369562 6.125569034261546
Sb 4.277427270205075 13.068914012975704 6.301079574413799
Sb 2.115165988800515 10.049365589459851 4.79987671628403
Sb 4.822135914986666 9.420904814147763 3.770336380946456
Sb 5.736738124770276 10.572251620463165 6.326759018786688
Sb 3.1838810774315816 12.3856993990162 8.881990118359605
Sb 3.106650705855318 9.820954770480828 7.531036135817778
Sb 8.570626041006888 11.305361553911725 4.909946558306254
Sb 7.530577700127507 14.074133449058827 8.897271661292274
Sb 5.995447775904583 11.647013219844444 9.267318354724146
Sb 8.130432627653411 8.277646437461257 4.190809494103133
Sb 9.529726769266226 12.928198345547278 7.144861823966964
Sb 6.442365056102597 6.647875804260117 5.929902916499989
Sb 8.536350663143413 13.576294208842151 11.715680079035376
Sb 7.632226744953762 8.438186082478907 7.854091669329381
Sb 8.984928646508633 9.632646190526533 10.84109660779334
Sb 10.719604597103599 5.659391858570461 5.668013587187329
Sb 8.246624830415216 4.447002886646936 6.469945830625734
