40
Energy = -154.30314758 eV
Sb 11.589634361830196 6.680903061205016 3.6572737974379126
Sb 9.036278909192214 5.756991519595988 4.491957562383986
Sb 10.372536424562103 9.302715657813193 3.937656850521207
Sb 7.596675321129761 12.184111517388462 5.104964454352803
Sb 7.498212118868337 9.176670338614029 5.154653599883497
Sb 11.401027682815643 11.49579314651578 5.541790407906378
Sb 9.654225057941359 3.2261200749392027 5.760684870308357
Sb 5.153378303489899 13.629533004424164 5.51749055426882
Sb 5.959875750855526 6.7492277238769 6.187135601025585
Sb 13.37335318284263 5.8066296513246645 5.734770371270344
Sb 9.569095737870752 6.261274144706977 7.4390829704959245
Sb 11.709540675975688 4.284301685981392 7.51277106091992
Sb 7.441998978603192 4.263155833057564 7.492103542129864
Sb 9.771969833159432 9.45057144365373 6.925026585492895
Sb 3.646147902739897 11.778990210935913 7.136759502409823
Sb 5.805482374642373 10.114425392107208 8.007254562194216
Sb 8.817133669688046 12.575135249935474 7.679526508554786
Sb 13.661941282289684 10.662501940883278 7.136790196564986
Sb 13.975118719024728 7.845043214815003 7.710513663718827
Sb 6.9649855876200135 15.026659869772004 7.232559835147284
Sb 4.237903548799402 7.690194402595902 8.263071327620628
Sb 11.912803131160612 10.607163517418737 9.469958819541342
Sb 6.898341306814925 13.612485214213736 9.658247174829432
Sb 9.469312235951097 7.640053499913709 10.203209830220585
Sb 4.545331483560725 12.013243188496062 9.833434380173962
Sb 7.920019055341437 3.211087476338695 10.183499649260357
Sb 12.405950273667584 7.820356718031769 10.145751973929727
Sb 9.932045373491526 4.961380691260077 11.240957557006453
Sb 6.09310112112701 7.049370276854693 10.376562193124068
Sb 9.309161511332649 8.329416980279005 13.276200632111273
Sb 11.543378512820338 14.125967138018611 11.291813800910967
Sb 6.908101125359822 9.627195663750351 13.387396496861001
Sb 5.415209272101099 4.321498014180892 10.997488521660301
Sb 13.297245300067562 11.880817570135271 11.677163829325838
Sb 8.822180358123367 5.546776939921458 13.85124417874107
Sb 10.66161948141319 11.806391576667579 12.785617050768774
Sb 5.973429349412258 5.160333122051226 13.71232016824521
Sb 4.873501353278316 7.719436286535007 12.921158902111348
Sb 12.542813534850865 15.192484203465071 13.785622372621123
Sb 11.822408177274966 12.996060219417165 15.160982025039749
