41
Energy = -158.32244962 eV
Sb 8.110233089551913 10.137048961062012 3.083049069956038
Sb 6.198604837167875 13.077719497573561 5.969026135042577
Sb 9.12600204687085 12.114962896065705 5.0021971707165145
Sb 9.783966697037457 6.204356899758431 5.979447074359056
Sb 5.750281014966054 9.344490872797921 4.572730835692675
Sb 3.8651366761113644 11.381108780727493 5.370987196670259
Sb 12.07280253961285 11.805688931883191 5.575588131133121
Sb 10.675336457307452 4.671206960315407 3.649187700312498
Sb 12.329665644047084 4.744749996199614 6.007759503625057
Sb 8.905460784814846 3.7123589098465883 7.1838245137619365
Sb 8.286190952198911 9.465066186216756 5.951517456379524
Sb 10.369499232181887 2.289516681586316 5.191852877067517
Sb 6.669173164424518 15.220387626662077 7.989526395755005
Sb 6.553757434569999 11.225223101981491 8.193352115753594
Sb 14.056731928665892 7.290444188663972 6.292072347316818
Sb 11.691481262548686 8.889259218860222 6.082867930024982
Sb 11.801973465839596 13.73100222577695 7.696354576698481
Sb 6.071166339196191 4.062412288384085 7.87787859814988
Sb 6.565011440842527 6.862857191633552 7.60064468394783
Sb 10.572671765800019 3.936938736595905 9.49542107975364
Sb 8.922051904334019 13.370636302822373 8.168675186200073
Sb 6.063133521048228 3.8979542801617915 10.79301991435242
Sb 10.13480905198207 6.831311837690081 9.540413200686423
Sb 3.7662553523299223 10.434865865966021 8.130362644430843
Sb 12.649943986640842 11.41723876571835 9.300350663416129
Sb 8.733008057384355 2.974064284888441 11.479757762089346
Sb 12.708037750319303 8.126335261406002 8.6628114206016
Sb 3.998092019238696 7.620993392712139 8.648203288683293
Sb 6.980861796246072 6.594634898667129 11.009731510238538
Sb 5.373814275369587 13.386336203780452 9.801414060182877
Sb 10.032369467793501 10.375378211323813 9.866046354591747
Sb 9.592627438299884 13.103957013893822 10.99972023151989
Sb 4.665303943928263 8.290393958686963 11.423677392767692
Sb 11.44263452926944 6.4361147830762615 12.123598353799556
Sb 11.520483656072809 11.019422247358207 12.243465116295612
Sb 9.596917893770334 4.79924469326161 13.589842679181881
Sb 7.0681708985696075 10.014213331904468 11.337210666939404
Sb 6.946800884918149 12.799181333769928 12.182219419962278
Sb 10.899331695864864 8.620943552347942 13.843645742604384
Sb 7.171469852695685 6.376264557540419 13.880328949365381
Sb 8.053123948059609 9.118103768322404 13.984608747864428
