43
Energy = -167.31810457 eV
Sb 6.973415374318185 9.080790064585653 2.922968584839622
Sb 7.224030892804146 4.931777286462586 4.348375204487635
Sb 5.2147646866939406 6.886860436242686 3.5815392135340653
Sb 9.008373805412266 6.986198150906574 3.230824121558497
Sb 14.514975278796504 14.807899046635011 5.260593402308952
Sb 3.848030026779532 7.535805794999078 5.984413450480786
Sb 12.466935414974035 8.689390552367758 4.879008928953792
Sb 13.91616021284887 11.951111019224474 5.431967710997356
Sb 8.307039673931728 10.594630405401682 5.017661084209212
Sb 11.929209565420884 13.834342607161325 6.172480325158981
Sb 13.554736878176566 7.490864055249828 7.149917545511152
Sb 4.475626833269462 4.978322411797124 7.127415646546999
Sb 7.389251088271707 4.88160198411073 7.193485838420543
Sb 15.18382850568331 15.773655339277859 7.89066822591976
Sb 9.80603683522007 8.228982474479594 5.67706984095417
Sb 11.645126785686944 5.702123595621499 8.253225389537702
Sb 5.671515627864525 8.513931552008222 8.03136257067559
Sb 12.585974116819726 14.753882959305626 8.840271956212584
Sb 15.359093671581974 11.25824989187715 7.793125323239643
Sb 6.726709135717551 11.152229551359927 7.38078159445629
Sb 9.000284766797154 7.153934907886738 8.37912095394169
Sb 14.995996210860682 13.443317556726633 9.562225149899353
Sb 2.9857428757022624 8.68789840543582 9.182704427317343
Sb 10.981484235665103 11.815404667234517 9.350396245606547
Sb 13.147713201301881 9.790658677819513 8.909983907613748
Sb 8.595895758723227 10.147366234178055 9.376627965896652
Sb 2.9981498742279395 5.823437159674886 9.523306987366002
Sb 6.104175207385856 9.592281186519802 11.825552119790753
Sb 10.43255337326138 8.030449564505764 11.618311742389613
Sb 6.9514361509281635 6.885424077368222 11.055929526552454
Sb 12.536575316046935 6.14572343936954 10.977087410350306
Sb 11.541123807583363 12.020922851957634 12.202976921673718
Sb 3.2255588351006046 9.365698091940843 11.971642503826546
Sb 14.30934880540035 8.481457869243812 11.17185318461471
Sb 8.903604257494445 10.887662626339848 12.913281345002085
Sb 8.795681635531707 6.198225252504661 13.159883788255522
Sb 4.712474967638877 5.209692284546103 11.740355750244662
Sb 12.422481032538336 9.442856035521697 13.184201721727426
Sb 3.5762447495722594 7.037919770349506 13.561161976061436
Sb 9.66937457000989 9.871387915400968 15.532545931198333
Sb 5.743136302687412 9.38335303951643 14.695875058109278
Sb 7.540618033722849 11.786388447740382 15.273676740575578
Sb 7.865202839622489 7.601581977220447 15.499833902059143
