45
Energy = -175.53105176 eV
Sb 9.887330767792184 6.141559634230987 3.2819099184203835
Sb 6.888549907657102 7.4494208480592725 3.3470698670625034
Sb 4.945376678043423 5.861537601619929 4.842621086767352
Sb 8.058800465784618 11.256560389969241 3.5685092443637325
Sb 4.294939800303065 9.108843025513135 3.899580359419972
Sb 6.107537773309739 4.017335438897067 6.770010631500021
Sb 9.789768551220861 4.350469084907892 5.529253474609688
Sb 10.849940547805666 8.598863683163374 4.4079879194078435
Sb 5.262618494977235 11.838289057018207 3.8405993545512906
Sb 13.170035989445244 12.53608173077595 6.3795729587671905
Sb 9.2575307473816 13.188823389881723 5.329607951884251
Sb 8.13226374342631 9.06360521452962 5.43976287792823
Sb 8.132833562907638 6.004060870973494 7.248693912293304
Sb 11.349366814330484 13.773365137402399 8.40592046733408
Sb 12.435615827359713 5.117508779769545 6.444578767251144
Sb 5.062586309548182 8.168316857429279 6.527127860982031
Sb 11.161361792192745 7.553554915780848 7.113142850704255
Sb 4.073624587550957 4.6982880005036485 8.7614679861261
Sb 4.814625433616064 12.527642243550249 6.580879751594767
Sb 7.300751256788421 13.713851011638155 7.412849203670438
Sb 10.675129781466307 11.288942437424705 7.032001019258878
Sb 14.756196297284507 11.172540548115277 8.335576731291262
Sb 13.242587274146045 8.593162822447244 8.902749558595126
Sb 2.8302637500537005 7.276713248192616 8.167856722475902
Sb 6.7085653805829235 10.983489564772364 8.171988842583222
Sb 13.345538850878613 12.756345786288142 10.193267538668927
Sb 11.928516341552765 4.346135029985961 9.1876209210319
Sb 5.224150805928416 12.172229383369048 10.396881232111438
Sb 5.898713955137848 6.211467502701746 10.429942291596339
Sb 9.457076859299608 5.77036891970107 9.857281435823193
Sb 7.349451548393303 13.404628973359216 11.958881434431314
Sb 13.90933588888906 6.078702062294558 10.349239244856674
Sb 7.099652315352024 2.8205296685569006 12.9259981592759
Sb 3.576512985287187 7.764681416893422 10.959904190085647
Sb 9.33329424491182 12.099544521099839 10.316764202412678
Sb 9.387598616937778 3.3134523168723597 11.452379953945421
Sb 5.156133077035599 9.92812413222619 12.202595704611065
Sb 11.459673929465525 11.445336415420188 12.182222535777505
Sb 5.9106772355661965 5.349095520604216 13.19348659633338
Sb 8.48428763157195 11.077449440167635 13.215379187069246
Sb 7.758824017713178 8.921069603734548 11.37382073128454
Sb 10.322772926449844 5.330511658148541 13.37954814326626
Sb 12.436680214596178 7.199748326619246 12.589451097277097
Sb 11.026354328606821 8.931740392877376 10.727730594512677
Sb 8.126083499921702 7.175544200984777 13.745816295256871
