42
Energy = -163.22395962 eV
Sb 7.880001911385651 10.638156006506234 4.45902088139409
Sb 10.755048924618382 10.483743059877138 4.575616522914563
Sb 10.628513584090006 3.823905714575509 4.793108099183844
Sb 7.1221552152493866 4.987865784890596 4.561542345562329
Sb 6.375115146753644 3.159579652171118 6.678540414125145
Sb 11.455296011902208 6.599561662563173 4.741945890804256
Sb 7.943248503372512 12.1171832632595 7.062117220938837
Sb 11.271535807884387 2.4291038526257505 7.198429957948191
Sb 10.566670921105743 13.019487600567711 6.189319840477658
Sb 4.589616741198874 9.531907555469441 5.973666177868584
Sb 7.924479103138289 15.017069158922734 8.278395073249468
Sb 13.271164698342634 6.830522268068491 6.973207013358088
Sb 9.168232609060754 9.33046817615571 6.6396707981145155
Sb 10.221450303876319 15.961855053355396 6.961177529433722
Sb 8.593582293746383 2.3410608190094546 8.450617827132866
Sb 9.205013992358657 5.823581346410515 6.363861302330308
Sb 4.8956283160050775 5.635823141802097 6.274650283469272
Sb 13.148837190017252 4.268687691676935 8.321804980272946
Sb 5.413467771649727 11.50131160048462 10.311160168732794
Sb 2.1494340764811795 8.529480117946747 7.217374101204686
Sb 6.0935291293136755 7.772258635682574 7.768984610229849
Sb 4.541292214655 11.940083765021779 7.595292198777399
Sb 1.9305255093216334 11.039122154153368 8.697879007510355
Sb 12.548788677548124 12.693908855219288 8.292719438731323
Sb 9.418522684105564 14.226024613699899 10.624995064098176
Sb 10.384253234056239 11.54691833395136 9.818186241767803
Sb 12.121821495984932 8.75110545239066 8.826476813614212
Sb 11.869136440922924 4.853985982831627 10.82973184695827
Sb 7.236581754942352 5.707422707642122 10.150933763938001
Sb 8.876201479025767 3.584009649353416 11.01662192089962
Sb 13.628108609208326 7.411370967384442 10.787975042673715
Sb 11.779150900577363 15.334514451520954 9.320450019558836
Sb 7.647955638796857 9.659774433691513 10.414535607356122
Sb 3.710359960614004 7.303946158857655 9.397223936341437
Sb 9.977613645954172 6.898498330002111 9.955928488567043
Sb 3.2618050649997103 9.70882177345273 10.962481996998779
Sb 11.291618084134301 11.253822789015725 12.56278411333547
Sb 12.382388890884396 8.60901682962152 13.130199918490367
Sb 6.195136599473773 7.7145262619880555 12.025141534109025
Sb 8.111683680618173 8.35738127077097 14.147716338876457
Sb 8.43947190209958 10.961566736491072 12.946280192144915
Sb 10.16088199560326 6.826887035995485 12.887556191584762
