47
Energy = -182.90849132 eV
Sb 10.879737201228304 10.821817633778284 3.38450476500613
Sb 8.681261731079708 9.055352893725663 2.832246243669609
Sb 6.46216336004387 10.819895680004198 3.392387206091851
Sb 7.222794655081736 12.920593415342426 5.182644975318313
Sb 5.9683578529773085 6.5008084683525755 4.550712271377074
Sb 8.65173954781905 7.349615449962077 5.273263470405332
Sb 9.874136207646648 4.710381913641101 5.159352224091527
Sb 10.075148544404327 12.697248271029869 5.430097812737142
Sb 11.689593157727618 8.80901790080906 5.368585043565204
Sb 5.3763154849899 9.130201025751548 5.504919967124298
Sb 16.01946960976318 9.37560197608257 4.4112155703163785
Sb 11.395498484942522 6.0843298407768875 7.295036136090409
Sb 6.368616640403281 12.081486015007071 7.954908852508949
Sb 5.418357877030306 5.282232806642604 7.08853150187506
Sb 7.464113579854382 9.482479553558344 7.511830208648154
Sb 8.023475855693185 3.923713416482369 7.295029324407148
Sb 13.071191979366299 11.864960838773813 8.52522578227
Sb 8.984972553425708 6.056487990100753 8.963486993342187
Sb 13.470487086138201 4.687322448752961 8.666053173052699
Sb 2.7799186856772473 9.362574247176243 6.577148941705176
Sb 10.62367064401471 10.814098775903975 7.604017262387189
Sb 14.132178985235113 9.74082973885299 6.636099813938549
Sb 14.037946974548516 7.421031608978658 3.927436729307136
Sb 15.57959784078156 7.214039818777522 6.297585377164223
Sb 9.141151905291887 12.7098939831196 9.769188394388001
Sb 3.5430751237590097 11.297501284195627 8.530111072652641
Sb 3.406084081736546 8.63647810626968 9.543164359719752
Sb 11.55956442756573 13.0544649512214 11.370187978102745
Sb 13.797530011443255 6.779624124287977 10.381692929320494
Sb 8.1725287759252 10.158312446859705 10.792991549729166
Sb 8.450369493828758 4.404857861605672 11.332332321312485
Sb 5.62858451062415 4.918749069408848 10.95387857542277
Sb 6.009173410308534 7.34382485688297 9.117864024380005
Sb 11.425014812062647 8.41095547832983 10.095492380689558
Sb 12.968043127605513 10.554305557666751 11.358501656289326
Sb 5.910506092061308 11.769607921596899 11.556932264072259
Sb 7.607215315866992 14.081721708843522 11.979735495861291
Sb 9.741487036062361 13.241257342427218 13.703771296781559
Sb 8.554629396280706 7.050358127425878 12.37816257798204
Sb 3.5929232917465272 8.444165813504135 12.758552874707314
Sb 11.865689414268218 9.427063370216931 14.126789793629989
Sb 4.890965054612158 6.0501156258543105 13.569608704834783
Sb 11.452161102920835 6.965752464942041 12.736213496470098
Sb 4.939030972852804 10.583265988813453 14.04657513750095
Sb 9.299076411074413 10.433560495950802 13.518067959554955
Sb 7.349511494140587 6.7204287807861505 14.950632200277212
Sb 7.254135252859214 9.56680796629767 15.406428364692031
