41
Energy = -159.03455562 eV
Sb 6.1495014630532 7.879279624160873 3.8218525464063733
Sb 12.38495805595615 7.908813055881178 4.4073790450968025
Sb 9.530076132490814 7.998648072489719 4.060868797532473
Sb 4.614717320472966 10.341231805764549 3.732139742900179
Sb 6.871485776184046 11.537467995717947 5.10767100650707
Sb 12.732960405295705 10.677469970886385 5.295946126823949
Sb 8.974486585049839 5.214351179290751 4.725392830661326
Sb 2.446731524558175 9.822344264749852 5.55105529551568
Sb 7.61039383937748 8.87333080994535 6.114434281914569
Sb 4.627857204678175 5.83818228652462 5.1216571691216775
Sb 12.92456630055073 6.44155466703797 6.818716024464875
Sb 10.985398398104246 4.271253442493057 6.606396732509993
Sb 5.460881395331274 12.89361002207694 7.217721504531737
Sb 13.688400604235232 9.809683825960464 7.856170064789448
Sb 10.393229014622497 7.153091839161315 8.128889728967069
Sb 2.943186385913999 7.317046093543693 6.931546017549722
Sb 6.86875499550242 4.772103270605337 6.67752443718751
Sb 4.869259140163261 8.819293117913576 8.452741903858751
Sb 3.24105942377134 11.203937589019812 8.036118868192993
Sb 10.934092858584687 10.720525976413114 7.551342873255883
Sb 3.808050939916699 7.579443724137099 10.862688457363847
Sb 10.946397798163522 4.738905977549869 9.572030047733291
Sb 15.369453364196362 11.026892132547358 11.395430047155477
Sb 7.779360346558767 12.540316137408515 8.980113283296081
Sb 15.710777389160667 9.168181230019885 13.573796687108873
Sb 12.893749756418238 12.350625063603262 8.863064364160381
Sb 11.289325512340463 8.68727722964878 10.510375315056056
Sb 15.750604726751838 8.239617323805815 10.835119131756075
Sb 4.956812257797879 11.372844117283435 10.981057542944754
Sb 7.338728058312374 6.694187092759431 8.817668783638567
Sb 12.793741621840821 8.842902337126237 13.712637401876675
Sb 7.345463982992099 9.905284292131109 10.14833841964135
Sb 3.6225144919480385 9.639522381965014 12.886446454531852
Sb 7.024706732452864 13.26879325634263 11.711715354363832
Sb 8.392704767102657 5.027053305831332 10.94989942148371
Sb 5.51577434253034 7.520583820588713 13.202175024596322
Sb 9.838994715943922 7.072902842351038 12.563131322924022
Sb 12.50767456407958 11.251187780661773 11.731085879048967
Sb 13.259175658663496 6.934649211301189 11.633974617488999
Sb 8.939959631354911 11.07772540877823 12.282784689675985
Sb 7.9640271127701165 8.867881019714329 13.870897351558673
