40
Energy = -155.32531325 eV
Sb 5.159440462962336 8.771395829307606 2.139945211567869
Sb 8.933835427690425 7.388813380439776 1.5908420920863562
Sb 7.494233227982571 8.574960472326673 3.836537306233704
Sb 4.730376971959777 6.129616756575255 3.2528300015312697
Sb 10.525573303041451 10.513242938184185 3.8140099616643
Sb 4.414072542850268 10.013905040907726 4.684206798165984
Sb 7.241163660065282 5.099925324480074 2.110911830135543
Sb 11.360316371275053 6.209636868276186 2.497909810988198
Sb 12.703192278665853 8.667918240141907 3.3162734198208796
Sb 5.244258206377083 7.407102960581598 5.8650805972848365
Sb 4.057889818768198 5.257000682005375 8.597456101447746
Sb 8.48888790009206 5.950047285348287 6.04134751352195
Sb 2.663016435558542 7.281606769473856 7.261958034137315
Sb 12.459173617802959 11.531781720616491 5.753835117977428
Sb 9.831585309690485 9.092612625089387 6.3191698704781025
Sb 6.9105845650968565 11.423908466537647 4.12574042678667
Sb 10.884927645502456 4.799820919156119 4.957412113101652
Sb 8.34145429350547 3.6067935591144 4.3674910133941705
Sb 12.717294330897396 8.654097093090797 6.235668143725371
Sb 10.259824136717514 11.58884731157464 7.743978139809464
Sb 7.718100064423614 12.632892903463452 6.673308524134382
Sb 11.272120248871236 8.311215839737626 9.559459657350613
Sb 8.42496106776571 5.939846833199895 9.058662226594238
Sb 7.064775995891325 3.528294419930812 9.85020414780693
Sb 7.025659939663385 10.456105823928707 8.425408271069138
Sb 9.593180881479062 4.100857404449028 11.074003643447528
Sb 4.106111833326502 9.94787294800959 8.382364360204178
Sb 12.582639157185415 7.366620773128891 11.975332075874467
Sb 2.784350033765849 4.796141039061086 11.18745960410126
Sb 12.877605195574375 10.097885167392425 11.106022922161939
Sb 5.397304412361682 11.466379692812245 10.616285581521291
Sb 5.295852404099521 7.7232684729124985 9.814389861416112
Sb 5.29593894986832 3.7178614042856166 12.15857303179705
Sb 8.37710690781578 6.457373570680844 12.22442003985659
Sb 9.941723294176555 10.071273933571728 11.436249264009957
Sb 6.637526656525013 9.296162309962336 12.01351333488757
Sb 3.0262013858478864 7.626193361472064 11.608991500510982
Sb 10.303408415252893 8.119584315764854 13.59641621141676
Sb 6.336478225576974 5.580456833295307 14.078725079709441
Sb 4.750957269296835 8.033781554982856 13.880710003541362
