49
Energy = -190.74727757 eV
Sb 10.74427799539744 9.11754218989487 3.5262724686375844
Sb 10.328716291488316 5.511523834210761 5.518118369469904
Sb 5.917938563544985 9.547606347496403 3.9059682542414906
Sb 8.30248708173033 7.917898934994301 4.568546470574437
Sb 4.236546923897262 7.50105731963807 4.984304159363618
Sb 11.770322551649752 7.819355398083679 5.902575514492999
Sb 3.9055622013594222 4.04090496139519 5.894023006681416
Sb 11.68955252750781 11.492666321817794 4.954729080834866
Sb 14.343503974201425 13.44546254536818 6.588445203146975
Sb 9.57875239959495 4.872697768038718 8.241949284111827
Sb 10.148410670482589 13.916179747532361 5.264318213995173
Sb 6.586937499951999 11.258953332385609 6.170431843885562
Sb 3.841108236718745 2.1390277585701187 8.0707038074648
Sb 12.804060122719052 7.842763777874277 9.538724196559075
Sb 8.249723898829691 9.118417558986206 7.208164188041553
Sb 5.790344965128956 5.938580032247872 6.892447305131232
Sb 2.5439568611270014 9.22255004378447 6.50225788113416
Sb 1.3490952215003476 5.1901579789434065 6.674452597388717
Sb 12.020301411957245 15.000059632565444 7.163258917478221
Sb 9.158110723313614 12.967802926940626 7.971184624790268
Sb 13.595755671274118 11.72287816525937 8.797986309401873
Sb 15.639143521723724 13.699133920173585 9.185373560984043
Sb 10.752271965872408 10.582975517495662 7.545844724298995
Sb 4.169434279880387 11.258169682415911 7.787637623192668
Sb 1.8426674644193826 7.306032165996958 8.528270662508536
Sb 9.787375582177773 7.31552574703496 9.793422433503745
Sb 1.2657987728101014 3.2586228216313384 8.841024393494314
Sb 15.379063745279096 9.534144269421649 9.103424791271667
Sb 6.154436539975732 12.408810711764914 11.340148588507734
Sb 4.451481038374984 10.225648423462868 10.475093661110824
Sb 4.442820600109829 6.4950538518273655 9.379205700390928
Sb 11.370676215168945 3.659935374648984 10.252244292314215
Sb 13.712858002279503 5.290992128751347 10.582447034552318
Sb 11.292300698888758 11.7205522528822 11.37214378040782
Sb 11.093649412143115 14.39340227448314 10.01453960580131
Sb 8.335905750106448 11.0604014121191 10.105989741200162
Sb 6.82960890982794 8.516660629708234 10.310808696131671
Sb 12.964026766211564 8.895777876691147 12.28059514645274
Sb 3.6632963454789236 3.8804605447612825 10.329430045008024
Sb 13.843793689557623 14.965866585679567 11.029840257400968
Sb 9.374266578851104 5.135099236855044 11.724718493134809
Sb 15.484323460300441 10.321293549126562 11.88721081567148
Sb 6.937892630241653 11.170834316076254 13.854647519384322
Sb 9.876269297134307 11.378735492776269 13.976356826380352
Sb 13.478585645530618 6.224394257380693 13.315268024889914
Sb 13.810097947662328 12.611919405174516 12.692639603890056
Sb 9.74941105436531 8.708040872150711 12.80869708259895
Sb 6.8781231065019455 8.35514457965064 13.231611800280835
Sb 10.667435657064532 6.1947659951462555 14.064983869724788
