48
Energy = -186.97486244 eV
Sb 7.383436068461828 10.741713558552997 2.5925515080195396
Sb 1.250577032356155 8.274259015791468 2.766638175518423
Sb 2.7085046178925403 5.774819984049435 2.7102201557801724
Sb 5.495352654454374 6.450501595683441 2.84032322359723
Sb 5.588204003637837 9.033231065860482 4.164272884656774
Sb 3.316630836011503 10.353793796349926 2.9262735015516586
Sb 6.9425618359681405 12.641395935582267 4.760345427387696
Sb 8.88006548842094 10.512306717491386 5.0542884111871205
Sb 15.080808699692428 8.37208648406815 6.458641902928422
Sb 0.3215205298974847 7.645006523071088 5.481911972208937
Sb 2.5193968367120916 11.461642208660273 5.488685087742652
Sb 1.8028267403285376 5.125070012838177 5.391907170982169
Sb 5.030738877764486 12.008797442449973 6.829697814717522
Sb 6.202723131204641 9.562874984706742 7.933437527389331
Sb 5.964466374865951 4.913288949530656 5.256485762935442
Sb 10.435287826693123 12.942802880008477 5.435201778609137
Sb 10.433446762119127 4.8212772595445905 5.354251902003133
Sb 12.428493397923635 9.588769313479208 6.268415422630289
Sb 13.726988585089984 6.915125077405005 8.607251792215733
Sb 8.218949454258734 6.68256373988618 5.466049590683373
Sb 2.910006524653179 8.661372724187304 6.0312305396996395
Sb 4.004872240263001 5.474785629912333 7.324165211734902
Sb 15.847923138666753 10.414192276920655 8.361476380931524
Sb 15.647844790220233 6.739883181500829 10.75160521022154
Sb 14.161149530011317 9.155404201400515 10.404889332957477
Sb 3.7959543269898433 8.062574560230724 8.713359991449705
Sb 13.172168458679634 11.99073080169874 4.94120543605326
Sb 9.098364953622447 12.167007173038197 8.021428098962724
Sb 10.72930214265553 10.570281577962849 9.812477599465184
Sb 13.356780028480605 11.872568599858418 7.794098381820789
Sb 9.890634158347774 6.2285952881111415 7.805406096062999
Sb 10.0038894661977 3.298140613356784 7.78967659440855
Sb 13.385972799608695 5.506638984199775 12.153725026096286
Sb 6.827155322416717 5.224432679145391 9.150298513625028
Sb 11.200401988076624 7.191913585996145 11.241600222757425
Sb 7.3098036044618935 2.480889629276825 8.470494995583492
Sb 6.068904758971197 10.616072900711371 10.67093149269833
Sb 10.203474440155432 13.33069012044161 10.421055133493063
Sb 8.692071813753564 11.25534357222747 11.742379297913507
Sb 6.949132847505278 7.906659893358407 11.237997889864685
Sb 10.049354162465152 5.813970586922383 13.496525366212596
Sb 12.321248552062528 7.593635541507138 13.842187586478166
Sb 4.506643780686355 4.406829246045794 10.756217696448767
Sb 8.512279821281282 3.6279272740101347 10.889572336528074
Sb 4.419762707993333 6.935290380050262 12.239384154915008
Sb 7.930732165662332 7.734804525395208 13.97908420863197
Sb 5.953175255227456 5.647739048862138 14.392316152100614
Sb 6.300614784060808 3.250897175592061 12.75895835707199
