41
Energy = -159.05279127 eV
Sb 10.007081917514453 8.768146208855237 2.9999529528142554
Sb 8.248189137166841 10.047557255278658 4.915013749200023
Sb 12.132712288311811 10.279691644901447 4.2743871991108815
Sb 2.4121524713723956 8.348669836309348 6.510853906229124
Sb 5.448456875769419 10.056385778151244 4.270675901320958
Sb 9.006250244688315 6.740270985181 4.849011417417917
Sb 9.814371423134691 3.9217084334557883 4.7033156009866675
Sb 8.657491485512736 12.69557921725272 3.9085186778676984
Sb 4.8888776437513854 7.583274381268174 5.641541515528616
Sb 13.254656367527218 8.318203625206147 6.00946996821411
Sb 11.154779400279779 12.63699274713182 5.720451841255226
Sb 11.913569740484519 4.403116040568843 6.62694693095643
Sb 5.421841989496508 11.599329218567776 6.706551806621729
Sb 9.113583045946623 12.936494975875828 7.751042601041948
Sb 10.87248071813804 7.0748949462817 7.01868620086512
Sb 6.978993083499366 13.890686104234554 5.840904512175423
Sb 7.497962644706374 3.6936856011682857 6.4317679311108185
Sb 1.935239845717362 6.169932772504244 8.32868643935392
Sb 12.906734998652238 12.117589415543993 8.241561291957039
Sb 7.659427006520404 10.401618412981357 8.352211861143557
Sb 4.575022684104673 4.99131654299402 8.042999573640005
Sb 13.621212791396497 9.368313555201077 8.720564797168157
Sb 8.416461379507066 5.411091406397524 8.64085771755111
Sb 10.653752823228102 3.5618410001186898 9.085346213339777
Sb 11.140684180263559 13.426710177076803 9.988968605838537
Sb 8.475802096690593 1.8022346684489052 8.367246473980169
Sb 3.1051509776825297 8.264778669982055 9.95848132100907
Sb 5.561625359664471 11.371806265188487 10.207759631349191
Sb 5.698218256715519 7.577296692035787 8.9105525485049
Sb 11.18431794524868 8.475961406851262 10.064644677814544
Sb 4.616972555595398 4.100412341210191 10.796306105866659
Sb 9.561687172181424 11.249174384486968 11.057829316401982
Sb 11.461115019721973 5.941276622019749 11.566196855507837
Sb 12.40569027692757 8.4758847794831 12.685584800041088
Sb 7.531639213716218 3.7022146722264613 10.822124162492457
Sb 4.985218347369652 6.773439670750549 11.72971180688622
Sb 7.2265308684416665 12.552387868967887 12.24488330023781
Sb 6.0314174094694035 9.95558839945438 12.719390452428328
Sb 9.953751263693626 9.741442809529905 13.52609814528452
Sb 8.23188639638934 8.378936616305843 11.586493700850582
Sb 8.798343683496647 5.75541688024757 12.737760518330525
