41
Energy = -158.93667138 eV
Sb 9.870239332333583 10.64310843264347 3.104850874959908
Sb 11.05022259229353 8.073792563380966 3.8676206554634045
Sb 8.805965040634726 6.371145012666326 4.520084881455516
Sb 6.382078335833481 7.638292248360542 3.527155996806848
Sb 13.463335879609614 10.497469413071505 4.941567248245329
Sb 7.003375182704706 10.432376787598036 3.153791428476497
Sb 10.071777605786677 12.94518594234056 4.8376367399391125
Sb 12.703422349806392 13.040892531532062 6.102072884073915
Sb 8.250745285761441 7.513996271305454 7.176947066076121
Sb 9.527212656458417 4.906821975589125 7.36498371693306
Sb 14.299798291179044 8.486626335990922 6.832271294967387
Sb 11.470249444749276 9.06029439690087 6.511209034102863
Sb 5.47983528872429 7.316687035356002 6.242116108283774
Sb 6.005218478688078 11.94475912090509 5.36041778779925
Sb 7.743588281678529 2.835655826895236 7.5213434891639706
Sb 8.253163946349261 13.012769664501969 7.09612390634791
Sb 4.518455438622704 9.973777670818098 6.812811227557223
Sb 11.714440220864002 11.916759891383983 8.533519491205073
Sb 5.938747447044616 3.950828506228858 9.421760800009944
Sb 5.822570427026752 9.689266933826627 9.37656758931145
Sb 10.278520062759462 14.30153913542625 9.165663304741926
Sb 15.206072294689816 9.711486578540004 9.285120903763202
Sb 14.215514077221638 12.378963044256663 9.843955632889731
Sb 4.178652753344515 11.09784846288336 11.352427517308202
Sb 6.146376212569219 11.729540762182355 13.416785006425904
Sb 8.496541378177772 10.712920001780894 8.873189075492691
Sb 7.429822218890712 6.319929809270151 10.239320854443296
Sb 7.597192259253885 3.104481717291071 11.65981312432967
Sb 7.571033054683682 9.394752645767522 12.40374987582102
Sb 10.786093109455454 8.577979009383581 10.76808010004767
Sb 9.840849347331917 4.683535341764847 10.56934021021375
Sb 8.813905976324367 12.641462069150863 11.024752927978966
Sb 13.668772530816224 8.537942413325304 11.449921669474604
Sb 13.490914817841084 11.274252543586023 12.439352327333332
Sb 4.759971476989098 8.455236897530197 12.517317823223905
Sb 6.351115656231625 5.438236525613146 12.840867352698115
Sb 10.794886651996428 6.411688636298494 12.76247998382318
Sb 5.1982843879377345 9.562976509098487 15.195531666346724
Sb 10.59027325827434 10.859781188533114 12.53857651289592
Sb 8.060575126785587 8.870080028431769 15.168526020724823
Sb 8.540390099609683 6.075058395923302 14.570574166176666
