44
Energy = -171.09873481 eV
Sb 12.951008859783704 6.63793255772942 6.315183737440263
Sb 0.42042770946474356 6.6997213242367 4.548687522495394
Sb 0.5422153256080432 4.423890620360042 8.483634866636239
Sb 14.663716631223846 7.211920806816698 8.648000855206417
Sb 14.465289043041246 4.236079746679719 5.773697763801514
Sb 4.405967533161309 5.218786922613229 12.715974741267862
Sb 1.2473595445078953 8.573910167779417 6.589684974518892
Sb 1.416379699115359 5.619261171429004 1.0198802578947654
Sb 1.490209196666853 8.318071477017957 0.12774259547989725
Sb 4.32860964374335 2.3149839126542324 9.070954959816278
Sb 3.3101717325082594 4.643920098771776 7.770515636489181
Sb 3.925481164372156 8.911249342280945 7.610685360426857
Sb 2.928856363182193 2.2816032972522873 1.8103928222666439
Sb 6.066756580046707 4.083702265487308 10.66989405260863
Sb 4.307173686579395 6.316512527610624 10.01988684701054
Sb 4.098652161766899 9.294577426345974 0.9581103649552316
Sb 3.3982262050051775 4.992080716592749 3.121623044470371
Sb 7.524241563546673 0.6350428926454759 5.578306473373435
Sb 4.879004125811677 2.5116960370265464 14.609737033739648
Sb 6.518989978405868 7.15977352887239 12.810843131008413
Sb 2.8620979951481367 6.204894284470132 13.472732545894734
Sb 5.6400665845060916 4.040208109583873 5.209334416568467
Sb 6.689764904970624 8.249994154769755 9.990491052036113
Sb 4.814470107071961 10.497519235941867 5.379610370097346
Sb 5.349868549107097 0.796375500966027 1.9658840342005535
Sb 5.439606757781221 7.120413129994386 14.438574045109801
Sb 9.024847198148018 5.463004816300297 5.037766402335025
Sb 6.781065346038757 2.666368548443944 7.49914488992819
Sb 8.729269091267813 6.575958999884649 11.021075975897322
Sb 6.086226964573367 6.985859696344442 6.980405960392781
Sb 10.300430477768662 1.334065350511169 6.1108247317075906
Sb 7.224383901066496 8.80997046639421 3.001494273630394
Sb 8.748586647624347 5.415136227123905 8.219670195322
Sb 4.479459233873685 8.173111377637703 3.5776750259802474
Sb 5.783700439994581 4.923596943129734 1.448947595001308
Sb 7.454089286585352 9.324478189435203 5.864908503922243
Sb 10.610321629825407 7.705495479709932 8.116587843296669
Sb 12.666306289915592 3.829428107387065 6.553712778733374
Sb 7.313372162017069 2.485236303412263 3.37464053507787
Sb 10.56759919545057 3.10966430692804 8.398540921787802
Sb 10.941435448699627 3.4630056953775763 4.249785265459393
Sb 10.80568484186074 7.787303412816392 5.2354834155179075
Sb 8.306599453256165 6.228078613625686 2.335651089255443
Sb 12.951008859783704 6.689743328504232 6.797573771175789
