49
Energy = -189.79949971 eV
Sb 8.076623950009171 7.782637735672334 2.42398905329899
Sb 5.534962392991534 6.33547124326167 2.6513698760296562
Sb 9.719744324847436 6.093782471237941 4.119186897428442
Sb 12.351114364768375 6.428698778156904 2.9837492366621503
Sb 8.227022203190545 11.429094839085947 3.4236321670153105
Sb 8.557673048135893 3.468152277408056 3.7204408902037978
Sb 6.763015944314466 13.676715194503268 4.4768306328196426
Sb 11.446196251740604 9.19313916416849 2.995262370547102
Sb 4.5887595885243435 8.561872616883134 4.286749053570971
Sb 6.589912461122266 5.186079868874743 5.034379334841607
Sb 7.413667329847078 9.079115989097067 4.93844621695588
Sb 5.406819195599172 11.960327245140393 6.321247160891755
Sb 4.138662469655741 4.100623732135051 6.087946601379131
Sb 10.770064954791167 8.817147786635571 6.018684343951975
Sb 3.1051062094358945 6.810181942100068 6.118442877714661
Sb 9.31212266827818 12.77496455808845 5.732760329089052
Sb 13.071322363941963 6.976055854779658 5.731945325376169
Sb 7.818634837856597 11.188963671539284 7.752467335840522
Sb 9.77866701974467 3.3466663647548276 6.393786163796499
Sb 13.6390964234244 10.402713163222069 4.291376108815764
Sb 12.115264779532627 11.346478236066254 6.418903346986668
Sb 8.03335615081579 4.955741084573891 8.154193172739477
Sb 4.174498173381271 14.011337451332503 7.896938852105199
Sb 12.309518488961663 4.563386410729089 7.148818041816088
Sb 12.16667258325704 6.859212160063933 9.327919585789653
Sb 9.859618012440732 0.9976816044079292 7.944091147181407
Sb 5.902317548844457 14.658000478317154 10.14069016339551
Sb 8.427247859084002 13.517708270348976 9.366459320104049
Sb 2.7813081032914093 11.979998874612791 9.437402495839768
Sb 3.01283211487037 7.592536897038251 8.881253517085327
Sb 11.421899312348575 4.400689622912298 10.80051595939682
Sb 5.522612631813971 3.5367579501072344 8.565003974154703
Sb 9.631157274012509 8.276254893227726 8.836153921559537
Sb 11.18912947188943 10.516046659022578 9.925209262197349
Sb 8.994138468277331 2.760845385747064 9.913957472461476
Sb 4.848319028235742 9.879033825737848 9.166451783731306
Sb 8.693860331321039 6.052415881480089 11.052877261402907
Sb 12.532630866303291 8.762792545068832 11.778256303146827
Sb 4.086691451943026 13.08722664825877 11.767913594389404
Sb 10.309632283211013 7.5258293619634635 13.00068116789942
Sb 9.482799011422921 12.14932790150236 11.687691812981855
Sb 4.075594525558341 5.326347289528251 10.336678170275773
Sb 8.203039660309203 4.3575897305232525 13.372546108373372
Sb 11.005056947051765 4.858394454726233 13.785788910628504
Sb 5.939775205336568 7.157091577680377 11.576993887210307
Sb 7.727995326288019 9.861460925306188 11.710522796750224
Sb 8.20480780638233 8.90584154389215 14.447401490013535
Sb 4.872788435315364 10.273390766884626 12.0377280879099
Sb 6.50546855503716 6.55739548095152 14.357484825001059
