43
Energy = -166.38299582 eV
Sb 10.019501958430904 4.262507726858705 1.2513508375475788
Sb 12.049594167132376 4.801256644148657 7.027337948501633
Sb 11.516433807129212 6.270462462873726 2.745260280414351
Sb 7.683376377303521 10.644661415490859 4.000153042863436
Sb 10.093156434814347 2.4197144402382977 3.5221783138142944
Sb 8.658902948750084 6.291514120150237 2.9176141943871836
Sb 12.376374928736823 3.995668313947756 4.26592849423553
Sb 5.875005405010625 8.46436552219229 4.253113107411768
Sb 6.1709668351060305 12.874156020950947 5.046029743505565
Sb 8.550534322838887 8.369433957890045 5.617544533692433
Sb 11.926553507037132 7.479489380356229 6.280409556537017
Sb 7.863948586014773 3.980842316362534 4.435434895895755
Sb 8.010232002592293 14.63527988493082 6.366471665570191
Sb 3.8483360657014614 9.156525342524365 6.1745598514368725
Sb 9.366161688017826 12.45959619310933 7.703894299380118
Sb 9.090206885178242 4.326590334835992 7.0476807760120375
Sb 13.224842754517635 10.91518734930705 7.977149465135393
Sb 3.867359373236872 11.98467509160273 6.5221683331695175
Sb 11.831256855327535 13.240813261966268 9.040859032780618
Sb 8.026974685836866 9.369730205040865 8.319466521344667
Sb 5.344645894736714 8.323502544916025 8.502190952488462
Sb 5.884848933234095 5.230860750648463 9.413244068299125
Sb 8.478189027124785 6.442559167810347 8.995791854417266
Sb 11.46111762421136 8.797933104119153 8.812266793823731
Sb 7.933378648219622 2.9287539734552572 9.34016925028504
Sb 5.371631754927376 6.3718813499453795 12.007395901116073
Sb 13.940172860870206 9.311413187151958 10.266337475661636
Sb 6.945157065107952 10.599866766864425 11.330984576179095
Sb 3.59757573497024 12.166933621018245 9.395436374016947
Sb 8.051407997943778 14.414463950521236 9.357888844870384
Sb 4.221221768701634 9.667106155213736 10.795918468498696
Sb 10.46282562578972 11.540251580547487 10.90230350663164
Sb 9.441895341467479 7.9580693336786155 12.004049755971689
Sb 10.159417756464112 4.370721084165746 10.358984574737063
Sb 12.813579380819355 10.95872479818977 12.42190871511331
Sb 5.8813401475120015 13.236321545396692 10.794058883831594
Sb 7.531829274795635 11.90140637449381 13.905233596084992
Sb 7.105493652156261 5.302250575815036 14.001051488573356
Sb 9.28719409456043 13.65228319431613 12.40905453916996
Sb 7.215789802655438 8.267786990454445 13.863620632822325
Sb 9.83180230536345 5.291635101824981 13.062822000232812
Sb 11.43119513929802 8.893115833560755 13.894388174135695
Sb 9.240056564306027 10.111175015063392 15.331780663351802
