47
Energy = -182.60432913 eV
Sb 5.960247858657532 5.664708521082459 2.855562540845879
Sb 11.91760109451611 11.344139558676927 3.900386712317991
Sb 6.34142549478153 8.50329046595522 2.2691937900347074
Sb 9.192796118587529 12.155710181655053 3.408007292928666
Sb 8.42203176252292 5.962376619988341 4.357076681285871
Sb 5.7060782582497875 9.615258723303539 4.849025046817148
Sb 12.413859561436443 8.942811666712453 5.568046820776913
Sb 10.716908187421993 6.793531977063891 6.778752760812239
Sb 4.460339860477249 5.8923152940653125 5.334030624789337
Sb 8.226391660958148 13.664549922774254 5.737775099671757
Sb 10.718691275399433 9.446552316553687 7.882966911229347
Sb 11.568801228856671 12.384624869765116 6.572885631366027
Sb 6.737548269860253 7.322263943795972 6.343836740785274
Sb 5.816790827883064 10.514833018298269 8.110528475997688
Sb 8.218650983699943 3.63140601822602 6.078642678177057
Sb 8.480616900050538 9.443481309454484 4.1605660270151095
Sb 10.721005258044208 15.0957692689325 6.202293511630297
Sb 13.49804492578792 9.452559210511678 8.656540733153543
Sb 5.353635899121481 3.3744489454573783 6.417810870081686
Sb 12.513618041675583 4.963935911858015 8.176055545834267
Sb 13.962671034335559 12.34693007003418 8.193436912881037
Sb 8.482746877955424 12.256228525250293 8.342204346509394
Sb 10.284606057500627 3.415383177466809 9.781939496036593
Sb 10.074316120950087 14.788496001975197 9.006245284458265
Sb 5.893251872417585 3.910145981813791 9.25699677327424
Sb 8.400024373162045 5.182650420159502 8.555503096123328
Sb 4.677948903597232 6.392961799017426 10.142683900942037
Sb 6.775592958898621 8.36385219965059 9.825334000748658
Sb 4.386239451042145 11.936970264753283 10.098768549489481
Sb 14.01755994112776 6.005921833075722 10.388270863647216
Sb 6.601862975619644 13.641481989540381 10.112731155266557
Sb 12.528833639697933 13.83257992819626 10.224975813411712
Sb 13.088748515466198 8.554286015958587 11.440509014044553
Sb 11.45148243785168 5.194120584627397 11.70090495576768
Sb 10.306843519597203 7.766141171329854 11.016804685522532
Sb 10.83600665437902 11.697841980696174 11.273508205627666
Sb 8.087473840194106 3.682830786358767 12.26636755935326
Sb 5.863396973423554 5.497069354878004 12.653947645982711
Sb 5.37247427716314 9.552800236716205 12.074814576218465
Sb 7.5972822431318 11.48911315417015 12.089693809062338
Sb 6.792121186581375 7.868394785348052 14.064280435202269
Sb 10.11241171565803 14.074611872788337 12.891592331315595
Sb 9.822860707027903 4.81330609702194 14.173600328586327
Sb 11.579185642462807 11.85760385575653 14.046416110028748
Sb 9.641397019584623 7.727268345181742 13.861509957782028
Sb 8.96331034717454 10.83444082731004 14.82885424585585
Sb 7.621906840626548 13.35564059140868 14.235761045926202
