42
Energy = -163.65363661 eV
Sb 7.93179479985158 13.329587388898023 3.971765993440724
Sb 12.14432952811802 6.762299089466691 4.124092314100745
Sb 10.083059819908618 8.671226848183336 4.92986187817959
Sb 7.5591296471111376 7.244554570252634 4.868267466837071
Sb 7.997352750903384 4.39553808726384 5.258548127616062
Sb 5.955994087259789 15.068274497560184 5.1710993217127665
Sb 5.755240303232371 10.495304176158296 5.502500668070168
Sb 10.898648932748827 4.2651504108560285 4.645692775165614
Sb 13.675515526079936 7.57613692438512 6.435787824340859
Sb 10.585615802637207 14.49290265746882 4.503742600009293
Sb 8.290383061789598 11.82471979503565 6.483502024922522
Sb 11.193805055440402 8.57350238985789 7.598546476939369
Sb 4.409546845369699 12.897157755197876 6.408428539092423
Sb 11.26217407269969 12.126724163714837 6.040863852344021
Sb 10.277120149016561 16.043014931580277 6.966893267718784
Sb 7.154066409502559 7.467418235760847 7.7660101033700935
Sb 7.832052748780504 14.64093631914722 7.341299902824823
Sb 12.580735226288366 3.142015461259947 6.683119412925279
Sb 6.144803953059672 4.7394560088612705 7.491994206785606
Sb 4.675583529468443 9.086154359450818 7.743439874373705
Sb 14.105940323506386 5.204508029109295 8.008297228891989
Sb 10.013101445668855 6.250526435741814 8.947953788475608
Sb 4.735637996234669 13.287120512267464 9.301287568090105
Sb 11.475537139760172 13.786755454448372 8.397889595555018
Sb 7.085068288171846 2.891353486063825 9.49785999077819
Sb 10.167548830179026 3.3861974943063107 8.186874031941121
Sb 5.9600771585257615 10.726319422008265 9.751296131267276
Sb 8.295219332945354 6.983448541816049 13.448007033850283
Sb 7.146957192409268 14.690804248600388 10.127338473657803
Sb 8.847903241671341 10.274848147383153 9.289295345255825
Sb 6.546501571213716 7.044497337921901 11.166909370504333
Sb 9.44069981946551 12.937834966023516 10.386284946654456
Sb 8.702153533647277 4.420620164117985 11.35619374153918
Sb 12.500656064083486 5.845870401922578 10.35044909516986
Sb 5.043025214881683 2.8554837740092256 11.60095126019867
Sb 5.407586077248672 9.49200472828342 12.283878878827895
Sb 9.871383661146204 9.001625215061848 11.675528262677428
Sb 11.322916219827594 3.209359898990314 10.85455563328113
Sb 7.950302846574527 9.946486311510187 13.576093476564198
Sb 4.355663266872694 5.562535892551809 12.392215040663153
Sb 6.051802928491001 5.174453589876805 14.697308546168692
Sb 7.264921635944671 2.882827915361871 13.465631966953232
