47
Energy = -183.45128066 eV
Sb 8.305876228030895 11.083401201665417 3.3456100306654615
Sb 5.720920340511207 9.913154606000745 3.998505423933304
Sb 7.11162455645614 7.440469905971779 4.674816727765348
Sb 8.11425400008461 13.797156148943932 4.2790032786619285
Sb 13.88368133296693 9.268187943646316 6.303152523237358
Sb 11.794297699342128 8.732127309412043 4.3646955071626135
Sb 6.172810037276644 11.088792323406546 6.584246991440248
Sb 10.788391841291544 6.730926158480265 6.259722813724676
Sb 5.495924741533941 5.1362373496818 5.331884650245977
Sb 13.923946391245746 12.1477231818514 6.4628443012920025
Sb 11.199769076809194 12.999960026988827 5.582714430192265
Sb 9.87181009227236 10.419531029211019 5.710993474824052
Sb 3.577660285853075 5.746348067481475 7.3989007467253955
Sb 5.957960903865551 13.890973639205857 6.03192442310237
Sb 14.327438840659104 6.8282517965149845 8.763423731338833
Sb 7.811723183962207 7.807460822827817 7.461797284917633
Sb 3.808869151714011 10.680063805232768 8.205365707927477
Sb 4.966552560592146 8.05364298596642 8.319198165628158
Sb 11.963515157686203 8.493266972203216 8.33351909225995
Sb 12.970035148118598 4.935136467295856 6.982112158148717
Sb 7.546351478775109 4.895685480507113 7.5841323390889
Sb 13.60678248651331 12.942252565318812 9.216420171253553
Sb 8.040957087429753 10.948584992104312 9.377244831583848
Sb 5.353081335296648 4.575551783111726 9.452743758885509
Sb 10.795420699793201 12.857276861861259 8.480252766705002
Sb 7.827094838813033 7.658457224380407 11.547404885953572
Sb 5.362562429761771 10.857827067030946 10.667492091201442
Sb 11.826711650062837 3.554777438090486 9.279900550360024
Sb 12.472185229730416 10.718423086816275 10.744180085097895
Sb 7.18105132284553 13.696818835234748 8.931738827797783
Sb 11.638790984943228 7.267865344528889 11.580261037086991
Sb 9.202788125156243 11.407714335242318 12.134832606320145
Sb 14.1962158048101 8.73074792365286 11.972397049869386
Sb 9.531759189611394 15.22222879555067 9.570735435852171
Sb 13.284742370727042 10.967631039734762 13.549588866740372
Sb 9.538263851524139 5.062464350244381 10.256005650186651
Sb 5.053707801329346 7.048178137850011 11.004732798935661
Sb 5.388077669043888 13.714495514821202 11.200677607192844
Sb 9.751502911269519 4.150985612020273 13.006246048800524
Sb 13.52813264088255 5.158628182813996 11.018100122413534
Sb 7.3291922985553555 13.339087843347478 13.284098858391218
Sb 11.521677501917878 6.172597729604185 14.199623335683327
Sb 10.666633307237152 10.774327906034943 14.72113448543392
Sb 9.887610877572794 14.215938301604801 12.250779901129981
Sb 7.237314594012667 7.978565558695159 14.379322023983756
Sb 7.155463370932963 5.337209272675084 13.204478689129436
Sb 9.852284753513409 8.096285257466821 15.534461894060433
