47
Energy = -183.2318173 eV
Sb 7.631647704838665 8.98532820910482 2.2440429578143055
Sb 8.58534974547141 4.279904250100714 3.768630089502103
Sb 9.279022884717834 7.2418752795418735 3.9801184611845875
Sb 5.165784213552942 8.6432262414474 3.765860784990632
Sb 4.058195884961026 10.893286851785108 5.25535601747771
Sb 5.871423534502355 5.022305313866575 4.4663991795263955
Sb 9.42895563567944 10.786977275533769 3.455743426363968
Sb 12.503203568949273 10.42887822019075 5.363415710153251
Sb 13.231666619728253 7.35282561830465 7.060677689755785
Sb 5.736700964223699 3.567106831780224 6.995330584459526
Sb 8.48729110231808 11.256088174507472 6.10528553868259
Sb 14.846012015202538 9.776344459861855 7.061072134360482
Sb 6.93743281663633 7.410365514542992 5.6846807090403795
Sb 6.0966014669331505 12.843271032749342 5.690183162351263
Sb 3.8631266471073604 9.271679049035543 7.648044132785546
Sb 10.223950669175629 4.547725488466478 6.137612801387644
Sb 11.117177663745968 9.291434230481196 7.666714285011925
Sb 6.597117567701068 9.244533008500833 8.604283724069756
Sb 3.703016486345666 5.321132060299494 8.296507435951279
Sb 8.018961481354955 5.077598393052936 7.962511149227258
Sb 13.781002529946665 5.91064413984019 9.488223779773397
Sb 12.549180094943285 13.251861853195658 5.939552390974578
Sb 9.728509774772178 13.85367947214939 5.7661201465176655
Sb 5.7219675372725485 6.639724409621503 9.952589540890838
Sb 10.901970002040532 5.8042807884367695 9.812052392245246
Sb 5.118871595526957 13.421513502385123 8.30795326959957
Sb 9.44525892847296 15.380428055613455 8.24831814198717
Sb 13.366976869231614 13.23264033637378 8.706220431996593
Sb 9.251497787127398 2.488692838524528 8.0717268642533
Sb 13.230390227043344 10.432833366634446 9.351852608481446
Sb 11.049210244797743 14.00491501840777 10.221026492471982
Sb 4.657258458229585 10.99127771824858 9.828279741516214
Sb 9.334249933950725 11.882657341132642 9.307080014168601
Sb 3.5455736720452786 4.029475501316835 10.913593382541437
Sb 6.343386555421107 3.6009104508782026 10.310282913413241
Sb 9.0117215828996 9.579372960089074 11.084288079502645
Sb 7.46933413128678 13.998440664508191 9.882679936044754
Sb 12.533247713196635 6.658243626052288 11.994964215121723
Sb 10.62814391979679 3.0738670827903887 10.59936796295359
Sb 11.53779566311939 9.31153714134497 12.49311504830055
Sb 3.7600407591462903 6.783195472816034 12.051592455792449
Sb 8.100554061990309 10.313597995303889 13.733477339718489
Sb 5.413542472419133 9.323452653370392 13.557343778571777
Sb 8.353535321175118 3.6160676101273963 12.38824003857382
Sb 8.117684537161633 6.516992187569217 12.237204804439127
Sb 9.659426164568071 7.934805512612893 14.313179830358331
Sb 5.843372035564366 6.559348043793748 14.0635456719859
