48
Energy = -186.16901209 eV
Sb 8.02137403505966 7.790902708181383 2.4343949632356723
Sb 10.827711741481135 8.34823479718546 3.161656354201171
Sb 1.609869499373273 9.095162163158417 2.425811950425175
Sb 9.24889857566144 11.968555433634236 4.063229185347152
Sb 11.720586973473347 11.186689971265602 2.7698341083038427
Sb 4.427072601804496 8.46647414366828 3.2163789013259527
Sb 8.1378762372307 5.774192433280034 4.604619717147591
Sb 1.7546103888366191 11.431870155678752 4.110061690139153
Sb 3.3686982756890957 7.894460410625974 5.837615139234488
Sb 10.746486691490968 6.512515576970104 6.037574113963098
Sb 4.666190318957622 11.169769199305694 4.309623937836732
Sb 9.40152156679013 4.043141911941474 7.737552219556884
Sb 13.468792761830391 10.645934911729615 4.9948058845945695
Sb 12.13413382206071 4.060565363632474 6.340786508538723
Sb 13.385847361182499 7.733687841709102 5.469569533331897
Sb 5.931286654720708 4.410207044705125 6.420757216983796
Sb 0.7332180073931135 8.957672443677534 5.149691025795665
Sb 7.261613138943351 3.057465620062917 9.699442618208606
Sb 9.846601765390915 9.613004555366565 5.592383143376456
Sb 3.1552781681641173 5.2017920347326685 6.83634561354858
Sb 9.930454894329586 13.55318886379524 6.386320517527012
Sb 12.690891692149247 12.794568261818972 6.773299429919836
Sb 7.191517140701457 8.441671982849138 5.129234342335151
Sb 4.1751378395694445 11.394622188045233 7.183660226625734
Sb 11.610849401999953 9.053030744467511 9.074193489627532
Sb 12.759552586541062 11.692560808691182 9.452924299646428
Sb 5.294244965887126 8.86411182608971 8.05316242620159
Sb 6.789684781039918 5.785373838172414 8.78184036654537
Sb 6.2417832640814686 12.746293006755005 8.763598939919158
Sb 13.233033002550401 5.181734877807062 8.79719170299977
Sb 8.19984195863884 8.970402081980245 10.49198090112315
Sb 8.768965182695194 11.523316005488901 8.098964372742415
Sb 3.9468597946862527 6.487238106928681 9.306378140745815
Sb 10.550595291147578 5.85914419243839 9.65633324589605
Sb 14.131378988987066 7.915432906145938 8.263304098368275
Sb 5.688287101891346 10.470388950829516 10.548419328943972
Sb 10.192968417356694 12.707069928962168 10.324184913328844
Sb 8.645168160948337 3.0584538956753713 12.251448333344188
Sb 11.247181776844478 4.298949703484417 11.972836078527191
Sb 6.140681200090963 7.86017019043092 12.245787474416412
Sb 5.530170011586343 4.853009638824469 15.450078968193328
Sb 9.679702526814975 10.62409688176343 12.354268684701687
Sb 5.46456262929926 7.385875041966606 16.35501155608304
Sb 7.399066856986144 5.394661329985663 13.349181879335596
Sb 12.10980244538736 9.112962436129317 11.956593699018931
Sb 11.631169462083792 6.715281222124935 13.571527441076475
Sb 7.334304664862056 8.871903601847672 14.688750562679557
Sb 9.206556300457375 6.654269691138816 15.139471680180502
