44
Energy = -171.16046264 eV
Sb 3.821348937307194 11.977490072106898 6.571928446646432
Sb 2.7576120758499147 0.8297713040210553 7.960455615108405
Sb 3.777073038497883 2.5246637374080856 5.760248514183046
Sb 5.286033458686116 0.2765604202825717 4.770806279203345
Sb 0.8190506824646352 4.624978947304552 7.520459634238448
Sb 6.476900259062864 12.827584776080853 7.268091105683864
Sb 1.9673089222879185 3.5955375995723986 9.936018165299256
Sb 5.361973658322415 1.214443008805836 9.166637313220965
Sb 3.1135301772034434 4.8242722540524205 2.233678724345771
Sb 6.491150730882632 3.4567079887589016 3.7139634839191804
Sb 0.3682920040309968 5.9859938954211565 9.988630360329207
Sb 11.116028891448861 5.052243161796058 8.243409977342102
Sb 9.26208990736767 3.088190246886182 4.393041236508491
Sb 8.167310625762338 5.4519800975954755 9.984899419349093
Sb 4.287796609263716 5.638364374537134 10.09700017975291
Sb 6.273421853060108 3.057314610597477 7.0879646834878445
Sb 3.0232740088827343 6.134898768911639 6.382252864957826
Sb 3.34209275785299 7.168947712591296 0.5155107795361314
Sb 1.3742933874277408 6.392361284626387 3.9877856665024605
Sb 7.199152982111617 4.048391858908274 1.040824341732847
Sb 2.5727867624245304 7.962420993619252 10.14202517841237
Sb 12.076124635319935 6.1234856720932775 5.7326667893450765
Sb 6.179564246565356 5.9135524683912495 7.847996611242827
Sb 9.238926094573488 5.570199828872065 5.872972192620976
Sb 2.602375742214852 8.812670434646654 7.408348106061521
Sb 6.387391228369813 6.560988375039091 12.010350927025288
Sb 5.17948804140701 6.3871833798414235 3.5521278457531396
Sb 10.302625130211556 7.386823266827271 9.65974402637397
Sb 6.367930555818798 7.175283881684232 1.049528344982073
Sb 3.0631187528663046 8.545729544204935 3.024356117047111
Sb 9.058016984121721 8.79746980333734 7.377588871428013
Sb 5.793750082042095 9.04868060312715 10.837767221721949
Sb 6.831430599238417 9.067012137384962 4.955214676185692
Sb 8.728107811176658 6.932870381271798 3.205399118320183
Sb 8.238072376163343 10.360630653377076 10.293154130050448
Sb 9.876239054378576 4.552458105362873 1.955962666720461
Sb 5.530166003231164 9.267940893108374 7.759818419358756
Sb 11.616299612507184 8.941536466045141 5.96010606073437
Sb 6.213393679437485 9.94582309262304 2.246050094244586
Sb 9.273114435691982 11.706792848584696 7.2887194229794705
Sb 8.935586758503328 10.961902752443052 2.4009670108533814
Sb 6.674893921388987 11.977490072106894 8.566993637618932
Sb 7.658590679809219 11.803801622036355 4.8600896292915845
Sb 10.822767479340754 8.831625684065017 3.1497060639290284
