46
Energy = -178.65386035 eV
Sb 10.328148729671868 1.1067191354011983 5.107115586967915
Sb 8.205634864617798 2.3295605626384734 6.756751323474717
Sb 8.408004162290736 1.2051209401231204 2.9198095438733427
Sb 6.898781400694006 13.372791849113476 5.96007244821199
Sb 11.676704485145176 3.415824639588838 3.9866629709885015
Sb 10.514706038087603 4.950523944623837 6.176467504871426
Sb 5.170411728193708 12.285438251871136 8.020054343893769
Sb 8.634074195593033 1.6575462805581598 9.563887365780372
Sb 11.5028350896023 7.6478528667472805 6.877500498608055
Sb 7.343117613341639 3.8060023500598272 3.7533318177724615
Sb 9.6040912785223 3.700761147478926 1.9609641880081787
Sb 5.930837597260989 2.267278805885278 10.46913146500005
Sb 4.7399623252122485 0.42071394817798574 4.148207872175196
Sb 3.047109474012221 12.507273838464563 6.041030127740777
Sb 10.169962716729017 6.807065881193469 9.298715058111108
Sb 5.8011022723845596 4.148623735813162 1.3188674924454948
Sb 7.794098069372515 5.60815319697235 8.065115732919011
Sb 9.26040444370446 6.63409539831995 4.0864607296593425
Sb 3.1021592261815996 0.7167176624350529 8.339898401428357
Sb 9.036221935085027 8.891546957443389 5.8925537470205365
Sb 7.983559280430319 4.282981509179057 10.625791349214309
Sb 4.88732720012173 2.951144622356112 7.856223133427737
Sb 7.891538128977264 8.350070107481574 1.6595353081496
Sb 6.436572669677145 7.613550974430933 4.048649429703605
Sb 4.161775276805405 5.064539909141769 5.054026231347223
Sb 7.655450488824335 8.316767925293162 9.093618335909508
Sb 2.82944369206203 2.5098968795303227 4.66775757009874
Sb 4.972026431369473 8.487901628386313 7.236357493849437
Sb 2.7357343365523548 4.575830937979453 8.951763849416402
Sb 6.113254702358384 7.8628571817666755 11.505718265813943
Sb 9.49044356843567 11.326868846829283 4.3204189615578565
Sb 5.281100494588053 7.025963300618269 1.4521026027637838
Sb 3.1017702058627434 4.432191329317563 2.470140235042015
Sb 7.737237979924082 11.19877667972736 2.008799225869506
Sb 3.6156633995886103 6.500066963874346 10.935636381593717
Sb 5.3841172540360684 11.249075080650979 6.832315477974267
Sb 3.5664624452665663 9.53854179008578 3.401662344089525
Sb 1.7386200009401875 5.758679378710445 6.44738773178831
Sb 4.0065143931334095 9.160616337661729 9.954655606877585
Sb 1.7150738296925279 8.539994551807572 7.372737500058219
Sb 6.776238238946021 12.285438251871136 4.489089747353153
Sb 1.3003434813395323 7.797856305983619 3.0329744727644936
Sb 1.1644496648826084 10.507279446235689 1.9768434418777403
Sb 2.5839452876518867 10.82364175909818 5.786392021321049
Sb 13.139192813391023 8.71320818627703 5.227092390488819
Sb 13.444492707350072 11.430838109082186 4.413465700474189
