49
Energy = -190.13929067 eV
Sb 14.773199112843836 9.33358500538132 2.5490147961717895
Sb 12.737352776853786 7.666958258182083 1.328990191410064
Sb 15.45124200681571 7.153775159345727 4.351000749353618
Sb 13.443816018835314 5.477223148051415 3.1034735714402584
Sb 5.13058532342854 5.441557430356731 5.39280699596224
Sb 12.304523367505599 10.613066259066075 3.2297573662850168
Sb 11.460630103689285 12.146169763886853 5.585914179172388
Sb 7.058461436644958 7.60012549027482 5.81012316276874
Sb 10.550518946767175 8.372559274871678 3.41891126821591
Sb 3.9962362317833766 10.920757974438457 6.590264006246739
Sb 5.631211850799207 9.749092213672279 4.4598818707536845
Sb 3.623102507910463 7.196054236357752 7.161537883045274
Sb 13.591801365977663 8.035941661870018 6.403030655545321
Sb 8.021959748361061 11.393998444699289 4.454548448002315
Sb 6.181315301426958 4.336739217742358 7.859601232928354
Sb 11.5790975281245 6.355944205198634 5.22880327475917
Sb 9.763576497938987 9.87410441949252 6.183580438448949
Sb 9.014168544573273 4.08747966039949 7.277881621699888
Sb 13.400734877863858 12.045235305627902 7.7015058579676134
Sb 6.153362404677998 7.1660439562632465 8.611068397110168
Sb 4.8128219032021615 13.702896970506503 7.079091475352136
Sb 1.954537375832749 5.737091902166559 9.044935049203223
Sb 14.576436872943901 6.1890821600995425 8.395168852952988
Sb 6.214784684678998 10.520003812225095 8.382942806483186
Sb 4.845495861100068 6.732626538722631 11.777635667353708
Sb 7.565931420194914 12.675302621440295 6.977288972102375
Sb 12.265751076031535 9.741007217460613 9.027520408801353
Sb 9.608998620437474 3.461072305181311 10.04541553622793
Sb 9.795435584858327 6.774734146115776 8.099431638210516
Sb 3.9086357250263233 4.265161834114785 10.577467707757021
Sb 5.104619657934845 12.79198743050999 9.848789744382408
Sb 11.643042133996842 13.543266227010202 9.50953545542458
Sb 14.181786643183916 8.132689407646529 10.4583967736214
Sb 7.694105238652843 13.750280759507485 10.8136489290654
Sb 2.49811640810971 8.099439154815663 10.650505987179706
Sb 11.910980057631951 5.39302925195206 9.503340105153665
Sb 9.339220365155798 11.84701378231701 9.28639450166428
Sb 12.457433183528012 11.431620966495597 11.363383639047138
Sb 3.062177390472404 4.93353191866872 13.298661060632917
Sb 7.892079277524412 9.400724378083252 11.697992351620497
Sb 8.841580752806815 6.091123244161848 10.861319814418597
Sb 11.737324847329722 6.977909056406691 11.964961244221453
Sb 1.3387455580366858 7.160361444712257 13.085191474604267
Sb 6.704678167880692 11.797913972518813 12.727684913849334
Sb 10.589922025494241 9.643889309690287 12.712817122982917
Sb 7.342629682739069 8.055936612058657 14.224569484045881
Sb 8.053640400201957 12.113080423829917 15.259204182343943
Sb 9.24142345767179 9.555614923365694 15.857609611768938
Sb 6.393975767930549 9.958403236445951 16.210605615650454
