48
Energy = -186.27078991 eV
Sb 5.118750785501542 6.930358063417825 2.9499348579325426
Sb 3.9146770874696446 7.405526336496828 5.452223764685631
Sb 5.250760627957757 4.131051601594508 4.220306238594818
Sb 7.943230156542858 6.988788011602131 3.555441369839026
Sb 5.698733769709229 10.34568343471463 5.076618157048572
Sb 3.972457080674173 4.611102308772505 6.810227511660136
Sb 7.429960458916517 11.64712911592344 3.1249501779294344
Sb 9.350362979201973 9.510181994906558 3.1331851246036724
Sb 6.249354051539043 1.2366335096156746 4.578791462846694
Sb 6.0887261503954 6.573444651707513 7.162644879479946
Sb 8.185669138996426 8.835970365746793 5.742095971364945
Sb 5.677477762282655 12.417254443734477 7.105455321759257
Sb 7.8814847707151925 3.5091850812895777 5.253488650701754
Sb 6.081451749858302 2.3144443643567394 7.143610459267473
Sb 5.853063967210709 14.175406622568596 10.67082550477088
Sb 9.066555680201931 12.974241924094008 5.136484883661398
Sb 4.082973526618525 11.959359031121393 11.11131528673025
Sb 11.733852079687223 11.788318983663642 4.9990814634191825
Sb 11.905190048690823 14.38218443073321 6.305099319906934
Sb 9.578365114783663 14.549030526188 8.134133285869424
Sb 8.4683594592664 11.839568253777827 7.757403509525076
Sb 4.274594455630495 10.425297293929438 8.637245380096532
Sb 8.622634563126717 8.40740684013328 9.725503154696826
Sb 11.387691156053167 10.259616082344762 7.476891403344507
Sb 11.904941198422941 5.815083596863915 14.344434836686418
Sb 9.493539686851584 7.359103648515277 14.413003184122658
Sb 11.039484423198953 3.539413020198793 12.785757924859718
Sb 13.764848569880046 6.46225591295629 12.265659828761928
Sb 9.800092242795069 10.25429141739932 14.428336424531269
Sb 8.379956575380847 4.133416952652017 11.903562345071462
Sb 12.370557125716882 11.171603847142011 13.417509434301651
Sb 14.021152418380833 9.303719655961181 11.933067274896251
Sb 10.933430516133317 1.7391477037906433 8.889738009486173
Sb 7.811957317944413 6.927255938967637 12.135512996653858
Sb 11.802919817241174 7.892001863509281 10.686923258649722
Sb 8.040243357362645 10.579685198677653 12.117433244029009
Sb 11.910377030890688 4.098695336948335 10.007616542882824
Sb 9.11452094602802 3.836771274248818 8.989356022014285
Sb 6.138268520661958 13.874774299515083 13.565120868459491
Sb 11.354035632792716 11.597801525554265 10.733192937375263
Sb 5.4991168691083265 11.019159856193362 13.449819411295143
Sb 13.666641741470594 11.195181085607231 9.005280049204869
Sb 13.75499111971361 14.05563497562849 8.497678420641021
Sb 11.506949115365442 14.465207929816097 10.331002098416977
Sb 8.39016387189322 13.437611962834845 11.782570592424928
Sb 5.673363568497862 8.096892019882437 9.59643717766055
Sb 9.536758624452018 6.513839537128604 7.650121539766941
Sb 12.325253273314734 7.464208352102752 7.857848622598958
