49
Energy = -190.5938719 eV
Sb 6.264399797718359 5.008421761634648 3.542111650191209
Sb 13.998337299169453 10.466306397978796 4.248664070405596
Sb 7.2175658697719545 7.648887344654084 3.109536342500698
Sb 9.312401028127324 10.392808118499033 3.950045922940964
Sb 12.618047191196103 12.952897948145463 4.463286785511981
Sb 4.619758662834697 5.8359792228433 5.848412210491477
Sb 15.403355668594674 10.017805745956066 6.746486541886581
Sb 5.1944601765254665 9.039800224152623 5.086815105120714
Sb 8.171825628413066 4.1147594495853275 5.543085286776799
Sb 10.120668634552441 7.03297489413173 8.075679068330887
Sb 8.097932298738225 12.893328815081832 4.674258028684528
Sb 13.320767089531108 8.025118321146849 7.407846916987743
Sb 5.343935941642693 11.984190219622283 4.850385663477704
Sb 2.034897999651706 6.679024042969942 7.106355612534294
Sb 2.9690759678573295 9.344397627483177 7.364270916512439
Sb 13.43556859297837 14.33136588692951 6.838128547582432
Sb 3.784553421175511 3.0808636650574597 5.935946734641516
Sb 6.431847163090017 1.8791972702518571 6.117701399352971
Sb 11.519496377217306 10.67200439076202 5.799488243802948
Sb 7.986574357171224 8.526353227377603 5.738090292700252
Sb 14.945255924503218 12.396497164212674 8.303056870548902
Sb 3.980580590708366 5.731740082896552 9.054120491049941
Sb 7.4357151188637145 5.896641987769651 7.727531193310193
Sb 3.491016399477319 2.8845140084735457 8.848124547331562
Sb 6.162280818684168 1.6928764962458311 8.997898735895799
Sb 5.140281161966785 13.299643060480705 7.4117788052160405
Sb 9.55005264202082 10.840279217875286 8.524216904891288
Sb 8.343637464711003 13.35683658826955 7.516130468139855
Sb 10.895143155771201 14.796669802042985 8.172508350960538
Sb 12.052317172719963 9.273870825893152 9.688992044236262
Sb 11.596993375287385 4.5666680429846265 8.228081704555864
Sb 13.968159660540948 5.845557678619612 9.325108863231074
Sb 7.5806899233580145 4.002030854878413 9.957283078167434
Sb 5.217536813315758 9.062127981420685 9.141358673356319
Sb 3.4894118313935327 5.924136073557114 11.928977087448855
Sb 4.610028644422841 11.837322265481337 9.64851626945091
Sb 8.208024125466183 9.267797390447418 10.649321544452846
Sb 13.402433764390018 11.683814732641151 10.616064343431342
Sb 10.783742863668845 12.84339255234576 10.269645930308405
Sb 12.793296130137522 7.221440642683208 11.60869253968868
Sb 10.373255091977361 3.5406933078798186 10.674811697725614
Sb 3.696838338832764 8.791866132305099 11.660590597197496
Sb 6.3035768678755035 6.422635663609753 11.414843395364354
Sb 10.051649717051676 6.384643145656928 11.291323227441161
Sb 7.313663414124761 11.008367950352286 12.735834477770295
Sb 5.514239336255025 9.124467789726546 13.968152714350799
Sb 9.93027418509747 9.808162075038704 12.996173422722084
Sb 9.651558454792472 7.179521943305581 14.14297322456354
Sb 6.85631999748273 6.572742119497497 14.234735607613839
