40
Energy = -155.31577003 eV
Sb 11.867957742454292 9.943207711531032 3.7499488766604996
Sb 10.691319153164844 5.6685205433235755 4.630938509510316
Sb 9.55534260095427 8.246349695998715 3.9767081176667705
Sb 4.779394133994126 6.420930876300835 5.142018419609133
Sb 4.623905390930336 9.268173031168024 5.703804742085226
Sb 10.072298227095455 12.222697291924183 3.521897505460494
Sb 8.334701833465843 4.181860062000033 5.4952819392783185
Sb 4.294857741765341 5.0062569764113825 7.600771505973634
Sb 7.685148261875131 11.333418876173114 4.949744982654797
Sb 13.042476939262615 10.622416699762397 6.2860848871764485
Sb 11.181250627941042 6.507775258767017 7.30607698857646
Sb 2.2953289404733854 9.704129642466343 7.329740812351574
Sb 10.65523950673282 10.810388957390334 8.00465031373847
Sb 8.682702366319837 9.14487180819404 6.570964620497793
Sb 11.616925561697835 13.764443982821712 5.368859872196657
Sb 3.207283508844193 7.380567414597967 8.945788103083995
Sb 7.510944628838876 13.543362328256832 6.75968505688847
Sb 13.709316113231687 7.898768850103669 7.112426965915208
Sb 6.919188056088072 6.154299796329205 7.077804591186975
Sb 9.612252740513695 2.6338204586201988 7.57322596742989
Sb 10.262204405058784 6.666728114525368 10.389360664301508
Sb 14.152732410670833 8.688327575201376 9.907458370528346
Sb 12.218321700050444 10.703688270011146 10.497759239526838
Sb 5.652550819817097 9.061955307558323 8.409110981792844
Sb 10.19309379330209 13.695100657243747 7.745866741588304
Sb 8.14666103192347 10.614920504459871 10.03645328955342
Sb 3.9078205720791828 11.179644423831903 9.327598439488929
Sb 6.472238923470189 12.822128997779307 9.37473208852583
Sb 12.19467307597692 3.85339389361428 7.945486195429822
Sb 10.340958848512612 3.739422266833304 10.160466426338397
Sb 13.048411932575087 6.295339740345152 11.089539021698902
Sb 11.22700935427277 9.810814799755258 13.033752374145752
Sb 6.9825999023115175 7.49258252240663 11.019289521234532
Sb 11.093510415992505 6.9221691944465125 13.128320110651508
Sb 3.1117545255044456 7.7479188981564056 11.886793698504398
Sb 8.632402429560694 11.08979338968687 12.890824430723304
Sb 5.312117186049553 9.733778037820569 11.94746307811422
Sb 5.01929121085463 5.6608090986614314 12.258570737329904
Sb 6.834494844136668 9.470270002567394 14.504093456517074
Sb 7.290308720587669 6.72594422130449 13.771628534416378
