48
Energy = -187.29792914 eV
Sb 7.195017581210132 8.543707097624672 3.79997298344148
Sb 11.233201655603589 8.15988296169098 2.9962146558065523
Sb 8.092879407092767 11.250237087506536 3.591263384835088
Sb 8.937559041959796 7.192060817231442 1.9571347162993231
Sb 13.850321756876728 1.908255971844493 6.050652348733139
Sb 6.071963234880929 5.624504051060184 5.957426225656565
Sb 10.311015175164666 10.042012788858598 5.037129265712615
Sb 6.54340198091394 2.670274841824231 6.074084051154964
Sb 3.4773121783546235 11.306821988642644 9.339730140867376
Sb 7.180827588201199 12.191521594087247 6.152670266253857
Sb 8.600465371806617 7.952214005529689 6.248606647000814
Sb 10.978917422943082 1.8208782233638214 6.172868112634986
Sb 12.495830388064727 1.3457786805165588 8.57121847823214
Sb 12.435619941083297 5.8765895372732615 5.421105823966541
Sb 4.58012971404476 7.363525208724907 4.22791698025423
Sb 12.666633991518951 11.7978121560318 7.97326419771168
Sb 4.380209782786044 12.20705674030387 5.658998400679581
Sb 14.435043944691964 4.575327783104837 7.001752117647339
Sb 9.496586460148466 13.9594697676773 9.556476272766
Sb 3.372734886724496 5.293190492811554 6.800172010722623
Sb 10.0400017048087 4.547001164653211 6.320018032897789
Sb 5.57003133120064 13.196573533568088 9.937594327305726
Sb 13.099899956132779 4.030076474491418 9.496425075900497
Sb 6.885808729280332 9.718625202619023 7.743144745615907
Sb 4.233809560136258 9.12687875896633 6.666344294408835
Sb 12.502457957424614 8.296908093995242 7.025525071269107
Sb 12.387902635017467 14.297191823055416 9.44855370640537
Sb 9.91761715098261 11.168544347245044 8.781901451719584
Sb 4.178269294608874 2.6103866324808944 7.721727824455842
Sb 4.643364030903536 14.4350910953226 7.451611912921154
Sb 4.128460263166751 7.026700006296357 8.93888969108384
Sb 11.12632375018634 13.468174931750598 11.894819312533581
Sb 2.842262100769631 14.074191793493508 9.686251298243599
Sb 6.7100222237710625 3.152083674948455 8.89135361427
Sb 10.368178293655523 4.797794122626873 9.1419952370258
Sb 6.862100533646653 6.122076823484791 9.240132430242955
Sb 13.68860744227548 10.52518785806794 10.355908489792526
Sb 10.665013748131303 7.697065737830898 9.234877257128007
Sb 13.536293140380456 7.688474829127061 9.651701991213082
Sb 7.650980459558068 10.31284554427089 11.890316485792107
Sb 5.229490310516288 11.790844676615587 13.32319142115142
Sb 3.0120070414725473 10.547753893710524 12.121076021363061
Sb 10.973565615726583 10.600877957224897 11.42868351463652
Sb 8.780768514069516 7.486287689728237 12.3893078087977
Sb 6.506552669566613 5.848478450347223 12.120300719233969
Sb 5.238377569025134 8.56363315527899 11.97413817297771
Sb 5.397641635288078 9.24863720391689 14.778516067340837
Sb 8.292701643113611 9.34467353806037 14.561217752782039
