44
Energy = -172.03709843 eV
Sb 8.35966358632549 1.823550998697869 2.3928174813247494
Sb 8.193635068749458 4.582471729613747 8.0271783034065
Sb 6.714381305245008 11.838063045069099 1.6717269182700132
Sb 3.860767318529689 3.1255233205797954 8.039111017699055
Sb 2.1583138922043514 4.61787439402166 11.879924101866235
Sb 8.367797171385403 8.221683433305424 2.284526351488895
Sb 6.729292788482199 3.328974349196806 11.708969642992304
Sb 9.020276361358952 5.473030536430175 1.7684315157452182
Sb 8.483102468572067 7.343803958118019 11.87225892185757
Sb 1.8310199751459721 11.99881211451256 4.811792542536396
Sb 9.230892160109612 2.334964157431983 9.469253323697806
Sb 6.64025439220669 3.4405797659070827 5.886425767482082
Sb 0.12145090488148179 5.941077564157544 9.826226189027775
Sb 8.864638072304302 1.6974855014052526 5.252509284898867
Sb 3.1648951259406637 9.326148499333954 5.296500592658985
Sb 7.1126266291609594 10.445015365631253 5.184124113966828
Sb 0.05300144227727291 2.418980949787342 7.506249524627337
Sb 4.2115067561973305 6.558744791799476 8.333794436838724
Sb 2.2985210814626544 7.836149322269558 2.0832559573148672
Sb 3.978987526026534 11.371999928650183 2.8428468258838984
Sb 5.487971653559052 7.7264487643797475 11.644099638450204
Sb 1.4889683034253358 3.3908255494690445 9.800221477042285
Sb 6.503501732443367 4.0447609708398895 2.2167346323105748
Sb 3.7204318697360965 1.7844127612523892 2.13502528992691
Sb 12.082668675822807 6.622800368187611 7.0420020687114775
Sb 2.2670921017978767 7.487316023724321 11.560072035402724
Sb 1.454356990631431 4.470351530083148 6.020599692065003
Sb 6.4180282826114246 0.5909858976986195 6.264684024748939
Sb 5.2342152987904065 1.8988452632130386 10.276489714524836
Sb 0.17776354715571288 4.207600573676101 3.434997301653485
Sb 6.132086608715141 8.735847464753816 8.562266514449977
Sb 2.762669992274837 5.021376352552419 2.456016076948087
Sb 4.471359431383419 6.761118917753318 5.425524477873289
Sb 5.387473003648047 7.755155234238029 2.30051649865556
Sb 4.919410248341261 10.874348905812074 7.038582807579091
Sb 2.357129152484139 0.6492413305333512 7.488278626450813
Sb 4.72028164360305 5.093392863349658 10.63663212326706
Sb 0.8362175165241247 1.4676937529233398 2.72771150946256
Sb 1.765382847637539 8.025462681439883 8.666515549341492
Sb 7.252315098148341 0.2725490043185929 8.995998068761688
Sb 7.147592047299066 4.038794484167333 10.63663212326706
Sb 7.170350580177327 7.661774176577007 6.056040115562522
Sb 4.9479492108751355 10.438905066430255 3.270108192248541
Sb 5.090105385250579 0.9381315749322414 11.948687304039
