48
Energy = -186.14484004 eV
Sb 9.622093294344753 9.151383210839352 3.763479787491248
Sb 4.729408612133251 5.216974270228847 3.4164257124494455
Sb 6.801020655543021 9.210710087118864 3.3588936410520343
Sb 7.16889059018178 6.471351113260308 4.306499847024842
Sb 9.906908876113974 11.930288280375281 4.554369469426405
Sb 6.483045843248866 3.005762825074989 2.749021255327448
Sb 5.514861382210463 11.184625649326408 5.0948925657943755
Sb 12.720615586753226 8.398665807617203 5.273617488888229
Sb 10.07848392022999 7.490778123874322 6.171463759606544
Sb 3.7494591342964734 3.638988861893657 5.651099696072594
Sb 7.699945328146019 12.626984841718134 6.162235878888776
Sb 14.813434864574154 6.775645186731212 6.487153213580708
Sb 5.297141951358438 1.321628893935219 4.831259845311125
Sb 9.025234158874168 3.0026157770376685 4.226413129917841
Sb 12.162983900582821 12.833590927109038 6.1726418734417905
Sb 10.572542965492394 4.624033108766447 6.052505306675018
Sb 12.948391686774139 10.293801565291599 7.38969681015118
Sb 6.014971137050384 7.159923054873425 6.853470481437079
Sb 15.703158503233167 9.298231315454803 7.6038261074374915
Sb 5.102636482028531 10.281970338475217 7.8795396135175215
Sb 7.841153826134925 1.311735842552428 6.2327084998237225
Sb 13.387044264651044 5.48655051675647 8.639842459828621
Sb 5.008331121787123 4.731590196696717 7.987869640594475
Sb 8.359998458878787 13.792895523315497 9.276532907828802
Sb 1.505237237914536 10.438055328981036 9.447238290113926
Sb 7.867637252713223 10.87925692431477 8.729173391635692
Sb 8.206665444974984 7.374824233244631 8.721311439665431
Sb 3.6123221995697308 12.361802277184372 9.267351648606903
Sb 3.0524806745569415 8.028087407737365 9.059790096596796
Sb 10.885769979483863 12.491760290495566 8.858716031875133
Sb 7.15340306231783 2.887469896952235 8.513483611235216
Sb 14.609308787333804 8.919987145401418 10.253173999751006
Sb 11.96503280880308 7.877433863645089 9.547912927446271
Sb 6.908344112172234 10.080546120206884 11.460567452164595
Sb 15.07720081356914 6.164714241726074 10.929883600032243
Sb 10.604145205909058 14.470390240007452 10.992055066070801
Sb 9.405477350772719 4.66036312311598 8.708682509150094
Sb 5.47264868050446 7.737238100834171 10.681716451901403
Sb 10.549654100465213 10.199712701411036 11.666301154426751
Sb 12.448090698611626 6.61781294044414 12.155820390044914
Sb 12.220733096033149 9.07876526124729 13.751673995395
Sb 0.8392760251440797 10.023418150544634 12.196480306962856
Sb 10.74317706377664 12.616381067831526 13.219204264767471
Sb 1.465413373041103 7.247803885635626 11.544061692111136
Sb 4.899007240442241 12.042754044218986 11.860744222625339
Sb 3.867775709545654 7.49494047796401 13.12086871022049
Sb 13.147816845771766 11.321265395366538 12.169594004711085
Sb 3.358466433207289 10.321332304421428 13.58557649217858
