48
Energy = -187.19768251 eV
Sb 9.22486049423318 8.702653681890062 2.793870657222457
Sb 8.848236039141549 6.177231684878568 3.808852049972646
Sb 3.4805668184506984 5.442383469306058 5.151185598748255
Sb 11.528611965207913 5.058489006132587 3.8531762386140502
Sb 11.90872329342415 9.479284329227973 3.2956638747293656
Sb 13.304749210062386 7.25722021132712 4.466884062225435
Sb 9.585186098946334 12.669948205691966 4.673571506405904
Sb 3.52441102254214 3.9700219265591428 7.641117055952652
Sb 10.838284178031179 14.566822851331134 6.488416234777978
Sb 13.07713037298721 12.718670049063048 6.3180281045361
Sb 2.3773152282258474 7.723931099056807 6.610426491077911
Sb 9.508211582736868 6.193749956586563 6.715651639866902
Sb 5.717453241619142 5.7288412068130965 6.98760971562811
Sb 11.125932949186577 3.7895047584182833 6.4726705841408245
Sb 6.790003968019697 12.897597947884906 5.456259150855597
Sb 7.744775684835618 3.6160925037742753 6.756235868958979
Sb 1.6511202445195534 5.902028053369389 8.730220039394911
Sb 11.163338538895593 10.553341125116733 5.867589041772175
Sb 12.597602206332567 7.475405553820945 7.310961128955919
Sb 9.3343193869406 13.140592459431572 8.451314404099964
Sb 4.604441886884878 8.539867874384509 8.389358275541003
Sb 13.58071917807675 11.0512637356422 8.632377893906979
Sb 6.946201376534813 14.627165154103023 7.746636222810309
Sb 13.652492055050724 4.826511480361667 7.4697394871104015
Sb 8.075264684062008 7.23346538114871 9.198812885787493
Sb 2.5547740277918076 9.682163938031895 10.150606510724366
Sb 14.652161642429958 7.606150188502455 9.54008992072283
Sb 6.937830609800102 10.969121725580331 10.043466579090389
Sb 13.272387005211094 5.204316006048171 10.296774983007877
Sb 3.5928900669730037 7.029511605839941 10.644767742602792
Sb 14.009221812792077 11.693965652022255 11.4165768134762
Sb 11.034802988237248 9.821059940614624 9.470465675713623
Sb 8.2946577153926 2.960740083796762 9.479614451502862
Sb 4.418220052485885 11.475660362709522 11.460655752952887
Sb 5.398603246866938 12.158276203463412 7.895205599176028
Sb 13.014783247863415 8.914055797094724 11.506609442753009
Sb 10.184993407710174 5.3071548467431775 10.092961260950448
Sb 9.930848832123008 14.355207066442183 11.02307484983928
Sb 6.449434400386157 5.004380637406027 10.310405983504817
Sb 11.142992974544615 11.840777526886304 11.667682857818452
Sb 6.452840898749254 8.14512543270584 12.07725569448992
Sb 7.24857203085507 13.465245836822378 11.549882246488782
Sb 7.050451779315735 5.461201919816497 13.120891401956813
Sb 5.408295794025894 10.197779731935977 13.86470771962562
Sb 9.29831368729688 8.647827592272696 12.027901790804853
Sb 9.913460083679949 5.951895009682289 12.926051109384629
Sb 10.02838650672671 10.65544921159678 14.075993012534498
Sb 7.565958692669209 12.1556831875409 14.116563596662504
