46
Energy = -179.48363171 eV
Sb 4.138424989661198 1.4399115490428207 3.6954906360751227
Sb 6.817108850672572 2.282828974106454 2.97947401508108
Sb 4.585387386211662 2.627528839324892 1.1374881327347497
Sb 11.729969498920738 2.454647309552005 9.143357555425991
Sb 2.444398514970405 3.376975563194641 5.00312370562101
Sb 7.053073834462656 5.152243822070015 3.176006458863963
Sb 9.037335810599432 1.7121994080171117 8.316463501701252
Sb 1.1686070579503582 4.520523728530393 2.6609603530706734
Sb 9.632931445017624 3.0156096792905354 5.768691147464536
Sb 9.673054908218718 5.956828013887381 2.1286844409891796
Sb 4.971874548406934 2.709365879748738 9.42247182038326
Sb 12.957858476462288 6.524817988294625 9.981806190720816
Sb 12.03290556740141 4.237147197001239 6.894993127235895
Sb 9.277793065010291 7.654795088286335 11.114787060823367
Sb 8.014720042133971 5.408924484252923 5.925006260942146
Sb 3.696952162163624 5.343091684409191 1.6064777078628896
Sb 4.246232809582364 5.6506429966471075 4.731780520162736
Sb 1.2537061640702798 7.988508376026941 6.959775741333523
Sb 6.585494405281021 2.689130531941511 11.77517122733329
Sb 4.4299357888188275 4.595635302339128 11.542909685763501
Sb 10.919763337188986 4.684333628108346 10.912017838857643
Sb 10.344833086972601 6.798993099113909 4.819101775923736
Sb 6.29208116294817 8.303591021214269 4.2991437162505175
Sb 8.951562510253646 8.59096125613038 3.038998321972729
Sb 10.695290266117869 9.567008858642815 7.620672006940404
Sb 10.517074922246284 6.2346377899087155 8.49763867148728
Sb 3.631253562732115 6.564486119061814 7.688193366968203
Sb 8.37308584360448 10.072425763595588 9.636877905108497
Sb 5.806101170792631 11.020282310774029 3.417910607429068
Sb 11.922943125196955 8.651205215723941 11.71022973341112
Sb 5.909510889395563 6.860338478523141 10.491596830136396
Sb 6.99140451065581 8.097805490896112 12.906880945040365
Sb 1.7940521086107426 7.001112175798112 4.173620463207854
Sb 2.348907739869956 9.068075797987806 2.243109998955523
Sb 7.575355313395665 3.98990643492932 9.382848686002836
Sb 9.785798077871164 12.068223660628409 6.44922145476909
Sb 4.070981833492642 9.090870055151061 10.347312039154248
Sb 9.974120698061164 12.024238530776602 10.960948947215364
Sb 7.20910143587774 11.95789754899108 7.672026216643969
Sb 12.253654751474636 10.738975044259487 9.707968834591426
Sb 5.161309252624091 8.710550939480273 1.6819802103784358
Sb 2.688886679653887 10.476965927141642 6.825022695196327
Sb 6.208501717732083 10.555812342649718 11.685907579937505
Sb 2.994418498748085 11.236429202633708 4.031459247934838
Sb 5.097856407133689 9.067010380269881 7.625562492959688
Sb 9.255322479595513 13.747443219907785 8.729766832200614
