48
Energy = -187.09892966 eV
Sb 8.478798491560612 10.89866914209065 2.633373756786136
Sb 8.726405337355 7.9738137432050955 2.881682015403074
Sb 5.304962330829923 7.153975680692909 1.8027077513232117
Sb 4.5656141302497275 5.041254084769298 3.368861079825767
Sb 11.607018360778698 7.9639985885232445 3.286191391087228
Sb 4.061015355731078 9.464302528316388 2.838967507213203
Sb 6.258706115955746 10.429526820091432 4.402100139321662
Sb 7.087897571188679 4.65412623692912 5.311634746772146
Sb 10.167816239998984 11.676611957619173 4.760944392950917
Sb 12.465043431422238 10.762315634994348 3.293657753492609
Sb 2.5301187811019115 8.77778916795089 5.15759845436545
Sb 9.917208985765829 5.275179509802187 5.028746347716458
Sb 3.1443013522953818 6.014846724902474 5.664551695447743
Sb 5.490982840817181 5.8901957216946075 7.435556180458589
Sb 9.842866022018985 8.230328502859846 5.546410696227276
Sb 4.990331891396675 12.486893031334443 5.996860143855071
Sb 6.667016286719957 9.110155335896152 7.06594648415927
Sb 13.994263146226137 12.653735733399046 7.238949309648992
Sb 7.599872328625581 11.885299793471415 7.25841550980723
Sb 7.346914265538798 2.33128389633554 7.06205703779871
Sb 15.628281662667431 10.309451827103159 7.305675572017042
Sb 4.659641172932697 3.124141376142174 7.788740855207543
Sb 12.889527843907882 10.21566148998486 6.1279970608160905
Sb 11.047395808238685 4.175706822281212 7.510636804164664
Sb 11.647739745335247 6.865476639049897 8.378950146462465
Sb 8.4763290789087 4.3621434858440775 8.753247734504836
Sb 13.73287689573911 9.35609002617287 9.254703286179927
Sb 3.9556079241400663 10.12602744605681 7.322049059591713
Sb 12.490574486654031 12.805292457928157 9.76984902567105
Sb 10.481121823947337 10.791113586000888 9.24515275067425
Sb 8.44670895230332 12.805030006594238 9.909259937588578
Sb 5.688940732091078 9.021174096474633 10.295944320265622
Sb 14.021800688261845 6.582538402719931 10.02034792357139
Sb 3.3539510467275546 8.253300861946112 11.903395806221985
Sb 4.589958183608397 3.18056221971824 10.704049756994731
Sb 13.779060206569273 10.956327424137442 11.617515745965415
Sb 4.815691100590252 11.790724539109444 10.596543536289845
Sb 9.190520702684498 2.8998187381580274 11.137052297012199
Sb 5.7321772261712365 5.633067871134428 11.709544707044362
Sb 11.455262139338657 6.908463393466292 11.278763702683799
Sb 7.0696045112683725 12.162708701043584 12.344386524279722
Sb 7.28302820847356 9.299987410945114 12.70843821985795
Sb 6.6828662729036985 1.6443757536671744 11.895282543570417
Sb 11.103561171396759 9.77784676215417 11.898095299288673
Sb 3.032454739425801 11.01815936110487 12.747707395401916
Sb 4.764459562485538 9.238115712542896 14.202805564241576
Sb 8.441282040925016 5.23692643620342 12.623618919356252
Sb 6.257732280685387 3.7507747913965086 13.880342585374391
