46
Energy = -178.6472158 eV
Sb 10.965295355590088 11.446461320152384 6.044485019615838
Sb 8.398321272088738 10.72789569855385 4.980523096726532
Sb 7.410356019824288 6.760146294278599 13.428652898726286
Sb 6.047844649717804 7.588046715432062 1.7326154027562668
Sb 10.654548543634274 8.98394476360759 4.528381221041282
Sb 3.9522292055858834 10.993857430563187 4.312377227411451
Sb 8.972262589829858 10.104276166840863 7.740086875771137
Sb 6.1672650694609175 4.18294065077886 0.05791950012492034
Sb 3.717497823905079 4.3556798578237155 12.57009313428902
Sb 10.444703360293477 4.855192778812457 4.636599851184051
Sb 2.5070494675221817 5.5448957333215265 0.8303674978811986
Sb 10.3492767004126 7.618543433508861 7.076303202390891
Sb 8.734123115587968 6.6384309675136794 1.9268611207871449
Sb 1.4623956154436089 9.667697765332658 4.9819361033353715
Sb 4.761266910597639 10.830106306904629 7.108360454151316
Sb 8.936030356408132 3.7581720034732733 2.3750279347822296
Sb 4.811259591192129 4.973168307712667 2.5752976857921315
Sb 8.145932157099873 6.024524050311207 6.112446931494959
Sb 5.950419715245525 1.1272419452652158 0.24258718514942884
Sb 5.524756922527872 8.704240529930315 5.25944552454385
Sb 3.421282842163368 1.4847667634735071 12.903609788552114
Sb 6.697756096155446 7.561464315748342 8.827146322369863
Sb 0.5248269036530109 3.574680279058964 1.5079758676402637
Sb 2.1708591718042367 9.806432344654821 7.827482369816007
Sb 1.8040732027822706 3.9100189638541245 4.128723404928712
Sb 9.80657272440205 2.394801222645341 6.07695034770393
Sb 1.9066025034059846 1.1013012514044047 1.2583454798591904
Sb 3.029551085130235 7.23204350802735 4.853844562300961
Sb 7.635854440065745 6.609965107630575 11.362190952794593
Sb 6.304882956036533 0.3673800347384403 4.33810111802869
Sb 8.853594519544874 4.096854740658282 8.219328659552277
Sb 4.468704620063206 1.8203470495279492 2.5399532043890423
Sb 5.431745064950713 8.076419040131771 12.57009313428902
Sb 7.32193824888192 3.042727472244494 4.7145904960269345
Sb 4.688677706604218 9.100324182359055 9.969499319013012
Sb 1.1971956236933117 1.6968097008496874 5.891562981208072
Sb 4.156003901910313 5.544870636421205 9.012533183852923
Sb 1.970900826280477 6.751236949015232 7.488822124514192
Sb 7.357511810362773 1.6864065139639237 8.77173289462795
Sb 5.860171168519597 4.482711459191021 12.326463054682405
Sb 5.347458758859604 0.4259993409146451 7.070888247903872
Sb 3.7069637648431857 2.7762148888777367 6.790860939645776
Sb 0.12979396627024095 4.328533259495637 6.366613003313068
Sb 3.5010294923632364 6.011191049109136 11.785985959891752
Sb 5.32454693781572 2.0542412489661466 10.800704075940407
Sb 2.889646817027685 2.934654622770093 9.556018845070533
