43
Energy = -167.55461915 eV
Sb 13.45859022836371 15.026537880701818 5.243744289198252
Sb 11.438173672997163 15.867696615070287 7.138556238307267
Sb 10.922714108264156 13.592524211273087 8.769871882713932
Sb 14.036766110168463 12.313050952962087 5.86262269247233
Sb 12.958431827920174 11.635603457421421 8.41702545485805
Sb 11.725799731168827 12.888373669082 4.293260030731201
Sb 9.67128565372747 13.723167463846872 6.205480281180845
Sb 9.660325002090508 10.6545998100906 11.480521129101447
Sb 10.215566826331049 7.8896464693381665 4.1900444971210185
Sb 10.993660873908762 10.108312642347355 6.926848480791527
Sb 7.635104473675027 10.518820870027175 5.182352976081612
Sb 8.151809268416587 7.825621589394944 6.254124711837506
Sb 12.502471926259824 7.628314987302245 7.406802908564096
Sb 11.059780942197433 8.236275590652923 12.28178431458298
Sb 6.648964702167906 9.633843186331765 2.5936102529709752
Sb 6.777083116079433 11.12850813099652 11.593910939950252
Sb 8.045947412416899 7.112558374430529 2.3836948496890584
Sb 7.34033237855021 12.04923112131966 8.838347858997091
Sb 11.327086425839385 5.601461006568908 5.643971095274475
Sb 5.373270018087031 11.409353893240114 6.7741152174568455
Sb 8.90301693111075 9.623744722056246 8.903133535194867
Sb 3.850100394003578 1.8607629282407538 9.542559694106545
Sb 3.4080147904196263 3.8944739548390324 11.573469327590434
Sb 5.977915799790144 5.002229548535883 10.91335686102353
Sb 6.742828821861712 1.3368726570712637 9.583168240852574
Sb 7.294109636502979 2.7253340128646957 12.072218323667514
Sb 3.396113414747815 3.939972961574504 7.502787091615854
Sb 2.0595439698617777 5.543078535246541 9.571091838752038
Sb 6.374154104622756 6.685379004342981 13.26712692840822
Sb 7.413960607239957 2.7174666562807537 7.0816650087295105
Sb 5.991178902631914 5.107378000755547 7.743794937510184
Sb 3.014405531260945 8.082369197046571 5.506900007431164
Sb 6.908331538771501 5.693320647320297 4.670365656992996
Sb 9.768093969408497 4.158170497991979 11.562956671435714
Sb 9.26047458160193 6.294078665898127 13.504533610193736
Sb 3.960095985619564 8.592713450585766 2.794192935886709
Sb 4.957085745766938 8.957821192421585 12.143533168244588
Sb 4.133271174160946 5.951083609236031 3.916263334599111
Sb 4.312059321887179 7.4231245770967025 9.7193076849656
Sb 9.98378236096325 3.9793481211598665 7.746736267922408
Sb 5.226560668220838 8.58008777872746 7.256004651245251
Sb 8.933874849383804 5.9994256405508635 9.47186086838894
Sb 11.70199264222933 6.522392158455848 9.986413694058674
