40
Energy = -155.21325714 eV
Sb 8.249728704161724 6.211554455619264 5.537787327492923
Sb 13.328191818350001 12.755608141614234 6.359918561390629
Sb 11.6267536294655 11.08154727315184 7.945440520807739
Sb 9.408577663520326 13.555207341965607 7.3028278479159745
Sb 6.003851401381413 11.978469401981076 5.280061262692123
Sb 6.114488082185365 14.815642948684504 4.752505082036932
Sb 8.25367259187381 9.02922486801741 6.33497786380297
Sb 3.9690577768780666 13.706959740817336 6.328556279277043
Sb 11.86589534534121 15.108381667137204 7.252001105472536
Sb 11.153368920466715 6.558253453748005 5.332211120022106
Sb 8.780051133741612 5.385308103260806 8.281994792553563
Sb 10.771265141390197 8.305103315436504 7.605994134401173
Sb 14.355547895531638 11.46376247903711 8.778799195212404
Sb 12.310744302281623 4.497403535855606 7.071718013099099
Sb 9.964651809122463 2.8931589442660686 7.638774024506854
Sb 8.12713459744112 16.02477195753613 6.489940420771229
Sb 6.612108086390493 8.253590605649572 8.564931196989283
Sb 7.812026608834949 10.260729832862195 10.57710697385333
Sb 6.120877754718534 12.805630212053597 8.040610034532932
Sb 10.226476162255272 14.831490489620949 4.878645909074481
Sb 10.38719942003469 7.332009328473543 10.84431108864592
Sb 13.699463975840647 13.44561374587303 10.819024258993968
Sb 8.429591362858641 13.181581367727821 10.816121652054907
Sb 11.009387829783217 2.8790557061489657 10.35692755841473
Sb 6.731470633192574 4.443025741242701 10.110883665274503
Sb 12.361204874339615 5.434438298569703 9.85983909160807
Sb 14.078879287820033 11.828699155479063 13.182132344423747
Sb 5.098768535002361 10.511164139714552 9.537829194554288
Sb 11.183591717417615 12.045467597950912 11.245175028838084
Sb 13.203673059748748 9.595279680860841 11.693065203615806
Sb 7.477820371741263 6.834038767708192 11.603741199374614
Sb 8.646874677977069 3.325718734073822 11.91428483745858
Sb 7.881268725358165 12.507229827949493 13.47248187965152
Sb 6.431853148756203 9.779094191511179 13.146347327493508
Sb 11.308410994946302 5.903680200546731 13.21523634804668
Sb 8.554969321621602 5.825055061422134 14.150303127512673
Sb 12.586891755018554 8.33026065639123 14.226701121367931
Sb 10.953610627939714 12.344118001039694 14.10749628470084
Sb 10.148720679493016 9.630444923840509 13.485102340225295
Sb 8.09827331561323 8.628619844997136 15.184588521675561
