47
Energy = -183.36098103 eV
Sb 9.02312267371815 7.88836181406437 1.2208244461135185
Sb 6.942446323144176 5.996296884309403 1.98946699487894
Sb 11.284864645648486 7.076621511796397 2.7775056293843816
Sb 10.834241486558195 4.4865743307859205 3.9443154746332474
Sb 7.985016807239908 3.9283192452190496 3.7198727591600815
Sb 8.657956746938478 10.628038369417217 2.1586331264028225
Sb 4.369153520852768 6.890669783063884 2.9562362066445744
Sb 10.92853984211999 11.870948212873065 3.548825079659351
Sb 12.880252104852412 9.868703568940912 4.325493607794855
Sb 4.556167313555621 9.644750829320865 3.8095795332563287
Sb 6.028515603652024 4.225206770368148 5.796068436727387
Sb 4.0968256250271695 7.567437488794575 5.760279564518584
Sb 6.758138401771934 6.90400915382649 6.693140405082298
Sb 7.345835199347349 9.65839784805061 4.5035862206067
Sb 10.707524288230731 8.264525938972989 5.36481227989675
Sb 11.981557372256747 5.801644467956533 6.296583033104178
Sb 14.52281994016277 10.990010514467018 6.486121778230288
Sb 9.71226223395717 12.780673552304936 6.03894336450992
Sb 6.852822552583146 12.237434732951357 5.699852777193348
Sb 12.842647611855705 9.582331416062695 8.32882000894806
Sb 9.743460311414074 5.230675339402049 8.047055697896772
Sb 0.9940383034044221 9.525641575054088 9.57581435809347
Sb 0.5270988728246453 6.752308726001219 8.95185180851376
Sb 9.609615361125021 10.443146174317587 7.789286513228504
Sb 14.52281994016277 8.091925260415808 10.884033538319958
Sb 11.200561394123616 3.1098730687827554 9.39619267521565
Sb 5.992229865346372 6.179277489968727 9.449227052669714
Sb 1.1227498086845187 9.029958950633308 12.41724667854996
Sb 12.611653406596476 12.491240897580212 8.060203090024325
Sb 4.473704316964859 8.5033138665541 10.258431475283999
Sb 6.631178751216922 10.394204094642669 7.961045677503232
Sb 9.318561184984878 1.107145613623382 8.46991190654075
Sb 13.772210984830568 11.276410851182264 10.471478855158155
Sb 3.7797406826237205 4.413233814673224 8.784947360656862
Sb 7.262262634675031 3.1691135482709316 8.280118751262568
Sb 1.8952958649883096 5.103245619304381 10.867334064701772
Sb 9.406242545604044 7.7637348413792555 9.504250206061997
Sb 9.328605314527945 1.8801768164742654 11.22626380781409
Sb 3.241054166167428 7.065521326660787 12.439960965256644
Sb 9.707127220513824 12.370745517048025 9.926941880350192
Sb 7.05026189813976 3.682719706123458 11.4638929728578
Sb 6.44309118453063 9.564725040287836 12.148975873234468
Sb 5.160860916085505 2.1018637761855756 9.951289869094207
Sb 11.29609155051663 11.11076760033796 11.984854358082618
Sb 6.884887517417818 11.860531843220299 10.445345778501059
Sb 11.109941545642721 8.231383187768978 11.783526755712883
Sb 8.363817977411745 7.3614366518032055 12.146834933910899
