44
Energy = -170.60284704 eV
Sb 9.92642869839022 7.639503442931515 5.525917466604222
Sb 3.9892344251662366 8.88907727497839 2.8544442838803943
Sb 7.882285494871726 1.968448773075596 7.694716874867181
Sb 3.7498380365197366 1.4456650816036827 6.306623782898868
Sb 7.946268521568288 7.720384392906122 7.713842673193895
Sb 2.1508638399094746 9.905950700194769 11.135748597110288
Sb 8.162939815814793 10.33120101197917 8.919673868359748
Sb 8.266333437519517 3.2783450150785822 10.244916123799966
Sb 2.5528294198276673 3.584597302465705 4.723789404406293
Sb 11.646747348309342 3.775553813148769 5.590136184307245
Sb 1.2976623584313418 9.703542286383415 6.540876259681915
Sb 2.880496987831901 10.98456523547954 4.492955489361552
Sb 9.205620816999097 6.7842336141649575 0.6703726855924831
Sb 11.67543039384732 2.862376664162561 1.182472783961448
Sb 8.124380117943057 7.124888883120932 11.954989216564254
Sb 8.95692966643119 8.569710264537495 2.929976539379853
Sb 2.1654605422506563 5.729826198217808 10.931364290113601
Sb 4.38496133643327 7.935825361194167 10.794627879868449
Sb 4.845833616069129 5.560816072435915 1.6794954605415584
Sb 6.558894461534135 10.176294387623328 2.420895882192346
Sb 1.8644291305852716 4.7509669633248475 8.25860138964301
Sb 8.428103198324234 3.981377077549806 3.2021348518281223
Sb 7.204617941752164 11.016534500398555 5.10360374471533
Sb 0.565235561879091 7.884812169536405 9.846643221745486
Sb 6.958716259125395 9.663178763587096 11.35638974424205
Sb 5.533264015314362 6.106623831429483 12.827592954969521
Sb 10.386773709890052 4.766566383093437 8.968585864057296
Sb 9.40812901667389 1.4318253788962272 2.2930582668591075
Sb 2.355562536511435 11.348272180110225 8.650029799588527
Sb 5.0125332073934725 4.685804388659857 5.716227820248605
Sb 4.300810700647116 2.837001633818618 2.5328263446312658
Sb 7.335578933101282 4.576911663516468 0.6113514273562026
Sb 5.625578764018072 9.07695167169002 6.601401065013143
Sb 10.920838681303016 5.3221486499131965 2.5678403820522373
Sb 4.461373818873417 3.460915539492353 8.329776368876058
Sb 6.186716372034127 2.177078248534245 4.786920779004287
Sb 10.798986445882806 2.1107122224827477 7.833533639438278
Sb 6.465114908094739 5.5716824433978385 10.154337013136006
Sb 2.7344168168999365 7.579625638367441 7.947705065067528
Sb 4.9423582813657365 12.695183468782975 5.660938222356281
Sb 9.01995474389791 4.851074265339231 6.3675131888784
Sb 5.279813277769842 11.508063442603047 8.297882423954183
Sb 11.87159219399045 1.5577377277949802 3.7429156579491423
Sb 5.924939102998498 7.023022925993104 3.989231971699105
