42
Energy = -162.87557987 eV
Sb 7.657642695388948 12.57823072141613 3.6731305081387147
Sb 5.048591928804148 11.72100845558301 3.978843601757552
Sb 7.750132851464861 8.514333499798477 5.09866592101924
Sb 9.008188993602035 10.13637141643862 3.071588361616173
Sb 5.06829740194374 8.832047671736362 4.085674123720432
Sb 11.26296886486758 11.363904506788737 4.396737382718938
Sb 12.355443694270367 4.840905559707 5.524254496076097
Sb 11.141431437563268 7.361986592196704 5.681964590506288
Sb 9.621613896319825 3.962463912378922 5.286582912958339
Sb 8.202485747149728 13.114634096177873 6.97310030502715
Sb 13.145303367232788 9.476692530689986 5.614888813104867
Sb 4.9683381828652715 11.293775572769125 7.066928160724
Sb 12.068241262683747 4.038748675998767 8.593557837536858
Sb 7.689420482572332 10.237848157960928 7.428858290930796
Sb 3.5749861402024496 8.77724873997947 6.650916551617855
Sb 9.99813289432156 2.2831189620925203 7.632473565560261
Sb 10.921860886487995 13.281934229189968 8.03527122526516
Sb 8.343437971260892 7.484753825200583 9.261260865221463
Sb 10.897095370786642 10.53891045128858 7.13080627016314
Sb 7.712684954900049 5.601439038400576 6.8060206816797795
Sb 11.327926851648048 6.864968753905397 8.69711289427508
Sb 2.1017675542924708 6.685601969154723 9.534986026502597
Sb 14.06515188580086 8.023633693083202 8.757032523093693
Sb 4.71475502019882 12.373671358431336 9.829756415071145
Sb 10.782872609826867 12.715681820306997 10.910242951624193
Sb 10.619349352559583 9.819257724903931 10.603530333690859
Sb 13.581334455650655 9.811468361505382 10.956507292655314
Sb 6.819696995755147 14.271500287234149 9.323076490483965
Sb 4.317920355724041 4.862589033516986 9.426632679951506
Sb 5.243262797825616 7.5477824656977175 8.734767834233207
Sb 10.855488970989024 3.892491567998725 11.349400949662693
Sb 7.375468084488735 3.1988987000329536 8.476196096445912
Sb 8.206841862555828 4.914224019767897 10.628657855630703
Sb 6.849294628940649 10.60871770998015 10.762985003615709
Sb 3.580728456403454 8.774690945438493 10.762882885885553
Sb 14.387736510441977 7.112794850219231 11.486030917825671
Sb 8.032498207234326 13.083578888942673 11.658497934589455
Sb 11.557428178959086 6.586361747222115 11.807994497821372
Sb 5.586427015555296 4.9007871469264135 12.0084054935529
Sb 6.600309774630204 9.601963289599281 13.439002466509827
Sb 4.689385633850472 7.456746593636112 13.071695754509838
Sb 9.083682613608438 8.267859298329563 12.59870707865216
