42
Energy = -162.83718318 eV
Sb 9.618568261010848 8.687525599332009 5.24587487724028
Sb 12.316719835024845 7.88371076582867 5.904456924348637
Sb 10.408776500726464 12.905514680071178 6.430812995523583
Sb 14.837658500796945 8.807886699737958 8.510660856172192
Sb 9.172446419217204 9.275538657629506 8.034661135457288
Sb 8.292963742366227 6.225602079431614 4.579506015633575
Sb 6.49351819782032 10.435735053223478 8.024305383934529
Sb 7.975247030819146 13.753391667038892 7.733278425446146
Sb 12.689230131283747 10.659486296968211 7.968978251004687
Sb 14.88151163896293 12.58295705536578 8.077198445878262
Sb 16.103872942472243 10.928409988597197 10.083665835597255
Sb 11.343946597159144 6.531320625594456 8.393439909230036
Sb 12.480880756672308 5.033132192087709 6.212415303238378
Sb 7.347297055831165 14.44451550303457 10.487365078592383
Sb 9.83953213573651 4.011768314753598 5.625314090777715
Sb 11.999155109219707 15.302810457877676 6.661979167597733
Sb 6.942507064402067 11.559822088651396 10.673491312676491
Sb 6.615471942507854 5.646713029810951 6.879944173956967
Sb 6.9850312040714275 7.657620225326959 8.962317510201771
Sb 13.76001656485125 6.703544142293305 10.15144337994524
Sb 9.261123863543663 15.52695347152042 5.825359582342604
Sb 8.270728792975193 9.775308923084017 12.594812572523768
Sb 14.099343736845933 11.139958908416602 12.155373945185763
Sb 8.782039991055008 4.427481541787077 8.263937716087757
Sb 11.60812786029584 10.568769521334964 10.729327775796106
Sb 9.284315237465357 7.320681619267683 11.284413453735889
Sb 12.524794174331966 8.217376291458036 12.239177605954541
Sb 11.347635341401228 13.825481996052783 10.705152590090945
Sb 5.600935542767615 8.579339678770179 12.119404725742049
Sb 4.753044328053239 11.275331130282426 12.557345708373216
Sb 14.818410546759402 14.920461106049363 9.785966098841808
Sb 12.239554853697209 16.220590061740083 9.371877213847641
Sb 9.400127592908918 15.004171609889799 12.435508047784706
Sb 10.64168525425044 6.766861661084459 14.218634939423838
Sb 13.710884530692743 14.033145684265335 12.317558743270041
Sb 8.046093590664169 5.7865634895502165 13.452259711164324
Sb 6.529460552184641 11.995189539909934 14.795587908536156
Sb 5.9849067011419 7.42026073648348 14.707148038591638
Sb 11.016580278991043 11.09457631623387 13.91879888234217
Sb 7.308571409181311 9.572713515653279 16.129490000150515
Sb 9.26224326657952 13.145765989351844 14.703431243529305
Sb 10.185998959061122 9.126970120958806 15.829282460031212
