46
Energy = -179.15343277 eV
Sb 7.973860762454732 5.710207095991948 3.0632341962030627
Sb 10.780425570553176 5.224042260160423 2.388906770055003
Sb 7.952412805400818 6.482010400491056 12.830996736792052
Sb 7.038274292984609 4.224832928835701 0.6791009038667043
Sb 11.402538737977226 7.404428328522569 4.200825812777336
Sb 6.907310895873952 9.083903748223221 4.3453666893162115
Sb 6.464918444050035 10.515958865051365 1.757668556954431
Sb 12.740744076213836 3.5956067830759433 6.25320503353133
Sb 9.388385055928792 7.568558929915805 1.3788434129133105
Sb 5.853124952641271 8.349989135243147 13.574041761706754
Sb 9.64551415846248 5.067102213469393 9.427287526381795
Sb 4.2071619657907595 4.876551214919335 0.6219173709611091
Sb 3.671046459207931 9.79934476340845 2.192893611700946
Sb 4.662283286351097 10.86537848918603 4.700971363126812
Sb 9.959362555553017 8.985521008116828 7.709379954867685
Sb 7.927758963074954 10.742339603862176 6.545942586040435
Sb 9.97295818568624 3.362192991349639 5.481251015662403
Sb 9.59085215083629 6.368928096483542 6.2260259522081105
Sb 6.002095606728598 8.958403795049254 7.7246951615898345
Sb 10.734656266586901 2.6169541815945943 8.075571770091916
Sb 12.434694881643182 6.4347322658169475 6.729560488950959
Sb 4.9873035843958515 7.122207569336608 2.2522956925551734
Sb 6.582848225745751 9.634728047494308 10.431385242561882
Sb 3.625232749872193 10.554623602887682 7.403742190560703
Sb 3.7387856454392216 6.367316409547947 8.587586860768988
Sb 3.433246727653672 5.0883238491135225 4.878711477692408
Sb 9.086205149151038 8.145824207604642 10.25081806695321
Sb 1.3256968612725173 6.379983181672998 3.378742542420832
Sb 5.580152482967135 1.6386800838637878 3.281670713567983
Sb 0.1944088205479093 7.905187851713297 5.582288534616061
Sb 1.752168837408196 8.395582395060176 7.94560603605022
Sb 7.000763260516576 4.034934079589265 8.974386163958123
Sb 6.4951796222038825 2.971165790554837 5.717663390342152
Sb 3.181512241263252 3.1617424901727436 2.7442121645702513
Sb 3.9429843362947232 8.374343852269 10.687883555745623
Sb 8.367872266498129 3.3443514118308375 11.39328237362807
Sb 4.39946677865444 1.8458492724510118 7.430012005811334
Sb 13.00947909602337 5.519835687641924 6.86731633771277
Sb 6.499319473767375 5.5644944890055505 11.35707140329656
Sb 1.4190390728008837 3.615605852562382 6.3852376094161984
Sb 2.0666225299186567 5.048509637655547 10.587133856427906
Sb 13.26977355388805 4.234758514410849 4.2738018106301885
Sb 4.407254215710849 13.626925603260144 5.265370880907444
Sb 6.775826351630846 0.34775804942604027 6.895282969830141
Sb 4.185660067976461 4.10857795639184 12.299619313132814
Sb 2.960871315389738 6.648317021273531 12.830996736792049
