45
Energy = -174.77949938 eV
Sb 7.260249759460828 8.418514567412807 3.173459028378941
Sb 9.801996607652615 5.463201758852415 3.809013610955536
Sb 9.398497224884675 8.049055811615421 5.07634608005904
Sb 11.5682640859107 9.357951102603968 3.6796236378183824
Sb 3.2522949922165263 8.864269436351993 4.488942997232025
Sb 10.268794544570023 11.954590637174698 3.4065582560656646
Sb 7.662428905141411 11.196461567350855 2.5568746513472496
Sb 12.030155976433923 4.334741796957482 5.256227566853552
Sb 5.962433974679355 10.299744879849763 4.879029786697885
Sb 12.239149820159488 9.332445352951405 6.515691552949746
Sb 9.3651620606413 3.7614078647185147 6.10362646898114
Sb 4.021253191618499 6.226727600298297 4.843654790213185
Sb 2.591469143079624 8.90258570596877 7.285710751464665
Sb 10.079796471452644 11.695707119994859 6.317834695786769
Sb 4.624588975916662 6.897235874682414 7.54281872401783
Sb 14.283740747773093 11.269374133855512 7.09600445272656
Sb 12.383418923847346 13.44750426385204 6.767519056252128
Sb 4.34306107482075 10.984365041328806 8.284468065678567
Sb 8.172110239247916 13.4163040406877 7.9586668021695335
Sb 10.903394858114229 5.815233145404499 7.440177271877203
Sb 11.805688759925143 4.173081883461061 9.659435858808365
Sb 9.272512892136648 2.781933441522358 9.858827198107345
Sb 11.543482458066423 12.892934275913204 9.440827847927066
Sb 8.934074680785828 11.016093630694543 9.32162192389653
Sb 7.452570959856603 5.0430894398799895 9.427253986812202
Sb 9.623561635522076 14.919488241505963 10.04159968839939
Sb 14.33228687040366 10.34841556891762 9.906357336589576
Sb 3.2829062596769774 5.0685265955507495 9.374373244207693
Sb 10.425296051737684 5.9362243522635545 11.463989688465373
Sb 6.76403401498551 9.501542057696486 7.645270026907698
Sb 11.884469780738412 8.753540551434261 10.029540469330973
Sb 5.2800017076050905 3.180293872473834 9.73117657523959
Sb 13.70426922751901 12.799527125013276 11.30984240845885
Sb 3.3270728130039045 10.00618668145384 10.794164648178999
Sb 9.346854117026393 3.4756700246629197 12.675950376085005
Sb 7.083951842847485 8.37619775786035 10.915345610282637
Sb 12.698270791388689 7.429862784217387 12.513773290420888
Sb 4.372812418112442 7.302747833681702 11.273251215405907
Sb 8.974400056626905 12.734551600456658 11.839800836016877
Sb 11.55764432620926 12.11158057853932 13.12992769508102
Sb 6.699338883320685 4.63053395634426 12.218108665742209
Sb 7.619205543866208 7.208083299177843 13.503370165500517
Sb 5.698470554524597 10.494363912440253 12.389462156620384
Sb 10.64175671682124 9.450397102892682 12.525952460731075
Sb 5.001090368277681 8.21599703863909 14.066813687863604
