47
Energy = -183.4693022 eV
Sb 7.665770766060018 8.33618314196484 2.145501027980934
Sb 10.328387848815154 8.091841673727837 3.2748024628792956
Sb 12.106786443481717 10.332913973029461 3.6437950385078905
Sb 7.216822025180887 6.311252264833399 4.199151179154497
Sb 8.20868156002457 12.521062040273822 4.334615969379568
Sb 6.460815339290814 9.05820492283013 4.65243210237993
Sb 11.260460105125174 5.298178274065343 5.698895696755956
Sb 9.962529598023554 3.7455221774958005 7.764666543516907
Sb 11.045092633642371 12.907983043993475 4.486977661653072
Sb 3.513072709646649 9.949990230127472 6.9435947954069785
Sb 9.343601056199457 7.390495167984956 5.8813976730894675
Sb 13.238694105268236 6.828190656912614 7.201578762281886
Sb 12.782839156752976 9.647079229154404 6.392143758057152
Sb 3.616561147768201 8.537632315915658 4.433119203981506
Sb 3.6560081071244284 5.749832455440876 5.198476245278956
Sb 7.602106653107706 15.049889420021369 5.577204769697425
Sb 7.145084111112235 3.419124855453832 7.03664275147402
Sb 7.079646607387391 12.564091785965882 6.980039618952621
Sb 14.987222812622454 12.096847232768718 10.717810815069512
Sb 1.1051590058899108 6.107872575352555 6.522281263848248
Sb 1.394759765955532 8.455648835566539 8.172388869172039
Sb 3.864961922490989 3.7963483447041435 8.569159595717876
Sb 10.288430215552461 10.39867318878906 7.608574331629222
Sb 1.4189792896728382 5.042661234944559 9.185111500453603
Sb 11.496265062119459 12.98763702776359 7.3297823526068635
Sb 14.369989798458937 9.650585451851624 9.42093365654567
Sb 8.803893520258626 5.598275363900844 9.65275618996157
Sb 5.546837193391028 5.967517360818614 7.395279636471715
Sb 9.074902988167999 14.404104875298994 7.972047549938908
Sb 5.894057990679197 9.250174213897377 8.388790950854562
Sb 11.514645796498002 9.466370478305244 10.08680919222286
Sb 13.025460616786328 5.901048237975958 10.003091927773527
Sb 7.439830833418592 3.0557956072096575 9.939862515381495
Sb 2.5122606802439145 7.553457296405853 10.695214303171861
Sb 4.9504121065190585 3.866154833964699 11.209538793003095
Sb 13.45233251738309 11.856475477584203 13.105594809377477
Sb 5.279111718167128 6.702846536693065 10.54904044296278
Sb 14.692449228681108 7.710336535328805 11.50605578094946
Sb 11.192075215966243 12.03992539663408 11.35619800168808
Sb 10.780425938730145 5.190644288916198 11.700654868851618
Sb 8.371989666994503 9.043950518282955 11.472896879312641
Sb 13.609913021689033 9.090255066731912 13.830525441504188
Sb 4.281634988206502 10.113874663513261 10.543745336437679
Sb 9.36125732703832 11.020602067535531 13.36252382102307
Sb 5.7260987641290075 8.73385251398244 12.62243830998753
Sb 9.266661198538154 7.018538561536359 13.32504075740543
Sb 10.888631530190302 8.963669273002298 14.734427534699508
