47
Energy = -181.64185582 eV
Sb 7.9463304094855856 9.104358378507234 3.1667201059560726
Sb 11.58753704954465 10.145633299374968 3.4835078294812374
Sb 11.584789693219141 12.633127383861538 4.957269442109658
Sb 5.754153652383359 7.541867324201397 4.084831496417105
Sb 10.731882028375281 6.534339029388527 3.8152152134081274
Sb 9.534444278432414 4.629790442037617 5.636524081483905
Sb 6.831856511095759 11.691469647285182 3.8473014291060443
Sb 6.8467803070052105 4.917045045074828 4.572003416423915
Sb 9.84170798862264 8.84906606323631 5.344218243433332
Sb 8.824847689400322 13.570096396864553 4.833445925430629
Sb 13.517320512198882 6.3976397971631 4.713438818716739
Sb 13.799944203828323 9.226772062464844 5.129792700593646
Sb 5.299445833623973 11.560012243171057 6.272596493982543
Sb 4.247318136873484 8.891863108602285 6.314290035353809
Sb 6.121062526484873 5.567004331706007 7.339881091561777
Sb 9.018812121590434 13.503107245491883 7.752768093514297
Sb 11.066735704560225 11.407300275868351 7.507290322691609
Sb 8.942111141702808 6.3354592203233535 7.922035325011501
Sb 5.493479624132769 3.0064053922154423 8.577709521979306
Sb 12.358422297590101 7.588586966115941 7.059232294969195
Sb 13.880707142951472 11.667610624469221 8.255811964506364
Sb 7.305767403252762 11.254812101930584 8.326528935681111
Sb 5.44920687285387 6.9043543323543215 10.085573558252747
Sb 3.86761957084091 4.46685300355211 10.603379404191255
Sb 3.422820784027853 8.72865903412008 9.117267167321213
Sb 7.2166129853193475 4.2688603539167245 10.482290678815254
Sb 10.219764742036013 12.34692812016792 11.198586471953366
Sb 13.159653334483574 9.071942190662751 9.446654566815335
Sb 11.979708319964915 14.600499640025719 11.479193540080828
Sb 10.059603223412445 4.703220558876628 10.095259605231218
Sb 14.433936165043647 13.172163592942658 10.735725319741505
Sb 5.529731153048513 12.896329717566957 9.909259222421491
Sb 7.4512676996520515 9.804079521949031 11.598878490407749
Sb 4.609522027559669 10.480014935344801 11.237032593853758
Sb 5.617684031235494 3.769092637758145 12.830909656766746
Sb 10.645476159062337 8.608464193561382 11.937059122182799
Sb 10.920591041374108 13.24273189317148 13.847482690128075
Sb 9.453513383219892 6.056510393029417 12.639453858377394
Sb 6.511336653537128 6.639402344906454 12.945186768970958
Sb 13.21653748621258 10.931991062644498 11.990806075110726
Sb 15.031851911686894 8.717201565166878 11.665400112540333
Sb 7.244403846867243 12.630215383979504 12.26018378388492
Sb 7.087203716567711 9.36920320623009 14.456702790449903
Sb 5.254031406774251 11.446388072419698 14.230919623927813
Sb 12.96767368963481 7.13409504474141 12.974162513805902
Sb 11.392392078293728 8.850110316825957 14.740449700025597
Sb 12.92392552970058 11.338846573494413 14.781293971694236
