49
Energy = -189.4473076 eV
Sb 9.948952181995109 3.080818803733856 0.342978804987976
Sb 8.06300481933469 9.12424624293356 0.8163612258844096
Sb 9.190127153999798 6.4324098718365725 1.1101660006883374
Sb 8.481268362229105 9.632492138711 3.5880941302625007
Sb 5.21070944226701 8.97050112826595 0.9336706245864405
Sb 10.521303195292457 3.3481167130596905 3.139203937695044
Sb 10.852261341972612 7.789420281318819 3.1126848216240197
Sb 7.191097897015979 12.32636144826422 3.6867170651971226
Sb 9.58689635585362 6.163577328848363 5.060728788953536
Sb 4.854422459388778 10.662937764537258 3.3113643275888744
Sb 7.939999671994983 2.4929026747412677 2.1716623967819446
Sb 6.015441288274741 8.434721930542073 4.838670176402789
Sb 4.894562557394626 6.772021597957444 2.767592432255645
Sb 7.406417209623688 5.3134447367028255 3.122213703777975
Sb 11.458232845772711 0.7672279105850849 4.102573132846024
Sb 8.765193269156512 8.25374039592739 6.972992044737292
Sb 10.964238072768186 10.031731727591081 6.408966116083286
Sb 7.142593639991273 11.387141127400294 6.440825590511798
Sb 11.64441382614018 1.5555498518248827 6.888036056281378
Sb 9.405972459741134 0.03803242198620218 5.972324479979694
Sb 3.655420736009464 9.78208852926536 6.967344270367018
Sb 5.779214136342326 6.5881568512484545 8.878588166097895
Sb 9.103451668969548 2.881027689167583 6.5048583318641775
Sb 9.7152254075706 12.57045045988586 7.195624624058399
Sb 8.229070475933693 2.411218533920519 9.263863404759315
Sb 12.918744409587841 6.937440140904888 9.152741298105331
Sb 8.524417004728509 8.494568261338102 10.467714413898207
Sb 4.699145226215266 12.394308959941673 7.729245601493751
Sb 12.858877499065688 9.686730126333645 8.601826012109477
Sb 5.437917343148977 10.023063584583852 9.24136327491014
Sb 5.352451915329246 7.169802946686632 11.7047381231744
Sb 5.696092311695468 3.734661121256939 9.57941206341089
Sb 10.183224582617653 6.604889258349436 8.992042625967821
Sb 9.987103819516774 12.829784829507888 10.092659381355363
Sb 3.1004316914246286 6.651959656156984 9.958077321882488
Sb 10.207198358458914 4.092333462556904 10.435495049509244
Sb 7.574773061753518 12.009677709291264 11.457342806785674
Sb 2.6279791353015023 9.525520227417129 9.704491935125231
Sb 6.046886380680324 4.393347826460585 12.36907314728667
Sb 10.896453652669438 10.131585834134142 10.697722924579912
Sb 6.618948379578579 14.565934487738229 12.428531388999156
Sb 8.784819504676186 13.24644508799546 13.749818717724374
Sb 8.884651434037046 7.80769439453183 13.23402706755579
Sb 8.894615005023914 4.8211005654255334 12.82379274271412
Sb 5.256397204052038 10.503172683343053 14.163874880790436
Sb 4.342286328727554 13.149622397654566 13.453976012516272
Sb 11.379901926151318 9.164635972589329 13.299053301065292
Sb 7.530017321342987 11.466865408657297 15.621431902395628
Sb 4.927654654502848 12.534995522208519 16.1939219776919
