47
Energy = -183.01182088 eV
Sb 8.16695932029797 7.07248714352289 1.3261268321014517
Sb 7.173086256372492 9.823559290402379 1.221521565213365
Sb 5.707993998425998 6.312812089078558 2.726602482590184
Sb 4.882772725613346 9.098014517651121 2.833704767763579
Sb 9.717472024703909 7.7198854902573695 3.7630061685167804
Sb 8.707365340874444 10.478121978102635 3.6822271455056086
Sb 7.745917937454469 5.8669715219228395 4.717850815900668
Sb 6.497813243483507 9.510763035434675 5.228923682326187
Sb 4.929389434776232 11.728355840873329 6.252034838482324
Sb 9.276588790920202 13.501257516921587 6.383682167440951
Sb 12.110672478031205 9.766596888236453 6.039079252985645
Sb 6.636864488049362 13.672887372543496 7.663380729747657
Sb 14.170967384389517 11.022657789542444 7.573511691006529
Sb 10.073968414248109 5.467076462342663 7.5587421475105145
Sb 9.548206413609087 10.746534790460206 7.063457758975976
Sb 4.24267896615062 9.51752639523628 8.04241195454444
Sb 11.34469866642144 8.032201626522303 8.228377788887741
Sb 11.232542698701979 14.534664525421498 8.247997879410491
Sb 12.614167352846055 12.27972371018698 9.825737607937105
Sb 13.701371787562499 6.516050073824819 8.904103203617824
Sb 7.013705398655115 8.65611492436056 8.434333532895106
Sb 15.517924381281997 8.734456627493403 8.637525645298016
Sb 7.205461314208087 5.865831173117708 7.566994129076
Sb 9.78335913473252 5.955003746799992 10.436740518555572
Sb 9.448711528436219 13.936254013081863 10.462522944164867
Sb 6.72828140890262 11.944139638891775 9.981374507183984
Sb 11.741744110934958 14.297830094767228 12.09979736900572
Sb 15.352725692514461 8.88856814500933 11.56645583960951
Sb 12.196847223664072 10.543345283510554 13.067455253451282
Sb 3.9826887828992437 11.284179672236856 10.311012786452288
Sb 9.966441820256009 10.995521750223382 10.067323681732908
Sb 12.694514547904534 7.679281675320656 11.470815341682615
Sb 6.628026210965359 13.877822049066179 12.081400369166357
Sb 7.8028484059537275 4.060274090427173 11.320737602138092
Sb 10.603420065426224 3.6075916086953215 11.956539253184452
Sb 7.305796116247546 8.440616605251892 11.401937847240148
Sb 10.978570543988543 12.787157209069774 14.416830528159142
Sb 4.922538735435493 9.676630928044219 12.526323627835225
Sb 14.643284814303424 11.60852140018551 11.988780393050662
Sb 10.939770646191667 4.819686576558246 14.57778744022968
Sb 6.796184650191639 6.107933417415313 13.127711577613542
Sb 6.194615621693003 11.850906533639298 14.065314062277194
Sb 13.312364735656274 6.429361733557733 14.03001965982837
Sb 8.910181465265655 10.995041180202012 13.349749094550216
Sb 12.513148181454028 8.917986160669596 15.43656034510124
Sb 9.500682778861194 7.0445081545066826 13.528496763516992
Sb 9.577642852775327 9.070266441144847 15.549958298268479
