45
Energy = -173.59805215 eV
Sb 12.065248938490518 10.293767702021817 1.7331650980687623
Sb 8.364748800492046 8.301533786115636 2.0152850806940767
Sb 14.63788021690404 9.387671716119812 2.591246358827825
Sb 10.643295873377248 7.230070823280067 3.435978704456859
Sb 9.48412556046028 9.74265648166523 4.263026382262548
Sb 13.77132639610815 12.02120570757703 3.2398166632685084
Sb 6.603382733332939 6.890918844748918 3.9163545101737296
Sb 3.9326771277795096 5.390251293564752 7.259242808416714
Sb 8.864023657865436 5.196661666637007 4.5749109251763125
Sb 7.352182306912837 8.765548283421952 6.002196979438736
Sb 13.654990590573055 10.499577368120397 6.879586909621922
Sb 5.41554917898282 10.781022073207264 5.2783375110292745
Sb 5.566368057783575 3.8861179959390686 5.509123967868191
Sb 3.7154047102294294 9.503320037814524 7.335549424240208
Sb 6.642302297976324 3.286916407052551 8.25780081232932
Sb 9.064038910778695 5.9165867841339 7.429393347858783
Sb 15.004611574332595 8.25540178253738 7.196593758149241
Sb 6.001016968300487 5.817290231738174 9.56193695762322
Sb 9.019520842825273 11.538033228316772 7.837231608051661
Sb 11.690463407754526 9.3257267502839 8.841797541682036
Sb 8.150077379267737 14.277321139134747 7.96984358169427
Sb 14.446961257900353 11.357629230890089 0.5227812361962034
Sb 2.3109184550877795 11.797231531212582 8.164237912698711
Sb 8.646437436463472 2.2567333714771736 10.226217145443298
Sb 11.624461509803536 7.232188674996564 6.834645491025806
Sb 1.759339635569082 7.586700596403741 9.153072173043181
Sb 9.048471596094101 8.297736375933066 10.061056105602797
Sb 3.937378203701102 2.5555848472749028 7.520047305539934
Sb 5.70841512149744 9.373317660365707 9.587599760582462
Sb 6.17450276636463 12.103429456356661 7.750324660081148
Sb 10.573048506777214 3.9480640126315287 8.937371119819728
Sb 3.3149486489347058 8.7246667077565 11.23388296213051
Sb 13.194775356601697 6.8828963911748815 9.261420956822988
Sb 0.9029125005029082 10.215279537230009 9.938483380066398
Sb 8.620408507560567 12.778350075211307 10.40386604376132
Sb 10.654002681020794 6.137054459247721 10.988055589431767
Sb 4.846755363713989 4.344703308420245 11.765675042240735
Sb 7.848414151512817 4.553627565226415 11.748059089695957
Sb 6.028717843055406 11.74715918499013 11.298295601350606
Sb 10.01284961691848 9.831339915072194 12.386209617913208
Sb 4.230921401510959 6.73770350426064 13.238194238252929
Sb 10.62931882435469 7.407256027194416 13.882093764278185
Sb 6.833164974562439 7.7840334605271275 12.542049340448411
Sb 8.197194576988204 6.2335081022570815 14.491504441835561
Sb 7.408168395612667 10.401928763095421 13.532160953441911
