48
Energy = -186.93960388 eV
Sb 11.517388841655618 9.256112339215235 3.1597378197067663
Sb 2.9773766058524735 10.38547576958957 4.12326914776704
Sb 8.21842569447217 7.178082218733092 3.909320104579201
Sb 13.74670626853772 10.743957999966147 4.301648722392638
Sb 3.9200096351163545 7.929902042901414 5.419519543655711
Sb 10.484096365963703 7.958506996604869 5.593060008459666
Sb 9.74023598825144 11.3643938728724 3.9216982170498684
Sb 5.707636849793744 11.30383507901483 4.032893400352496
Sb 12.061315739211924 13.115765621536445 4.103329607869748
Sb 11.901886209620418 5.630136202582911 6.527702884731554
Sb 3.7541385789617014 9.444222398330838 7.925056209110126
Sb 13.15539067574805 9.863822855449905 7.006231027265783
Sb 4.112826960486238 11.896007392328338 6.365800140507037
Sb 6.620420601349637 8.984699280848297 5.502654764628681
Sb 7.258534811402893 4.9744774382950006 5.501459934120733
Sb 10.538222362511544 11.062997541733926 6.7982371393111185
Sb 14.078250129956517 8.199723544034185 9.728336155857681
Sb 5.546717852745798 5.8701039187734185 7.663003933156806
Sb 9.689363420430167 3.7474103949697253 6.358883436082601
Sb 7.068200167186533 12.052561270964734 8.31565451627039
Sb 6.400056380107548 8.400010840792065 8.856182144787251
Sb 11.445719867862904 7.1519107591072455 8.935527558904234
Sb 5.129927833471284 11.595774562853668 10.369156244040772
Sb 13.859643271444208 12.537519554312786 8.023759206265701
Sb 8.71327113562115 2.623783989290138 8.830876705333653
Sb 11.524929404359142 13.811087290966247 6.904596878450303
Sb 7.264476881135098 14.90998706368209 8.923574889674141
Sb 14.252200679905465 8.137318787884178 12.637564548843848
Sb 4.861205214287208 14.436279704831561 10.519510722197685
Sb 9.352059961973282 10.525951668980339 9.402829339154716
Sb 6.7292193115942105 4.42601593970879 9.8438894825011
Sb 8.692248775054699 6.385052013667068 10.754896942629498
Sb 10.627628247943244 4.230447404403509 10.451159333609823
Sb 12.27383631688295 9.793940533454261 11.297361367827218
Sb 10.36848207757355 13.134083926623527 10.193338375108903
Sb 7.3542676076010745 15.193423398321736 11.785828953414983
Sb 8.891062605968429 12.988938432344515 12.66490206059027
Sb 5.44928053969991 8.122702020841384 11.66895493578436
Sb 13.144883754558164 12.501670333260451 10.862563435601034
Sb 7.241766361990075 10.437216239174946 12.332997297497664
Sb 6.842413349306063 5.982541226962465 12.946774594502156
Sb 12.159784914243462 6.12559895934046 12.534357333113048
Sb 9.529972561718454 9.414028713523942 14.017631933906737
Sb 10.83083837576382 5.18257482283815 14.93600117255715
Sb 7.844246858577708 7.49581081804558 15.24182465531216
Sb 10.436760218795145 2.94367909893975 13.162950230311095
Sb 7.060150113511364 10.27463235267984 15.211133993778642
Sb 13.084078901613674 3.7373806462423245 13.893914233244656
