45
Energy = -175.37134062 eV
Sb 5.58620143047154 7.472210707348895 3.2953807024703567
Sb 4.9077009112579395 10.207730515267965 4.02185637127369
Sb 14.517889491431031 7.96683877255021 4.027799011917227
Sb 12.71453967150105 9.777059383414679 2.6742530924581267
Sb 4.787267940454023 5.383126508783489 5.145137576088219
Sb 8.222571392201521 7.5050612888381485 4.402705378504978
Sb 13.422812229081014 11.891983750864902 4.5625749175068915
Sb 7.645465471243144 7.467256117888319 7.267116881775681
Sb 4.839261417407179 13.076607197358262 6.070419880856719
Sb 12.300935702948491 6.590706721742204 5.183992951481075
Sb 7.664533325393184 4.982348402564667 5.722523548022572
Sb 15.237458647509941 10.062559038113061 5.875417430541392
Sb 13.454219030568135 5.050693100425018 7.324935882152754
Sb 10.874673995043104 10.560636603819644 4.746718215586389
Sb 9.004332696512215 2.8493898817851915 8.952142401213216
Sb 4.925499468355624 14.203640843523878 8.740368931962593
Sb 3.8689662340192887 10.416628566271372 6.744581847967001
Sb 4.737827542570387 7.127176459829043 7.4282985497226
Sb 7.548909693800935 15.36761186658571 9.090687592831959
Sb 11.183442715228985 8.630031412141555 6.860902933370176
Sb 6.656804911691639 10.82113965863157 6.235671705423213
Sb 13.53600409381274 9.660752621413145 8.122708013853448
Sb 10.574047856892768 5.09239989556492 7.958190314854906
Sb 4.589259797938943 4.916881414569003 9.36666193834871
Sb 14.752549620959963 7.178043476938265 8.84969783514906
Sb 5.9367686778963344 12.289410004252913 10.633320792483163
Sb 7.171715693547706 14.632038864986695 11.8600016105834
Sb 3.465691992493433 9.261246282348637 10.133235455239602
Sb 9.391429681557293 10.832305415125893 10.549746759618507
Sb 4.381752884276136 6.851700980438807 11.618961933113203
Sb 8.350220000680675 3.2159426750378066 11.755884214422313
Sb 10.612038475922276 6.864023467825561 10.2364608430268
Sb 7.426971311946863 5.123791883559876 9.827347249899464
Sb 3.755772899371588 11.19102393472987 12.275044879674503
Sb 6.32494701925413 8.666323199030694 10.482161003026066
Sb 12.17212257129409 11.296355311552169 11.219098705692057
Sb 13.27238632792102 6.540781266082984 11.23740612603859
Sb 9.5502919726446 13.76544697405291 10.471608061292038
Sb 6.061299731151647 7.385340656427406 14.348644001380917
Sb 13.030129289393003 9.006973761413944 12.770444205463425
Sb 10.267516312908805 5.175753752497958 12.610680452142127
Sb 8.54809082396057 7.516794284066368 12.803916543208134
Sb 6.293794391484978 9.984254857167395 13.105860544606683
Sb 10.056816227286507 11.52109617094535 13.257544132510246
Sb 10.617151083575926 8.860964709087 14.371971238108314
