41
Energy = -160.80666185 eV
Sb 8.79725480083549 10.03684992982151 5.351479836583423
Sb 11.19791668679758 7.19259461258894 3.533221537524974
Sb 8.391827689876566 6.6026238121730065 3.1052915469680253
Sb 7.53318456582013 9.361713817442215 2.825185145571705
Sb 11.373915420139785 10.041195628048513 4.097593406578557
Sb 4.884305414479727 9.45052641733057 3.791619701341534
Sb 7.977150850362698 12.729739463901561 5.646892246079471
Sb 11.271502566122264 5.917780243036948 6.097103463386699
Sb 5.347378543353192 11.764683138782985 6.262420640078632
Sb 6.26334853104712 9.493001949003663 7.828036901031387
Sb 13.070696666622618 10.070940199442774 6.426174425823379
Sb 13.638670829214409 7.254687128919806 7.050968402748506
Sb 9.51850961589259 7.65343587140816 7.608110744164839
Sb 7.0884854622605005 4.098876643902412 7.566589754680627
Sb 4.91945441915251 7.650620880277359 5.999956897491439
Sb 7.495921483260267 6.4509735659009655 5.87500786368281
Sb 10.035302501007177 13.387431503018366 8.330892799218901
Sb 9.078270438233481 5.272831459807292 9.318318182771732
Sb 13.402643464935963 12.273671996584877 9.929534327760862
Sb 5.396762709006162 13.592422933400073 8.683559379258392
Sb 4.211346458471339 9.264300680393072 9.847689193237862
Sb 11.135057676752082 13.56427073526083 11.13838764879915
Sb 6.60510403669854 9.102894392691823 11.491194180252908
Sb 12.366601458009358 7.629173504141469 9.653090807514364
Sb 7.703939886251005 12.191872542585909 9.558003349757598
Sb 12.029907971414797 5.300957888044859 11.415979905173806
Sb 11.267686161931946 10.729660873182645 8.679233024081684
Sb 6.3579681827498655 6.1206979911854145 9.571961256287423
Sb 3.826250586143658 12.062969237369373 10.572566829945261
Sb 14.709059559249264 8.298964348048637 11.221580006384542
Sb 14.192737508792513 10.881781722573468 12.333314037335544
Sb 9.840729441747445 7.16875661133237 12.013530166432805
Sb 9.90386516013585 11.02088806516798 11.89262242648723
Sb 5.5659062781138795 11.460652410771774 12.858033380255494
Sb 7.8932725473292376 13.090414975457307 12.337108346645168
Sb 8.112976729667528 5.584201962243194 13.726073640923557
Sb 11.83245488478119 10.757094675273795 14.026726014024847
Sb 5.902803659326043 4.720567109978268 12.06284510380577
Sb 5.724079350646229 7.206856823790438 13.534719325663776
Sb 13.771400239134943 6.651865098474769 13.381275865849656
Sb 11.401366056481878 7.931573649488806 14.393124780643378
