42
Energy = -162.63582352 eV
Sb 5.274980084592166 7.645563900364709 3.282884627205113
Sb 5.998382022569989 2.0059092028725067 6.510785835794232
Sb 5.3755149443466745 3.60879688782741 4.215907575925421
Sb 11.864568340208443 14.19838088001672 5.983710261561703
Sb 3.7386717434923327 4.466903790913478 6.375881284036218
Sb 3.2262744062703383 7.252181745612566 5.3153995270559085
Sb 12.391407962581479 11.269213251340824 6.2119856892364576
Sb 15.13612542731902 10.730790543430151 6.624976350624568
Sb 7.217569237926532 8.326390096508494 5.3406110532901865
Sb 11.20066840466984 8.120774842595457 6.702288740447599
Sb 9.129468484358613 13.906881041874081 6.9953089100204275
Sb 12.210058323186159 5.458343302547666 6.269843069250005
Sb 7.321661691020815 5.7513278728669075 4.010310578337747
Sb 8.132959313836144 3.7310234707056655 6.946583314791638
Sb 14.168332467536954 7.619361690214911 6.9653641188339614
Sb 12.815714595402794 14.520421665216608 8.638872130597658
Sb 4.249991679159545 11.812212983420451 7.553408929118403
Sb 5.951529803592625 5.585823583731568 7.883698529952896
Sb 5.023906688867688 8.354583914059987 7.234031777380042
Sb 13.587167137035042 11.514327393834161 8.862581616316714
Sb 9.089596777499757 11.065138395746974 7.69078257461627
Sb 11.898058609306078 9.044037985097061 9.409790004438296
Sb 3.687910660492209 13.78102812118537 9.637718944404446
Sb 9.083539845027927 2.7658291579314125 9.520635016679032
Sb 14.29643776291752 7.501116313900246 9.86704171620754
Sb 10.69150363694512 7.740913698178902 11.983356854016531
Sb 2.7284059776057967 11.072143328009831 9.891773147516476
Sb 6.578512875460841 11.058372613594473 9.090821113706594
Sb 10.121009025558742 14.579598301221443 9.633199345936267
Sb 11.163608125000033 4.745406945123252 8.855457378960388
Sb 9.278717292964128 6.8351341837533806 9.509802956704629
Sb 10.169939636581208 11.677982988449886 10.336843033413064
Sb 6.425251657790122 13.547387168717309 10.556567745423628
Sb 8.178488067722716 4.821076318010353 11.341770602526596
Sb 5.326744417842936 5.289467606356294 10.681959935195048
Sb 13.352785096576424 4.867751295934576 10.715712023112788
Sb 11.449420963003702 5.1593088470371775 12.791414160594742
Sb 4.314258372013707 9.758918822343169 11.93208794530451
Sb 5.872666872871767 12.009904172730009 12.90519072194497
Sb 7.978233817110653 8.264172496864358 12.979370782407853
Sb 6.314029226925403 8.082850891534596 10.561448103043547
Sb 8.60068858784676 11.068008351363018 12.797582037106404
