46
Energy = -178.93129997 eV
Sb 10.471483104023825 3.0704425216476916 8.229774009792129
Sb 11.436835403231772 6.958579270430355 7.830754055388587
Sb 9.5310689651352 5.292066695625192 6.6427474083437374
Sb 10.034154229512149 6.789049359122765 10.652054471986025
Sb 6.8586590797163804 1.5082046944409917 10.794767659162996
Sb 11.597503124295569 9.246212667336463 6.0345705849855555
Sb 9.451416077686607 0.8444611635132337 6.708558577462799
Sb 10.716075337539616 7.347578209454917 4.001900316208574
Sb 9.34117381990061 9.387210167061333 11.66356447382817
Sb 6.391803465980428 4.276887509182311 11.393309264358473
Sb 9.075843868264743 6.265008968986013 0.996618115742663
Sb 7.527623955388672 2.449485521558134 8.131600061369193
Sb 8.34123122472333 1.8205666646428031 4.206119484136797
Sb 5.277073789056513 0.4974866911595589 7.257892370505266
Sb 7.840073067584984 7.187882731007451 12.785775429534082
Sb 5.864981838496708 0.26580198417598305 4.403909191267939
Sb 9.05809671485863 10.652341997025951 5.899430870188588
Sb 7.835570683249877 8.842437323807752 7.791675700701967
Sb 4.2075610207194485 2.6306362675379757 10.422315980769298
Sb 8.083405627772132 8.560357513248213 4.11293927176545
Sb 6.593741311273647 5.934476552424818 2.6376680469204845
Sb 7.659675946626954 5.909678962677282 9.203263145562596
Sb 9.733110085133102 8.983514955592996 1.8021808287638525
Sb 6.820507170495175 6.468330114237591 12.785775429534082
Sb 6.997922175142446 10.205184279026213 10.159584615915513
Sb 5.8296068661732745 3.9052816225965925 0.6996310959346235
Sb 5.798759155231686 7.6665602996541224 10.823426479993921
Sb 4.701736759768931 2.7512116438507417 3.475740135733217
Sb 5.244272005398941 8.926149514309609 6.448644596670341
Sb 3.8285427094384135 2.827992217558556 7.543119908380201
Sb 4.616343398742567 6.143586902446881 7.066741489529525
Sb 5.5532026083612935 8.225311606446843 1.0004364221559527
Sb 1.9754148499911077 6.4207137160711385 8.237060817319357
Sb 6.698951792201572 4.036325663075435 5.10176250975812
Sb 3.626760540935473 10.33410234215629 8.363960218489433
Sb 3.03086869102531 7.4428991705788485 13.48500398746168
Sb 2.4642528659866114 8.451860568523696 10.219802099275663
Sb 3.727976038404009 6.0468911135541035 4.286587543748712
Sb 3.140342444360299 4.568626591420082 13.491167216185588
Sb 1.7275007178345778 8.137615676186206 4.476292622896885
Sb 1.8777548908596882 3.881099114093905 4.6040505789369055
Sb 1.099648530239769 9.118442442435958 7.6881432357897275
Sb 0.8975879384926478 8.194403833674771 1.6709936105456213
Sb 1.243998982165912 3.542258157910027 1.8090941885695648
Sb 12.973263065592157 5.765882118965138 1.9468263902513372
Sb 13.345229306600881 6.0634755111675185 4.855107758762267
