43
Energy = -166.2865206 eV
Sb 11.197656127034085 11.736568599203242 4.186263796784816
Sb 5.004359292295709 9.447780015457674 4.413034650706032
Sb 9.92902858544714 7.618682722598919 3.826033452231468
Sb 8.382237954660104 11.437511042081633 3.4130885170851966
Sb 8.86454447867814 5.038085175690402 4.351875113511302
Sb 10.29505690111334 13.185167725448927 6.549321069499788
Sb 6.516397219615936 6.01830242033439 5.766762496967614
Sb 3.929596125612719 6.7707230969014836 4.564407642234808
Sb 11.624492374895958 9.42556189338138 5.924043926185937
Sb 7.884598776043494 9.189327110772052 5.1200078387712304
Sb 7.6252342002864735 13.474571203356165 5.319441263491984
Sb 14.074543914756045 7.938673167495149 5.458128472742458
Sb 5.410673258885695 9.619840948077492 7.266603136543513
Sb 9.86783766726795 4.939180523132029 7.075926223007562
Sb 13.30370351157763 11.627035265776678 7.306399130576446
Sb 12.949351653077962 5.913753855749745 7.355937087233138
Sb 15.40093168566994 9.6639803736856 7.3023028415407065
Sb 5.612494135826771 3.788817757790833 7.45133135464942
Sb 9.111836391780265 10.84925507894385 7.821557315226913
Sb 2.731903199961768 6.6689769432196195 7.21868519483111
Sb 8.134413861498704 3.076481636324615 8.64713387773684
Sb 8.367945538855611 7.144808535933784 8.318845408922437
Sb 5.208101394657757 6.343462452507318 8.748054170901975
Sb 6.584541098073449 12.259633658423263 7.776224663732422
Sb 10.24471687328683 10.602214757783988 10.50840537476373
Sb 2.5991126654889514 9.450146215795218 7.958918689659864
Sb 12.927792600103812 11.638599444819981 10.187869341494102
Sb 8.741545691040788 5.237463722301638 10.491386473119459
Sb 5.834921900217283 9.697260484417084 11.133070625177561
Sb 6.4582377770937525 12.492076993967345 11.900506150315973
Sb 13.944759978190827 8.957479443133014 9.894274604530366
Sb 12.010253666748808 5.432282918130432 10.362791723224532
Sb 11.407105679936775 7.840737236326703 8.827281416258218
Sb 2.9927709944924965 9.069011546492732 10.8221509936739
Sb 3.94574256731791 6.352319760536892 11.325760978834026
Sb 9.411133266815764 12.710943602835288 12.255474852848641
Sb 13.199805543830578 7.207924033658951 12.277415477890562
Sb 6.609915074306867 5.548571232120522 12.453583601960666
Sb 5.455935770969643 10.654695576798654 13.855452467665268
Sb 10.175935810678869 10.95185921728293 14.475131056104818
Sb 8.02731686591833 9.484853235221065 13.291153093412788
Sb 11.112187852877689 8.162961820712502 14.013673961252637
Sb 8.426127992342966 6.869215474609706 14.321088391928765
