45
Energy = -173.4272468 eV
Sb 6.756160189864434 9.264801219169561 16.173779534284932
Sb 9.220253293469089 8.05854554530234 0.6638755313570376
Sb 5.520221416168759 9.131791067027303 2.4222997828163697
Sb 3.8995966618630615 6.760040001531131 2.252008819748796
Sb 8.827344555593907 10.790906249815666 0.8175653831105599
Sb 7.09690373541439 6.77789943807662 2.44769919044357
Sb 11.547390676213348 8.43717792141179 3.8825142477359558
Sb 12.233535826532847 10.900523999559809 5.4114111719553994
Sb 9.78749444465602 4.704478428310222 5.263564831094899
Sb 9.639181800834434 11.263808385678312 4.134821999845567
Sb 12.431987861242453 5.8437346857037475 4.778119075829479
Sb 4.65982315769191 8.584311901995498 5.659418218409747
Sb 2.59267721610141 6.9450293737654345 4.677718165441269
Sb 9.370028553389457 8.822097787177297 5.736279164903142
Sb 7.575309072962315 6.610809850567406 5.293463251752132
Sb 8.143844553649469 13.090775860284463 5.811790519594225
Sb 6.843893283139383 10.808994516065157 6.905230778673884
Sb 11.135021708648372 10.255776275902088 8.141819087482466
Sb 3.9719352225167492 11.095891377026584 6.851429892064911
Sb 9.172437556751794 2.8729725456426136 8.746507129330263
Sb 11.19106604473827 6.120469230103958 7.335278615790049
Sb 2.1795503473080244 7.7946772050186865 9.446642833145908
Sb 4.725158038240245 6.9676998559857175 8.423638500783039
Sb 9.111722458429801 8.904967426520397 10.282109837445896
Sb 8.84287460660328 2.392777123285584 11.564821646345429
Sb 11.985979261726827 12.317057589752885 10.239978219030217
Sb 4.386172936585313 9.664332119408193 9.46359811122635
Sb 9.606520891481521 12.634468519096322 8.376217550938636
Sb 8.225515798176172 5.62498663490325 9.286534405713983
Sb 11.85253257022279 3.8841585279586495 9.104690541776426
Sb 7.48719164867032 11.261600463856492 9.844537561940104
Sb 3.9780062349495897 6.627764254993714 11.414874252346545
Sb 10.756754400645624 6.06999585105996 10.721877042638283
Sb 9.892992878522016 11.84891057928691 12.196428962115318
Sb 11.703938784332838 9.614057015008592 12.077332385086727
Sb 6.639331745486694 4.223898182722244 11.25738474316053
Sb 4.602220504668132 9.130327376599881 12.554257808321987
Sb 7.41445188076803 8.52057964243166 12.70387649624171
Sb 7.359955405834955 5.7792617395533625 13.59031908649354
Sb 8.825414795401594 9.005807269299932 15.264059524993305
Sb 10.128093918819062 5.056279301711736 13.316577293790267
Sb 11.128705931579061 7.721067692108653 14.331396249762003
Sb 11.370511391596787 13.222151920904205 14.347921347406569
Sb 12.974944884893082 10.876452356473312 14.535425159012917
Sb 10.65459924460074 11.16513308292569 16.173779534284932
