41
Energy = -159.32817755 eV
Sb 4.962223190130177 8.007667487221582 3.6863477914087612
Sb 8.037587682714197 5.990297837552567 2.2700651966876637
Sb 9.1413035626743 10.329984728355893 3.2952722039287234
Sb 10.318572649596952 7.697284485232461 2.8589222685383056
Sb 6.416806930310677 10.441706170711686 4.3294322153374365
Sb 5.063834489656074 4.495148358490708 5.614326968833436
Sb 8.029914140756294 3.294805625528407 3.2137530441432456
Sb 7.068752325314997 6.514485445610844 4.9596371806311375
Sb 13.164793240459161 7.140258332391942 5.930124631894439
Sb 3.8675437006840405 8.548508287969046 6.356310575258043
Sb 9.134413146388459 2.409448470808313 5.686781917257189
Sb 9.880469186430854 10.270034047664966 6.144252487188047
Sb 12.95942951818131 4.598904334662895 7.358661114613945
Sb 4.135841352170491 6.080699645396645 7.898775301417976
Sb 6.611126825464195 9.100556658773046 6.970138883469705
Sb 10.300779569509318 7.423592430675639 5.772858339201022
Sb 13.988056960186398 9.06074839380645 7.877627031829661
Sb 10.03486514102134 4.532297254788506 7.408175391646987
Sb 12.550330695086817 11.251781749342536 6.673561113501199
Sb 5.312330067361463 12.561299313661987 8.342820560522
Sb 12.410684104257342 5.451534821454113 10.068678853262739
Sb 12.51817984713687 9.105264699577619 10.416268346410893
Sb 5.838974980223174 10.156991464547144 9.774107652987148
Sb 8.11554794990719 13.397119456143646 8.710179773933222
Sb 11.763794894555978 11.758312057244101 9.477497309979992
Sb 6.487212098067587 2.297180900652109 6.916802322310712
Sb 3.6017327388287668 13.392931913009207 10.65007666537084
Sb 9.075761191823643 10.73060763461407 9.426169452718266
Sb 7.001034051648048 6.075661140342386 8.476323584761758
Sb 10.433344767680572 7.474452133026997 9.209859279183465
Sb 10.728751517048941 3.127381559741963 9.847939405686013
Sb 3.1613831042175695 10.515480018355976 11.012887573537977
Sb 8.369503341693441 13.967271856644945 11.57575678142242
Sb 6.283226010511365 3.507994663343865 9.555130890918983
Sb 9.423764717780106 11.34531430317422 12.291211011020206
Sb 5.970341833065621 12.473441352901357 11.949472971756911
Sb 4.427622867312996 9.546671605273618 13.458961379250537
Sb 8.249831075702103 6.8431573602025715 11.049327959756083
Sb 8.498567984688632 3.9697982513634 11.43321226580732
Sb 7.3881007048470435 9.713889516616181 13.710465670150382
Sb 5.667965278090501 11.794333666308365 14.736126065649664
