41
Energy = -158.74003143 eV
Sb 4.8019952202498715 6.81973056626563 11.579657185428703
Sb 6.649434116938606 10.69883808320548 11.517970748429022
Sb 2.907159267526031 7.993950263859112 7.5452318492730726
Sb 7.422521367723438 7.894319135807434 11.95351165056208
Sb 4.0748492789652175 10.071616364518956 9.087081147736397
Sb 5.783468568288924 4.290725939078981 12.582298085392285
Sb 4.603409850778177 12.25490666734828 7.217301655007825
Sb 7.428451436902374 7.323252405925142 14.842904382164471
Sb 5.794037348882123 5.066469461082257 15.451827397025145
Sb 5.0633019414407645 2.352480761622523 10.15561124920779
Sb 4.418457775072939 8.361115193060334 5.171799483799224
Sb 9.187705075940459 12.058231723592892 11.693235256254757
Sb 4.9385895777739295 6.116925546772988 8.70852378015007
Sb 4.527993516120638 11.106651280162618 4.654429109306649
Sb 6.898512399497856 9.365760858617794 8.964331495148242
Sb 3.420908422895236 3.733216611559719 8.24035202473302
Sb 8.26415198062545 4.691536942563632 14.085356826582924
Sb 10.63266491809633 9.588285528676966 11.175526715305587
Sb 7.465688743953557 11.636945191342726 7.255870696194657
Sb 2.4428000303907087 7.138756724498316 3.4975801253501837
Sb 12.051023734016551 5.111250606169651 5.319074501677743
Sb 11.540101826873723 9.513673542158491 5.106550760027633
Sb 9.854350095687515 6.1602019810022455 3.7456671025139268
Sb 13.392366648227078 7.550431968578225 6.078476032813777
Sb 11.674536418200196 8.016257990167892 2.5651255291850377
Sb 10.296655886691326 4.516795925613149 7.509177201708183
Sb 9.690838986378402 9.718704488586816 1.3769986605263436
Sb 12.960280656210532 7.421286331690542 8.936048797668334
Sb 11.989634190401304 4.608296966214485 9.7747131149839
Sb 6.267670698767749 3.3287237245238663 7.8689356624212605
Sb 6.7849069997284275 5.8496643999209965 2.3143209397760103
Sb 10.570900118017555 10.373195031259796 8.343211687112484
Sb 6.226553584616425 5.949476295483904 5.13415210913347
Sb 7.028411396119052 8.603279075605258 1.4642319321712025
Sb 8.98621695595529 8.217364560141041 5.593494687400955
Sb 3.703669926197811 4.65222656138687 4.326700466056481
Sb 10.140558195318924 6.80786639639741 9.280098443972767
Sb 13.014070194728161 10.403258687572981 9.807165419868918
Sb 7.92470639946312 10.187430041957986 3.6912232886939043
Sb 3.9529585976109107 5.636906832294369 1.6067959495005228
Sb 9.39798033707162 12.98448602805676 8.951929534080909
