42
Energy = -163.19092392 eV
Sb 8.185756101880944 10.696201837185649 3.740053159363853
Sb 6.062471058813983 6.809309141580159 4.032271363970043
Sb 12.510152403697614 11.759991673839526 4.297259286722408
Sb 8.021483448198346 5.099974308805126 5.429607235962394
Sb 12.20165119559514 7.415315159449492 4.001116211379238
Sb 10.881418235335703 9.775873478297882 2.9753624939297296
Sb 8.632596240107599 12.826026289118866 5.646559235150202
Sb 4.369937304304846 3.4611203233191237 6.47997104406064
Sb 6.978827461885064 2.417689418662905 5.665246023467054
Sb 4.570072934028892 6.372657981058508 6.362709112801302
Sb 14.494379160313686 10.360398980318173 5.906920674233662
Sb 7.565649013073826 8.690773610827705 5.699444700093842
Sb 6.265864903018242 12.480794762641164 7.33257622051555
Sb 10.941670455467804 5.450024499421206 5.797052726698301
Sb 9.443924826956525 11.275963040527635 9.6608460186052
Sb 10.979346290506399 11.48625285278557 6.707525522922911
Sb 6.9607300499887526 12.633994253107925 10.182005783795447
Sb 13.373874482083135 7.8087615343094 6.7183023262034185
Sb 10.513145495327768 7.938557068217706 7.22936849586681
Sb 7.23361866196886 6.0723513423316655 8.061788167762941
Sb 7.570723722098507 2.03250906782632 8.50588874920781
Sb 12.361153572002742 13.820031766111722 7.611349810028936
Sb 9.59518120431424 4.110466264401573 8.507683134644802
Sb 10.629550882389188 13.91082759510156 9.926179596545175
Sb 2.466544278737848 9.313615442341971 9.315782861507389
Sb 5.504832793588938 3.9754765862688224 9.116967371642627
Sb 5.209230426720628 8.370479606668622 9.663227617621967
Sb 5.268664664628623 9.84645897961248 6.8857694758935315
Sb 14.550644638123925 12.085886218888826 8.272278356361555
Sb 10.468147362060451 7.753177773815276 10.244580800134578
Sb 13.272615336448878 7.9277595620863694 9.933974311851307
Sb 5.775264383082257 10.441594540097162 11.61658757497723
Sb 10.141669820115391 5.003559860643097 11.166780475452548
Sb 11.326370564221772 11.85336183598431 11.777779586130798
Sb 2.973746329279498 11.16310072113977 11.469739830017543
Sb 4.019982176368568 6.622677963276753 11.888940497825649
Sb 7.9307290420836525 7.991526420413131 13.510252071338448
Sb 13.722879921209119 10.644098040725718 10.666267986706675
Sb 7.396497299452467 5.752421253881434 11.764081003452455
Sb 5.252196812357296 7.414472057555506 14.381271501855988
Sb 1.8862040483181728 8.55944451787984 12.061511538752839
Sb 7.3291488238248625 5.413570193454893 14.625667868525857
