44
Energy = -170.96204308 eV
Sb 9.759137344168213 8.3258534344058 3.7168808335610892
Sb 5.579791275017187 8.433049741769555 3.95584982270561
Sb 9.139161816126144 9.897871373057285 6.051809196652788
Sb 7.568889814319445 8.792686581010853 1.8550723175104225
Sb 7.452186505933306 6.153714946879139 0.55427162929836
Sb 3.40521323362226 10.357795980644894 3.497409364144432
Sb 6.569356041438024 10.894005013451848 5.154275613123247
Sb 6.2050541721114 4.601685375425891 2.685961363667464
Sb 0.07135029267487714 7.106943320156459 1.8410501690077967
Sb 2.964878414232929 1.9043698597687388 1.7543238115508757
Sb 10.246890036044096 5.3412722765125595 0.9340111892185562
Sb 3.9706191349402604 4.380519525585378 0.8313927362081905
Sb 7.708223536606271 2.792809394173782 5.606596614267131
Sb 3.847873801738181 2.384971403111252 4.472444408738071
Sb 5.110545535778262 12.958641812248084 4.911350839608134
Sb 7.541850646044595 0.5156839722362365 3.5549397283666058
Sb 10.452992148712676 2.182759870058209 4.775762166946228
Sb 6.806643737765667 0.571622235846464 7.197609600681183
Sb 9.503404393115773 5.212061416948052 3.6748070647786553
Sb 10.582271880875297 5.892716067451244 7.406615572086319
Sb 7.136946804074355 2.24100156593627 1.3121031830343792
Sb 11.91604519271035 4.700455850084149 5.09331841935735
Sb 10.002199587053452 2.560868652596221 1.7326062924444676
Sb 2.8999291990723504 10.451940497831147 6.359594159234486
Sb 0.7016041928556483 9.282867804509086 3.694917422959234
Sb 11.91604519271035 5.740749564655645 4.041235230999676
Sb 3.762953251787784 4.432158748739946 7.452475825826138
Sb 9.307720076601868 3.484024912091344 8.214501307721141
Sb 4.59473260729593 1.8010757951231913 8.552225219297835
Sb 0.9695645428193261 6.957114475000811 5.39279125001999
Sb 0.8744351193244417 4.067701958810249 6.978654162310098
Sb 1.1798909431852442 1.6908417337946438 5.3453182963665835
Sb 0.3226594599647561 3.1512156305217807 2.971168770410631
Sb 2.144315772568733 5.405093134254526 2.9853157009362596
Sb 1.726625523403549 6.66887926769035 10.510576397760039
Sb 5.5657334577594435 3.5322781347502255 10.673452134882188
Sb 2.0636599786145036 3.9010488186545107 9.68985084737006
Sb 4.47654875909431 7.349875365468177 11.195597837788016
Sb 2.726675701361859 7.795336016203516 7.9820724620403745
Sb 6.1213350489775005 5.975300025265748 9.206255193745006
Sb 8.25248888491796 4.599997771627784 10.647636544313107
Sb 8.251503042205124 7.176130593053888 6.099021515841041
Sb 3.905944075271052 9.822344805734518 9.722050752275548
Sb 5.367452647915774 9.184008016096827 7.258306833654689
