40
Energy = -155.25384416 eV
Sb 7.1958521612709 10.26635114449245 3.209593048637622
Sb 7.223779611510993 13.18976072397172 3.049826431703916
Sb 7.607744255232537 6.971000770057415 3.850747830815618
Sb 5.555469383689545 4.9545904835314785 4.131832902511138
Sb 10.014879045800688 10.075150151973281 2.5759897140892773
Sb 9.581906953696981 14.06326371744639 4.480650510130352
Sb 5.702917814130891 13.073791043636776 5.555348443976837
Sb 11.507016649174615 7.771644329472295 3.5546894965793845
Sb 11.467680859609718 11.881074849216379 4.283800428509907
Sb 9.883558273616188 5.395066400227546 3.3547176049419516
Sb 7.157356849463486 10.634277046090663 6.114863926237259
Sb 7.8365919188957625 14.50208563924198 6.836217190776068
Sb 5.096241483637345 6.379479212203116 6.579222706455912
Sb 4.843689335856549 9.648399838194209 7.546975064806356
Sb 6.372611031264407 3.766367068503535 6.710274531033433
Sb 9.208732554194418 4.532833931364144 6.521925808720356
Sb 8.405628710465628 7.27833081930318 6.684215159249593
Sb 10.488148990554457 10.770608863282757 6.767917788448466
Sb 11.203213584071559 8.018191979837765 6.4207762290297214
Sb 2.653218322070286 5.505576513338855 7.913571615020867
Sb 6.265807074435711 7.999420500754057 9.51858372532384
Sb 4.372866055997743 3.7868930276862653 9.417565382247648
Sb 11.225745288717084 8.305463231755445 10.020662110146146
Sb 9.457048354114674 5.1380469312200825 9.503013223087905
Sb 7.6682516650432735 13.203979743344084 9.446542149413466
Sb 7.814451947621055 2.924314761278466 10.499660587189204
Sb 5.035818844229802 11.98240104836955 9.381913032997781
Sb 8.189104375883284 6.501283244849105 11.960218030453746
Sb 11.799129048582923 11.085978346491501 9.392045560174113
Sb 3.885339894824231 6.413344851508031 10.359426878576228
Sb 8.917900032847315 10.602537228086277 9.663123056623789
Sb 6.4473714279030645 4.257773373893541 12.71043831997366
Sb 13.171345042851987 6.839143796935463 11.597398802514524
Sb 11.533970620301515 8.93110794343186 12.82061839292904
Sb 11.807538788418736 4.3342073425146115 11.057964605503965
Sb 8.050452352241475 10.935356654328347 12.434225558991233
Sb 10.275772993651827 4.917943408343479 13.385034738602721
Sb 5.454834439503625 10.025691311018878 11.511792279647397
Sb 8.68566617392617 2.5086236355289526 13.22439460959655
Sb 8.860012328665917 8.553309631245309 13.87688706230265
