43
Energy = -166.66474392 eV
Sb 10.674615745132602 8.193882977653134 1.943158820084192
Sb 8.218018495435876 8.54960947959861 3.3542307857033964
Sb 8.49806933611479 11.372432911517496 2.848486663851793
Sb 6.493777157940326 6.454380843488447 2.324689762996978
Sb 11.036254079634194 10.412172685259838 3.89868115458413
Sb 11.027434887221396 6.326585875337676 4.118377986488118
Sb 8.733197433526348 4.788654331802555 3.2261537294702363
Sb 6.398523733420123 12.09086023169168 4.718499080541399
Sb 10.175481887711923 8.431323346728968 6.004319713122583
Sb 4.711171067478283 6.949010652158116 4.588784755500876
Sb 10.75782040227898 11.99354645641554 6.814987184129497
Sb 12.994803407387531 8.366517835915008 6.881469915804642
Sb 4.644118473929052 9.819162738289691 5.422273117895756
Sb 7.999387846149222 3.955593057505989 5.906760718367909
Sb 13.475218761254583 11.154142131141443 7.558431143758767
Sb 6.8392318073887735 5.083228521761499 8.938389312324215
Sb 7.1181142710026695 12.8803704889224 7.436844985730142
Sb 8.777650117230728 10.756918801581259 8.569546947600346
Sb 9.549893444722134 14.47768892112049 7.6458256466810735
Sb 6.894528657843231 6.566170405955825 6.402797702178501
Sb 9.5246518787406 5.605483636601761 7.896607548261339
Sb 12.993765521653266 7.473094691467349 9.654257639631426
Sb 3.1404062487418933 8.816924793551093 9.370102313393478
Sb 5.680752439038469 9.22610745527492 8.055433421210802
Sb 9.559113342290527 12.980573268384974 10.223219120771782
Sb 7.103800308684155 7.4008096208514385 10.64694322492859
Sb 14.109628083328097 10.503571271173236 10.272002313607114
Sb 11.71481137811838 4.7097342466890435 9.55985571909364
Sb 10.500102332868394 8.541511010426484 10.623149899842476
Sb 4.183462205508715 11.500861349125529 9.042858699566834
Sb 4.412107821542611 7.6458612780161905 11.70374261281176
Sb 7.534423738890851 12.986951511869853 12.407966355322298
Sb 11.671666961422424 11.034219608850336 11.615481192877223
Sb 8.054094357026726 10.153218515941507 12.380395367151436
Sb 4.776263933766317 12.282688037592946 11.752636645100184
Sb 5.322446546870724 9.89937276820364 13.29883137765681
Sb 7.680462484521109 5.258488019712038 12.528165514773342
Sb 10.353010473430853 4.234099340158517 12.070279372197156
Sb 11.768942390641309 8.432686473857283 13.269777099421672
Sb 9.448561364236966 9.130099566700407 14.843766461571795
Sb 7.850698359811788 6.741619555372318 14.971315942558387
Sb 12.054527805674727 5.53817825445653 13.953869587520128
Sb 10.39104210327797 6.127646124766112 16.102686536805773
