41
Energy = -157.98761555 eV
Sb 9.798566933813463 7.537960066421067 3.357891511915184
Sb 5.8628177735683344 8.289940277534603 3.987581465257588
Sb 10.858589185377651 10.295743056349925 4.4015269642456385
Sb 7.656268981850487 5.691823954034786 4.266187417247715
Sb 8.762470194201324 12.189972667558383 3.7769745358902402
Sb 13.471459530152462 11.24801789344632 4.387885047196667
Sb 12.346893639422461 6.616481877112461 4.48504218787692
Sb 7.215843670986107 10.314007660980925 5.406279133239244
Sb 13.55061235159923 8.83220127313551 6.038831560647933
Sb 9.256220422695948 4.028937496312205 6.207285971480899
Sb 12.07759570512382 12.418135699471447 7.007073098723639
Sb 9.719301108229882 13.797568745182122 6.0030085026045255
Sb 4.543587341797358 7.4640126377255696 6.573703127426916
Sb 6.350374795134261 8.827271954245466 8.427132977736674
Sb 11.114874484467343 6.003649585003425 7.021643567807185
Sb 4.823845500504552 11.24142695133984 7.844820748570859
Sb 5.2308613134591 4.777741675761181 8.23659522055208
Sb 8.788094276882623 7.746067622610352 6.08738900677844
Sb 2.538951384395402 9.432582584062859 7.694793794315411
Sb 11.277415120430959 9.72748583564301 7.68246613894008
Sb 8.071693139927653 5.330301578403238 8.54379575750735
Sb 11.986909360089726 13.331551294598025 9.903199424582837
Sb 12.89473512264234 10.636211608649468 10.035827260297264
Sb 7.755863323598017 13.509689027751573 8.096928748375335
Sb 11.65287662766885 4.807445308430614 10.697226104300576
Sb 5.236681938082604 12.276820300849026 10.586023413935646
Sb 8.005160280622658 11.273201577493495 10.058933571005896
Sb 10.335692676821562 7.448240679879131 10.835963309694094
Sb 3.930670657773858 8.483690283549338 10.036353696169304
Sb 9.005004790858104 3.4330138847762544 10.591259424274778
Sb 7.014402120125651 6.8769654720201085 11.238579903116749
Sb 4.344648058205146 5.7193627655294055 10.805535964702774
Sb 9.194724000841413 13.837965976526768 10.572703681674973
Sb 12.180820707216128 9.060799414972884 12.343570862870706
Sb 4.011152537758676 10.313116204857803 12.216484923823248
Sb 12.252127690441963 4.580928310688596 13.425808527331574
Sb 9.818030849650288 10.428024492693833 13.248269318475252
Sb 6.965274953325317 9.312518574185223 12.950288901298507
Sb 7.706856752768691 4.622541027132146 12.877974410203798
Sb 10.013323241157329 6.281211207200618 13.471845219805402
Sb 8.89492349026822 8.471587529818393 15.085531632037432
