41
Energy = -158.85443956 eV
Sb 9.496446819715882 10.229808488823066 3.193713940924615
Sb 6.339500183446872 8.872034983670169 3.4106525202739086
Sb 5.248360908999492 11.513527898673699 3.9740575572282646
Sb 4.113500870057426 7.289204905251787 4.5297680959439335
Sb 10.68891917782289 7.694698776777921 3.903525558256397
Sb 9.78074827366503 12.88392946787344 4.307783287780295
Sb 6.494368317576841 3.839866856108755 5.826038771994192
Sb 12.672563612481769 8.106446620139867 5.93592621713085
Sb 7.160343607778266 13.084107866432877 5.478217781373216
Sb 2.7457300048208064 8.877310258155227 6.512947211069825
Sb 8.396248177646791 8.727296975126995 5.431128854073586
Sb 6.858379480420374 2.3056176144023075 8.237130100634971
Sb 4.271875830611273 11.330500705993284 6.704724035707314
Sb 11.074283483600418 13.243597104072458 6.837077330859534
Sb 12.320030450216487 5.338237707251845 6.8694707777357165
Sb 5.902197864285054 6.568037495974318 6.647614857672236
Sb 12.722794912798943 10.88066362864432 6.927360955778115
Sb 9.445689064191475 4.915261261266205 6.660140315775731
Sb 9.735764911084186 2.309602588473743 7.748252741497459
Sb 3.522451639333488 6.67074234895685 8.303210214677746
Sb 7.616466648298316 8.69328167629779 11.204257967736492
Sb 12.878048989873324 10.809722042961631 9.807903603922178
Sb 9.605874915035596 13.838186359499913 9.300882584356195
Sb 6.180678364787486 4.702883948500692 9.646807150176997
Sb 13.032339591198996 4.518291816087985 9.572136836429616
Sb 11.722344123497146 8.167515545970696 9.644491088408108
Sb 7.002108265700171 10.993508089538608 7.541037161294538
Sb 6.7467686860788 13.264811208996024 9.356732499176685
Sb 5.199607955574305 10.063915351153392 10.201754113145485
Sb 10.833920559124884 2.848020278180856 10.352954356903359
Sb 8.454040965666735 6.435900288592872 8.955889752394407
Sb 13.289206779739562 6.7110992568062535 11.50837220161823
Sb 10.049008892892802 11.131515424805306 10.12403456262353
Sb 3.6712441018345605 7.72652630687689 11.044741928004045
Sb 6.075232716814747 12.207715623598093 12.02472607227018
Sb 5.8900571378648925 7.055146966430538 12.84070425434035
Sb 10.741233878233487 8.106859671400974 12.420621743213934
Sb 7.0106426736524075 4.412683747362636 12.379452321859276
Sb 7.882158461819868 10.450410562426363 13.51099627876071
Sb 9.621025064859058 5.267887412969255 11.361768326647798
Sb 10.663575472815127 11.06940670539119 12.916775906246539
