48
Energy = -187.30908127 eV
Sb 9.956286446263006 5.93589317631124 2.618358930588849
Sb 9.266365382540089 11.828042763561823 3.664805684238522
Sb 6.126678357579093 8.525388812322086 4.360004858209816
Sb 11.735420382035711 10.36448692105358 3.957905094096495
Sb 4.017310797805187 8.282421069477047 6.361473015408368
Sb 12.377303049735659 6.223661079349597 4.114361155681434
Sb 9.191499119569288 14.273955928237953 5.169053558257061
Sb 8.135995445631645 4.633907286745412 4.464676697418038
Sb 11.769011227820656 10.069689559550564 6.849666486677321
Sb 7.435254438570457 6.797509912525355 6.294784979139656
Sb 4.853269451938274 5.481763247721395 6.572443591925673
Sb 12.350021197396625 4.308326860264826 6.239549900039699
Sb 7.450998352279736 10.750055751357051 5.78773680457152
Sb 5.741357816525792 9.80713365756159 8.211111896873234
Sb 12.8160972597743 12.629346840607363 7.61985078913637
Sb 9.896604384252965 12.80270694936361 7.561284932233374
Sb 6.342856076518362 13.386860697854456 5.333450298857849
Sb 10.176114805422786 8.013400604499294 4.626579496882878
Sb 9.719446982591169 3.218591712216459 6.41706274085074
Sb 13.982064870706276 8.25323161442566 7.280932675054249
Sb 3.8424275594236117 11.572193080721796 7.158492250975456
Sb 11.89838861342695 6.448309495502194 8.1860879620249
Sb 4.351867955642905 4.747568289251029 9.35136753680806
Sb 9.113084778307512 14.538771935361742 9.778261065228318
Sb 5.068098764787417 14.071613771468881 7.847322592221376
Sb 4.591884384587675 7.491310394358791 10.300069567459355
Sb 9.838783863015935 10.638310686034929 10.060748636844226
Sb 9.058935208709094 4.717876634992564 8.942297731187496
Sb 6.799889444869445 3.4296528418060723 10.298985259927843
Sb 8.003570564847212 7.230558221486552 10.150300510060909
Sb 14.53128975263019 9.51760040254378 9.820024740379345
Sb 6.851533179319287 12.712534453907837 9.662706469333495
Sb 12.586399777800356 11.609235991227363 10.331459050315871
Sb 13.438593570144272 5.040024630912613 10.136843278596857
Sb 10.62746364541362 7.9992129345611325 10.929905659049751
Sb 2.420893876453754 8.856830064720073 11.764406664786772
Sb 10.994827057860306 3.5650048497570634 10.81274184715555
Sb 4.1728367187220865 11.147116644378533 11.320485957645879
Sb 14.431691407242933 7.274621146058494 11.717026841611437
Sb 4.596281871201786 7.536304558422183 13.175532831918556
Sb 7.33718736811899 5.42879476116321 12.332559020905798
Sb 9.65660827295665 12.788978736820019 12.062398424019666
Sb 9.948718006073129 4.617771671556942 13.243191247917663
Sb 6.86557006173112 13.688559214595244 12.421585994049869
Sb 13.078622225409335 8.209715295742216 14.00182210658798
Sb 6.435956318384049 9.706179070002056 12.50136701822963
Sb 10.398165279423406 7.483026608054704 13.740670007199741
Sb 5.216687485988761 11.842162027033568 13.942458998865103
