44
Energy = -171.6027985 eV
Sb 8.633999378003002 7.175620506362701 8.964277201692555
Sb 5.685224501115315 7.021989061460661 11.883861671931813
Sb 5.705901307028708 1.6948238903740298 7.004959396158453
Sb 9.710837389612779 2.9303255942814 8.40630425415113
Sb 4.402706602762169 4.675536983137372 12.969215856975914
Sb 4.027854677105679 3.709416204381057 10.220923278931416
Sb 7.922196235520701 0.6639999346549312 8.5532560902478
Sb 8.057043001555867 5.501070679360528 11.270369366889275
Sb 11.616086027882083 9.55230167097341 8.323824894714305
Sb 11.473962919453053 6.724426579279842 9.012396251478787
Sb 7.392412286153797 12.57396516568094 5.933454320192726
Sb 6.358197042448136 9.827477117866211 9.767342966036923
Sb 3.518925405649103 10.524872963353173 9.91241289010454
Sb 2.5056180058418387 4.187645927386474 7.169916583165006
Sb 6.219081348623676 10.125402004995673 6.861098708472818
Sb 12.467273722019423 9.01727021468932 5.589916649008628
Sb 7.3560291840878245 4.581403667269372 8.59696533934086
Sb 1.7806343224268577 5.854027298928644 12.888581470681276
Sb 10.026444238346258 2.8925982105309305 5.556207345733967
Sb 7.375710385340862 2.1889472635444274 4.7051921732970445
Sb 1.178620295104017 4.333004367419284 10.461334150600985
Sb 9.665884916278172 9.141102806622346 6.197479788419265
Sb 1.7734325982926928 7.161607750336745 10.320884690614163
Sb 12.241340108261513 6.187439454109305 6.240265418962224
Sb 8.500376347533175 11.78267325989107 6.251243761965019
Sb 9.547937900534716 5.744706159136466 5.276228252775277
Sb 5.477515476487167 12.57396516568094 10.24853474666592
Sb 4.398723402689509 6.4324672061619745 9.32130488174233
Sb 5.157667941776792 5.945650195696831 5.657601103833867
Sb 2.993104820321026 2.575128378085512 4.859443239963411
Sb 4.74275277763156 4.364518851329296 3.31025174299366
Sb 7.048292330048676 7.713438987350739 4.08056554904231
Sb 4.2898473970416475 12.165995363741352 7.6570490155233735
Sb 11.03132271011739 5.758274522228 2.7911004214884105
Sb 1.0373482694841374 5.991467446473414 5.561964832327791
Sb 10.991788278037887 8.470197205865768 1.7059630280120563
Sb 9.060470367389433 10.621566593942442 1.593229177062251
Sb 7.42995171763376 11.963051073946074 3.566954597791531
Sb 3.248296201163812 6.990884378361218 3.7922757416343864
Sb 9.471859313248556 6.388566503781262 0.4492574050593653
Sb 1.5381164772093119 4.458863600859887 3.2156484101462346
Sb 6.481173124885551 9.630226324466094 0.7058142732678122
Sb 5.336958960553987 9.956921057035563 3.4250305461572252
Sb 6.74163455269181 6.831824373575127 1.3406527801400676
