43
Energy = -166.29156454 eV
Sb 10.557593086851766 8.914525371438454 3.4382801985062046
Sb 12.155442280573443 6.879004079964088 4.704888360500098
Sb 10.735369041187562 10.712976834825657 5.6817481859618715
Sb 3.715450231613604 8.390092910343927 3.8474752335498725
Sb 6.080948703509203 8.08921154497377 5.422524441993948
Sb 9.210558306560932 3.567148377914404 5.874643570062586
Sb 4.657914441586729 12.713856056155064 4.964286057897493
Sb 2.3870709543909556 10.968704710845508 5.048084716864169
Sb 14.520010576316627 8.33200867805812 5.355792935297195
Sb 6.780460155330109 10.852465208764073 5.069319445911545
Sb 9.890987506085049 7.987047578611149 6.094147872364798
Sb 3.8588789343369196 4.755089136794958 6.083581866833416
Sb 6.7553311349499 4.834684364196879 6.909741228551313
Sb 13.52645916887303 10.805710702658185 6.347682753827164
Sb 0.985211107694733 13.168864328034639 6.842100174625125
Sb 9.944474953199459 2.1880056698250616 8.302810162070978
Sb 10.612831162255572 5.010295780052069 7.9931332014439995
Sb 3.473564156606071 7.594334468476258 6.600964198752499
Sb 15.399578060917882 6.661599799546137 7.55456640292586
Sb 3.677215693506319 13.35572955981835 7.691382300183907
Sb 9.902742549357102 12.986298117656986 9.162998234125963
Sb 7.906826871146835 5.165618901765699 9.932172566717545
Sb 7.026471682656549 13.401302767142457 9.774834348636823
Sb 7.872226923266593 11.331036088084609 7.909417636774928
Sb 5.83664166428568 2.334515058629502 7.982842923408585
Sb 13.519665883348893 4.5502927929871015 8.259986672414442
Sb 2.2653952650041416 10.849017343940908 7.935711020742334
Sb 14.049548318729562 10.670541999341427 9.17701374612573
Sb 14.957558540988716 8.07035234330129 10.02233768153176
Sb 5.270001562073738 6.345695938208893 9.64665492045659
Sb 7.501316776739809 8.792299296460175 9.294873874816405
Sb 3.6316970643893782 4.012376835747568 8.866844916963656
Sb 7.695951531188881 2.3201475856072284 10.177227933311269
Sb 11.969641975460393 11.838607805429977 10.858371698758157
Sb 9.395790532948517 5.9489115046284065 12.300756056996393
Sb 10.758073425870226 7.600122847854578 10.323807432008845
Sb 13.121677493918735 5.937806224038185 10.801344426968367
Sb 4.957404926258217 9.79160385436376 10.421379361917372
Sb 6.067201197464552 11.921357454069305 12.025087252009497
Sb 11.265945754679485 9.529310556422029 12.38389889827763
Sb 7.481600519314107 7.833879564545654 13.424329674110945
Sb 4.826931372178089 7.546056359567053 12.274320542449495
Sb 8.383497678546085 10.030652765069643 11.805794038512706
