40
Energy = -155.69937864 eV
Sb 5.069020500553321 7.151235727949794 3.053065560612214
Sb 11.329193191999911 7.1578775431265536 3.949746397455521
Sb 7.443547684821646 8.672469282068825 3.1239589228642592
Sb 11.511267261865841 4.708468272460057 5.484083082466715
Sb 13.017142401889755 8.903599181755418 5.489304159390704
Sb 6.981202904706947 11.359777378345852 4.313491063975838
Sb 3.478818699918639 8.288883126664462 5.382754547763143
Sb 5.61792659191061 6.367982853659315 5.776042214607946
Sb 14.624757776033125 8.719225822290387 9.046969766321723
Sb 8.578898026537805 4.927466426076371 5.768608406706831
Sb 8.917972574083366 11.912227724356509 6.364469061503567
Sb 11.577946143382007 11.415624528981336 5.284308776348713
Sb 8.937502619343585 7.781391052737359 5.452923222685909
Sb 4.749804820768914 11.016228746210048 6.022932479586895
Sb 12.59857611405083 5.487805870619973 8.05615253345441
Sb 8.450449080582583 9.949962966000962 8.449660469191418
Sb 5.564800990189329 9.454276829054972 8.268478769767645
Sb 11.947890134476296 8.298495132616456 8.072345377063634
Sb 1.466355202920369 6.228774582816064 6.065598953056317
Sb 3.6405046569953643 4.35560190425931 6.376616450931755
Sb 2.591504582201691 7.955505186982097 8.262740242891773
Sb 8.335294093163059 6.1362690689412105 8.425257077493217
Sb 4.911633994496349 11.343417435961946 10.416209980136813
Sb 3.5234804308295233 5.337289320377607 9.080594419396116
Sb 10.459567713080036 4.721558570268223 9.853644479641554
Sb 15.110464298122782 11.441159644293643 8.21244917847008
Sb 6.83995320574318 7.623392281631645 11.086344841149897
Sb 6.211187732944819 4.9708132053222664 10.098669159515632
Sb 10.266805704166224 9.084054247134093 10.95427986835857
Sb 12.519672161931805 12.601518940443308 7.742466272115654
Sb 7.740458345939676 12.022931405679307 10.474161216959093
Sb 4.530928561524522 9.035708995348463 12.122768914762661
Sb 11.718949502737743 6.642465924951839 11.655781137841517
Sb 14.273308030338914 10.840894989431604 10.94440445561683
Sb 8.112458677846893 11.473731425219503 13.29045354906965
Sb 7.353921856775281 6.8915633040142925 13.820317039729526
Sb 6.298498364279908 9.52591117796922 14.374512901676937
Sb 10.202815117292836 7.217536477169441 14.115007141441561
Sb 11.57490570333162 11.608099704329534 10.337171753620565
Sb 10.624503596704074 10.072692792962023 13.63514520483783
