48
Energy = -186.44847141 eV
Sb 10.962590836921878 9.035836676305243 2.0573129646814037
Sb 5.534710569294738 7.795696116035297 0.9654881684723757
Sb 8.420263196207026 7.528459112163978 2.0602160976987873
Sb 10.193684610758579 11.640752615218858 1.2232560852776502
Sb 10.621922264310713 9.51032542455947 4.890838488763441
Sb 6.95523767956279 4.278344629068369 3.7930820992502543
Sb 7.515629271770314 12.02363239982044 2.2298223912687396
Sb 6.544185841322667 9.438375321181999 3.111742372813393
Sb 8.945776264818557 6.2805202032842695 4.724440570256691
Sb 11.805539103566009 6.95289593591436 5.83912090680214
Sb 8.689795015791473 11.986170455298693 4.87297412920076
Sb 4.794214091558468 6.0390213066016925 3.0900439950500527
Sb 12.8593700437813 11.310308285679257 4.82093041484746
Sb 10.982728344550171 13.177148485171434 3.620239584481453
Sb 9.961772240136398 9.893709574079237 8.149406879949805
Sb 5.445199281764096 3.174811847623003 6.016586728584897
Sb 8.587616405821104 12.635870656052152 8.212092903045363
Sb 4.686017097621053 7.669775893389638 5.474788337772613
Sb 3.3679839168167565 5.203121149145325 6.2492912565106336
Sb 7.453058411023556 8.03688713803127 6.407693912620704
Sb 12.044199984875336 7.7503142250425325 8.541868508539928
Sb 2.224996698980772 5.30820168228048 8.916688082774693
Sb 12.388981343439356 11.52137801058638 7.690933662386753
Sb 11.14395225452553 14.048028409603099 8.395282636335804
Sb 7.524052095987144 6.230281632957707 8.691774336134593
Sb 7.661936814046815 3.451532750991319 7.8145662859075635
Sb 10.282785767428946 5.738552877565756 9.516681890737676
Sb 3.210743711813743 2.632808177906764 9.326453609188219
Sb 5.830617706789883 3.626788041458776 10.093602263327139
Sb 12.848843516173094 13.787305074152071 10.77393280849882
Sb 14.061602367394762 11.176228575485867 10.746034453780089
Sb 2.9973575797219327 2.5494829474431477 12.243959020908152
Sb 7.347836388126742 12.170874772880286 10.849967052606058
Sb 4.391701762927319 6.468026549559563 10.504190900494374
Sb 6.3723694081131015 9.57344076398389 10.03280266447931
Sb 9.971189104085925 11.02682848749191 11.00303336127605
Sb 5.84624596292449 2.0020620501620146 12.505452335043184
Sb 10.086618194601213 6.480731969244608 12.32406157928798
Sb 10.741819878787673 13.395484384734859 12.647263912315712
Sb 3.391375728235703 5.33611407332996 13.005857470111632
Sb 12.890025075602589 8.907773506981055 12.134878207560943
Sb 7.2021138012412385 6.100328072658161 12.034849522359059
Sb 14.339241603572807 10.953713176359248 13.629376669485596
Sb 3.9401443045768496 9.224460683113081 11.551823504822087
Sb 6.5076009021453745 8.85489773933658 12.817973999768997
Sb 5.945358203596287 4.45398629885868 14.114620956453004
Sb 10.221992964214495 9.263852078192597 13.257057350347273
Sb 11.951478003690173 12.049335378031401 14.720120282737605
