42
Energy = -163.75157827 eV
Sb 5.26461920989441 7.35032445546385 2.2033721697518334
Sb 11.10412077699952 5.8138240317305385 4.5312326209536025
Sb 10.670834367142719 8.673679725972507 4.3085103189873
Sb 5.656439082813683 8.95030726593134 4.597128290701965
Sb 8.721185659122987 11.913872942443673 4.657291436754641
Sb 5.702887853037551 5.066652081025471 3.85356618560947
Sb 6.013357107465369 11.669785167339118 3.6924577812075756
Sb 11.579668544993458 9.141217054433673 6.989437712960047
Sb 2.9918469936530725 5.728140496477358 2.956436488612224
Sb 2.848775423686497 9.408418002993722 4.495312519415811
Sb 8.472470940642589 6.947774136874304 5.141629652816873
Sb 8.751190340227062 13.305589898840948 7.1885879321477955
Sb 4.301399880537557 12.951519634476133 5.674221046352878
Sb 4.599243019988584 5.595056442759942 6.5172272065960595
Sb 5.756629671684255 7.184909487362486 8.62935270000516
Sb 8.780800585806643 10.408053580745495 7.149406527345467
Sb 2.191318992444259 6.809816411819877 5.532210750873587
Sb 9.879242154302037 4.586846336243274 7.725735327918131
Sb 2.9624787941687454 10.782810921660712 7.034355770137347
Sb 8.98300923268494 10.230868401473753 10.974584666049317
Sb 12.166113397981706 6.2356977388503605 7.177218186005113
Sb 5.671891239766277 9.966816830177924 7.733066792954036
Sb 12.70124581501957 11.276002834814593 11.07661065818532
Sb 5.987038327010196 13.9353096703602 7.847425327507407
Sb 15.476729841316258 11.029298543533583 11.782179620599171
Sb 10.732564002034199 3.126832222427231 10.101893691138953
Sb 8.682477281906591 7.245487665520941 8.0579914454269
Sb 9.400661434977707 13.082354488697653 10.627598665116402
Sb 5.035673805460308 12.026295490910957 9.739362449407496
Sb 11.641142879477785 13.69489189490278 12.346524518112743
Sb 6.978062829140782 12.090892395266613 11.89720786235093
Sb 12.92086471578958 4.725295690539872 11.110677585022495
Sb 15.555010412129977 8.459362077285773 12.649913966429086
Sb 11.684178608630642 7.270087317704539 10.710468739177385
Sb 9.063777303929607 3.929148819717528 12.327637230931972
Sb 8.998143939470653 6.701480553798884 11.644710371391398
Sb 12.07961683223561 11.237790380630774 13.877378194857782
Sb 11.658578705320421 3.8776611816330786 13.56838076514107
Sb 9.334504808088113 10.315284057079092 13.850070938085087
Sb 12.766810341435098 8.228115549189786 13.205954827151935
Sb 11.767583052903412 6.321851428171091 15.097292700020473
Sb 9.168870273580797 7.407635171620167 14.42143683869091
