47
Energy = -183.96558768 eV
Sb 8.798942030327249 11.418669681247223 3.2988401484279506
Sb 9.783343130526667 8.69775520395747 3.535076712494767
Sb 6.342042890072346 5.718550556141819 3.704426773302099
Sb 9.091092255791647 5.0189142369083015 3.6836948058346515
Sb 8.97220045780626 2.250555736155469 4.598736908107625
Sb 6.038903586896071 10.610736918931162 3.266800353591801
Sb 5.9737992897089445 8.311255707245033 5.0856931972125246
Sb 12.535885404919973 9.468622854984304 4.13211433930163
Sb 12.876883964788432 6.736735527782354 5.065228635683924
Sb 9.970190417656108 4.278509223453095 6.47935937346191
Sb 8.183607534997966 11.462255488078833 6.128488974094652
Sb 8.613489545713373 8.508525017037188 6.200448827539926
Sb 6.604420358516716 1.9056622517765438 6.126121170930684
Sb 5.412383702689615 4.504917489354945 6.122691500833994
Sb 5.465094038060611 12.002676976583924 5.7558694311936485
Sb 7.594003895248846 5.512464503748087 7.727206942696671
Sb 11.916978474604655 10.10129147847807 6.85579331249716
Sb 11.488389856877072 6.875055336169309 7.632974777204691
Sb 9.70917830496806 12.106496286391803 8.611864273778313
Sb 12.056836638167345 12.998178067922561 7.2403976594773765
Sb 2.7434028369828685 9.56543749201346 8.344268177279538
Sb 10.848682534302084 9.170703245315153 10.465126272054176
Sb 5.022930995084379 7.8218778359511285 8.648102032607829
Sb 1.3687873336409664 7.703202045677233 10.11170747391587
Sb 9.108355915409293 14.5950003501227 9.882725234127447
Sb 10.039583239639969 2.4366588989340965 8.909388464561363
Sb 13.40328002266635 12.92405667493923 9.8180486604893
Sb 14.358125371643977 6.795358093274102 7.567796304298285
Sb 14.558468138091165 9.679418148724952 7.8437079844508935
Sb 5.905886810829075 12.087305099344775 9.12578872946692
Sb 7.222689281116567 2.840889760044119 8.973155006303276
Sb 3.2857027128237912 11.657223297481407 10.208147938369843
Sb 7.178488547124695 9.527936856808216 9.57782800218905
Sb 3.8416309509022675 6.317494002900347 10.857902909505848
Sb 13.603821687030383 10.114507078001461 10.549083806311708
Sb 10.428293073218171 5.0014820286852775 10.173183685763254
Sb 11.256234182495168 13.748706536579778 11.643143160889187
Sb 6.861916316318104 13.633099609955323 11.39572891907224
Sb 11.206113667055474 4.850894539295935 12.949686415877322
Sb 2.5311263075008608 8.095381347933964 12.687765516807103
Sb 7.7089287542519775 5.578361653581126 10.909856405811864
Sb 10.619389186717173 11.130849155272296 12.641483217222499
Sb 6.634465364153698 9.218133632033483 12.354635376091256
Sb 11.379437005588589 7.736002327282046 13.005032204389476
Sb 4.066959990480667 10.51385995432989 12.69996712012703
Sb 8.858486653665922 6.4588268264466695 13.488998154500209
Sb 7.87724748845469 11.655605112250303 13.262014855376636
