47
Energy = -182.61633671 eV
Sb 9.291553037034726 9.279480569282072 4.1670330160651154
Sb 10.520296367573899 11.79083914866045 3.5047000897112426
Sb 5.953768876110658 8.970971886913597 3.715703159699848
Sb 7.48558642231786 3.809992473935589 5.057729389845369
Sb 5.6842149981299634 11.824022676836737 3.8053249309512216
Sb 10.982329457591785 6.884212118886249 4.151594540659383
Sb 3.1599286748779 8.859415906366248 4.453346573780919
Sb 8.07024141304032 13.357711712751279 3.3866656959289494
Sb 13.86803106893724 7.26689379298324 4.332307743809507
Sb 13.15426021799924 9.97324860935181 5.103653751074345
Sb 6.37445572360861 6.595441455331534 5.6202515903794525
Sb 9.486306819085776 4.408778591457315 7.045181975964344
Sb 10.921511868775713 8.667275131529314 6.484758023675381
Sb 5.0353642679083155 3.973015690359243 8.108013376400933
Sb 3.4729415688446714 6.399175512224412 6.094188694387375
Sb 4.71747969325672 12.970271612249263 6.229350658363854
Sb 8.558809563353218 11.096376261367158 7.5096310834018425
Sb 2.82476100232844 10.80453050235671 6.612515817146495
Sb 9.600545566482538 13.241165107833229 5.841498810735251
Sb 7.436206326086987 2.454502962719694 7.592809528685065
Sb 13.022228421549986 5.9880216245739 6.9473903708944444
Sb 14.834810367423277 10.49246835665796 7.397547191115152
Sb 8.302403360658023 6.977757471567959 7.743049543855129
Sb 4.772875289313452 9.396311424167719 8.134745823346588
Sb 2.5139131457204686 7.6636235201056095 8.557836778014892
Sb 14.746347951930993 4.872471881715043 9.124145335555239
Sb 6.505983438513485 12.934393890877857 8.557281115590584
Sb 11.954299794287062 8.39702253249261 10.084765296341338
Sb 4.5694789197122905 11.441803919210932 10.156521824540018
Sb 14.397090633955711 7.8043961869850245 8.680131821870349
Sb 10.539774689988358 12.44106149596077 9.23658260705856
Sb 4.335445465169611 3.5032788117681637 10.917471637849632
Sb 13.133009771356878 11.159422277289252 9.559261918344065
Sb 6.1588362250874935 6.216823718497798 9.527532828230486
Sb 2.8857323398110575 6.056038631073776 11.005361360669866
Sb 9.508702659612696 10.611224070558004 11.23009178720756
Sb 12.232078492327865 5.24430607933047 10.324106403497236
Sb 13.164662087376913 7.130385640192841 12.36603820553533
Sb 4.379610114912796 7.769429054856799 12.809158164726721
Sb 7.026759450671434 4.317155914897231 11.497314507356322
Sb 6.286002481519453 9.399612317512776 11.303124128901976
Sb 11.489462087890557 10.496918825831896 13.393278987006273
Sb 9.005836164734664 11.930477935034574 13.71524558057174
Sb 7.243703468324608 9.643423429307925 14.077909391306228
Sb 6.514255140301337 5.988810731777861 13.781946918580918
Sb 8.70083617874443 7.5989637999504165 12.63109375325609
Sb 11.054009380381306 7.773815189031822 14.301548722731999
