48
Energy = -187.84415121 eV
Sb 7.511429124107584 5.414055565646708 1.415309265137464
Sb 7.733964980756602 4.858548046918998 4.26311363772515
Sb 6.735162121632423 8.01215801155487 2.3470517276111242
Sb 10.047601815821997 6.8192454132288844 1.7918811176910638
Sb 7.984937057396221 10.309728096448193 5.771784850076143
Sb 9.898239936953175 11.057516869471165 3.213526528346868
Sb 4.442983552337472 7.436713859400941 4.03400901057813
Sb 11.876523249346176 4.804133947766976 2.7145432490957107
Sb 4.758097631851019 4.585034560424595 4.368345048391634
Sb 8.937563437599215 7.51362118315737 4.37889962054465
Sb 10.384359905616128 3.5444559633642023 4.86544143048026
Sb 8.138074801474476 12.784274462398479 7.390158122596395
Sb 10.06729808380036 9.2859966139738 7.417858192750321
Sb 10.49086863324662 13.714008281741881 4.077797366061064
Sb 12.961953929949553 6.7611579698698625 4.5468108058325
Sb 5.827013326523856 7.693456379496442 6.6069581918124864
Sb 12.590918474307887 12.377521048542546 2.586089285363418
Sb 11.673589614968797 9.5172653625591 4.932795821838224
Sb 3.9552159791798767 5.347093465694753 7.0413563802064445
Sb 10.93489396143859 5.874251129028035 6.381535682793109
Sb 5.775098304533545 3.272702646645779 7.860322519090673
Sb 10.728100421158889 11.965976834901213 8.392450558296426
Sb 6.9731477566620805 10.79476821507421 9.19259527815983
Sb 12.24280775262658 13.361787900467581 6.327866533347168
Sb 4.532434124278494 6.342221345248885 10.103355029566398
Sb 4.579092373589438 10.079686266067352 7.744659576398462
Sb 8.18126636861486 4.831440637110756 7.842609406958287
Sb 13.877189996430857 11.426478838995644 4.974824937358862
Sb 3.582677845301128 9.07753392272894 10.295534263805285
Sb 7.379968860709722 6.982379016427556 9.60559862650634
Sb 8.445213495896061 13.59090972706767 11.46057563735015
Sb 8.785014097906311 2.5501579549311586 9.614680307563987
Sb 6.145865616397347 2.8514109041986915 10.763592999646638
Sb 9.656906239558927 11.018581610768095 11.738454780372766
Sb 5.725557627369466 12.885284437313176 10.874761046476985
Sb 5.921609143144048 9.147273001417501 12.026298842948671
Sb 4.904721530011099 6.560777703472207 12.974935395738083
Sb 11.941192459499089 12.235705826250504 13.040291186529872
Sb 10.784799338000937 3.2417906757221524 11.604949434215426
Sb 7.289853668579723 5.217641278931327 11.968040002876204
Sb 7.980436298682636 14.294277987256075 14.175500639452752
Sb 8.753940294807478 9.964201860247483 14.271950369729229
Sb 4.828307591117973 11.491171433446583 13.300090444663866
Sb 9.27853234417453 4.056006441274224 13.904502938272445
Sb 10.708387156914364 13.93968306616193 15.002893381952656
Sb 6.920622723782065 11.881783133960587 15.257731286991108
Sb 11.027248676612846 11.152089637211041 15.602502543276279
Sb 9.407319959002876 1.3840431496849839 13.241168381194178
