44
Energy = -172.12615328 eV
Sb 11.311915244634255 8.617648932238327 9.075951340749238
Sb 7.779291601663226 8.475739544947613 10.838604882330875
Sb 0.6396776248336693 6.60475988044579 9.797455522018604
Sb 4.920100347827638 8.831536213711935 10.411081497472486
Sb 2.068825248076768 2.526896842740953 10.529877697454152
Sb 6.369706652453188 6.871209437787458 8.870444324278433
Sb 10.656510393121378 6.753127394897305 6.806590856470406
Sb 5.593641650402246 4.857187281557817 10.839110474371596
Sb 6.068166697639183 3.063584400761842 8.665227706505542
Sb 4.013737978326221 1.0553135633173987 8.938685645944808
Sb 9.563406818360193 2.773948799127589 5.503852237164314
Sb 6.135686411059451 1.0217410723313278 5.454366070889047
Sb 1.414433017611974 8.807213101311772 8.104059393289734
Sb 12.505752586227606 4.8853537494475265 7.856581214732564
Sb 12.505752586227606 8.944939263296341 6.486059876900717
Sb 5.328053624285398 11.194361831384182 8.78440953072006
Sb 9.11953762562708 10.489308506596405 9.161569131476012
Sb 0.3174552255869445 2.1688692737306825 8.275775290203384
Sb 3.0274228794890665 5.007406067839699 9.535710820447667
Sb 7.1866189852475735 9.697116839418001 7.181362352724204
Sb 2.6428020135548858 1.9303317221689005 6.499587019059031
Sb 9.904305547994998 9.142149717927468 5.281186807642896
Sb 3.7779702451281167 4.587005889674567 6.745617282455389
Sb 6.396877521051926 11.639836203257497 5.178699187928666
Sb 1.0608279604228765 5.125796619846092 5.596132860566857
Sb 7.880127101870338 12.741100789254507 3.5994256484762963
Sb 11.449277899574138 4.70999656964378 4.530909364820622
Sb 0.9944409653063387 7.995876982420516 5.360965653246484
Sb 4.203136171234518 0.8647452102679124 3.2821637930720735
Sb 6.758867825359659 3.7677987208949095 4.745082790013319
Sb 3.770333216937998 11.08098401799033 6.334894620827045
Sb 10.564729420630343 8.471319368034852 2.555629102454483
Sb 6.45102692637535 0.7716403130711019 1.4197721222590987
Sb 5.927145300331609 10.067903635188786 2.821027843850822
Sb 3.844803966712819 3.7182059165672556 3.347583586923067
Sb 5.852608390466828 7.201276530440104 3.3654022576613474
Sb 3.6797956358621695 8.160286623342044 6.41650985432467
Sb 9.898840605490106 1.55288077242231 3.02806378383957
Sb 4.833995650045005 4.137418285012818 0.7871336185346515
Sb 9.22558088614109 6.078081845978443 3.5415716315459176
Sb 7.624302313903536 3.3925752661439312 2.003830415805248
Sb 8.334097270015334 9.78999595310393 1.2495305915065509
Sb 4.422932703609427 7.006339982883186 0.8658529486830133
Sb 7.318939761656663 7.045770126032027 0.8496578683698528
