40
Energy = -155.25579945 eV
Sb 6.688604421259074 11.974450408149181 4.356555987183991
Sb 7.0196531545 6.384829390407882 4.692821814580823
Sb 9.279369007228505 8.11417687203222 4.049337791412353
Sb 11.978949802986032 7.104303392938995 4.737694681810024
Sb 8.410744548808758 5.080103577025222 6.908269145591049
Sb 8.440965908544092 14.208827176565036 4.9833608323897405
Sb 5.905057200847891 7.912336579633416 6.907346022434413
Sb 4.74941356067174 12.120937687033628 6.423491703028879
Sb 12.034211179155164 4.504270338120761 6.016734907653485
Sb 3.788967298394877 9.460226036129804 5.696019707458948
Sb 12.24238700991835 9.26391066548416 6.642251187635714
Sb 7.048265564408084 14.380816606292772 7.539728610530976
Sb 9.946821837544034 8.32559287417311 8.084100158389308
Sb 6.2372966745512555 4.500254993770567 8.801867564744127
Sb 8.496758066352305 10.157078267609725 5.979915809603773
Sb 10.482360265437043 12.30220284103057 5.850354902096441
Sb 7.657984891282575 2.35405124447531 7.531929881546746
Sb 4.171582901775229 5.6157737446950415 7.097205311485559
Sb 14.643110208278836 4.578634572598091 7.378640434619043
Sb 6.043006208670273 10.96489565965626 8.876436675716196
Sb 8.568790285710302 14.682899567981266 9.981443171210358
Sb 15.055912892646862 6.600261069422205 9.444544238795634
Sb 2.8042117576771233 6.698617193074014 9.397779668195048
Sb 8.96823272178576 12.281405841882131 8.431676392044354
Sb 2.116432696402458 9.190244413872842 8.080748840249056
Sb 13.263231288037822 3.330716352999547 9.638624135222763
Sb 9.541564099215574 2.970207687777719 9.680926351759421
Sb 11.203412231747459 5.150930779264831 8.685922276787002
Sb 13.845863052293991 9.132686518864942 9.100150273351368
Sb 3.2955353803950285 11.10281577514322 9.858373806419415
Sb 13.724388773051736 5.3723317712227665 11.692236754599739
Sb 5.977270054429496 13.326410924597308 10.624207803033917
Sb 8.081790053627797 9.911667484951789 10.969685779684244
Sb 4.765758768133738 7.060595260451332 11.506752311431425
Sb 11.275277538449213 9.14649755039686 10.52060356934733
Sb 7.369072959437735 7.246562661953944 10.207748994489112
Sb 3.8598714715421667 9.68878106572862 12.268671160788337
Sb 8.730560187571552 5.0500850415707745 11.67752696196003
Sb 11.152242101277599 6.660418555419285 12.086987710840708
Sb 6.304187353910798 11.257306933561235 12.760442047837572
