43
Energy = -166.79480211 eV
Sb 10.133325991948347 14.322254792448149 5.689268217670396
Sb 7.866160307590261 13.225855316838175 3.7985159243694198
Sb 8.996420280615364 8.480625987456698 3.1799615735539257
Sb 8.426508266645845 10.582141949562212 5.138671167759025
Sb 10.377129976617756 12.073576296176661 7.150998222237432
Sb 7.134407069227435 14.616002977489067 6.210599685553212
Sb 5.034955342724941 12.37743237159631 3.292794224369054
Sb 11.460540657563364 7.315108015352907 4.201548334660737
Sb 7.776595192959323 6.144881080468219 4.426970362558169
Sb 12.57170645211791 9.506229847087269 5.736541567294404
Sb 5.561368350897182 9.962609566645778 4.881256015043651
Sb 12.088681220157639 4.428823056300179 7.1160741552049425
Sb 4.216913488474218 13.502872574307755 5.774251677927527
Sb 7.49684127522021 12.323468197882583 8.003089498325586
Sb 7.823328438911707 4.217181664712466 8.288425022686587
Sb 5.913164664189642 7.250084914497526 6.34412359721245
Sb 14.8480396285056 8.18528027758419 7.025562645204607
Sb 10.2837748473389 2.955888912372526 8.850541022501762
Sb 9.948355312465209 6.318569553332097 6.442210441635341
Sb 4.714880062006328 11.19754573064548 7.344772249613132
Sb 11.399290770251199 8.86442168626374 8.340369606788432
Sb 7.9563026482483545 8.714370045672824 7.576134976015379
Sb 13.193688843391335 6.538885842326438 8.763632172653427
Sb 9.856734690664448 2.9517068494435086 11.762512411118392
Sb 8.34181583584354 13.37905375089274 10.618047388634407
Sb 4.701976648929577 6.987919277645367 10.28742528722113
Sb 7.121323042893106 2.7837156874383284 10.79579913014809
Sb 13.873538480201235 10.346676884527957 8.756634483927225
Sb 6.8442811065166325 8.910635589579432 10.268458359623786
Sb 4.798183599419377 10.811230014829992 10.980485760606099
Sb 10.434305159065795 7.513155842260597 11.581906324473778
Sb 9.64335173299884 10.76546009556751 11.104435373016672
Sb 13.186677398923942 7.24507023056939 12.343620577027163
Sb 7.159148966285839 5.643779965409363 11.01375716144442
Sb 6.387351410216149 12.58387018304909 12.614986434953536
Sb 4.237372231766639 8.566010496141873 12.731346526524721
Sb 10.089551669069248 5.362647403334639 13.479323966708634
Sb 14.320328326101286 9.776251827907334 11.539513846929278
Sb 8.419764389828961 10.788749544079655 13.71353690266194
Sb 6.662127067744954 8.566092666366309 14.330305074649743
Sb 11.374491171902786 8.86207809898905 14.004576667797934
Sb 12.107292042585787 11.313864122322242 12.61768753941811
Sb 7.27218903168324 5.792103903336775 13.933511512986344
