42
Energy = -161.43598437 eV
Sb 8.50515040695315 8.9314856716186 1.8058978513809718
Sb 9.605153276264708 11.503320340908555 2.0638158773861566
Sb 9.47808642562655 7.227619576954214 3.8710258715564354
Sb 11.603847525048883 10.752467521053921 4.027790114386772
Sb 8.069057870839378 12.180742532471347 4.790896979545593
Sb 6.696635407560266 9.756419128179692 4.426547818967867
Sb 12.239682505401143 7.956648247127008 3.925440373304395
Sb 5.32477122574365 11.925176484164549 5.829039314255944
Sb 11.298366999844834 14.411034427029627 6.055583834652461
Sb 10.263574632597514 10.594078644964947 6.6211677574295695
Sb 13.525441235895798 12.822108389818464 5.3309920764059635
Sb 8.405489758320563 8.422342479944565 6.40851501992738
Sb 12.011528474017116 8.03670417513345 6.800877364881189
Sb 6.0379193732864636 10.5766924573144 8.214647799519451
Sb 8.555933333157732 11.862067418176807 9.141337503307053
Sb 5.545924671361601 2.7494588481619773 7.605858598333851
Sb 4.089535741259477 2.870598464855931 10.000129212587561
Sb 14.778724229103045 11.923223542470609 7.737361255268177
Sb 6.833663838365479 5.31143594619497 7.590110832592756
Sb 7.702609932469033 1.248808075095332 8.815532065383989
Sb 3.8660676325575176 6.992605303151947 10.671174004740132
Sb 10.744782146212254 14.323509381372267 8.707719799336166
Sb 4.3828807740337465 6.891981360608502 7.9033439727942865
Sb 14.321535357728772 9.10086145178743 8.133209180825752
Sb 9.549736001323428 3.2301894660150205 9.653210798062583
Sb 6.961005143952279 0.3977375058130471 11.546070150859249
Sb 12.630813312371881 12.490669928861134 9.669035278755256
Sb 7.868138941532938 5.498004832927778 10.233901027232294
Sb 2.460432353972312 5.06154797373564 9.046061669752833
Sb 8.490599587100172 9.236379757653133 10.503512944218578
Sb 9.49202940877118 1.7232208567658627 12.161513526087546
Sb 6.987078793950865 13.46938385159346 10.946786360572569
Sb 4.788387532146447 11.620708256691668 10.752825690694072
Sb 5.572948014408837 4.622106651017326 11.698887354432081
Sb 11.923838576999206 9.667672385479158 9.78244049864341
Sb 5.990240937904101 9.402186214227683 12.083335837962197
Sb 7.065283581379948 2.5745060255657 13.355994209813863
Sb 12.612481738530333 12.737838550659731 12.487088920906348
Sb 8.51362579597098 12.864584225498957 13.319369540892701
Sb 12.568219112499824 9.981759778514743 12.650860441627577
Sb 9.520243040046608 10.220068860606046 13.038952022689239
Sb 6.993156953135603 10.704666609459828 14.466760847672122
