49
Energy = -190.00192341 eV
Sb 10.517040307424896 12.655490658471061 3.294910885609961
Sb 7.084551308765395 9.742510865394891 2.602730577994084
Sb 11.484133255336289 9.903805803092212 3.3636204433747197
Sb 7.712566538601182 12.616598596845778 2.8009356411449677
Sb 9.204327069345453 8.1770564868989 3.701403504101567
Sb 6.725096380987488 4.787490531356376 4.615651494543907
Sb 5.396756225500314 2.7586659233301614 6.186459184758965
Sb 9.263717786025552 4.0979724550721075 5.833099285945309
Sb 6.9108980367815525 14.406452534402725 4.945871540159955
Sb 10.372613623761248 9.516666173737631 6.004440441200095
Sb 11.00158090458706 13.20283958660561 6.068993968102854
Sb 12.364745207723628 7.406071518475147 6.129147190987642
Sb 4.955789430684109 9.00479894664787 4.472721819359153
Sb 8.712303716100694 14.236814373979941 7.1639147332639705
Sb 4.613713739938947 12.808321386181095 5.7427988281721545
Sb 14.261170193645139 9.384592547329891 7.049316550783436
Sb 7.988618134548444 1.7142205916967639 6.803279679097483
Sb 8.822819729373622 12.111699260552019 9.54303127820671
Sb 5.632846641821941 4.705011229556902 8.392741139533094
Sb 3.356713792505051 7.306748792963194 7.04941095986864
Sb 6.251040272517748 7.162192668884773 6.3435264129005775
Sb 8.964848702067188 5.10036087684492 8.593085654601612
Sb 6.582427040653619 10.752219352278267 6.029104019230885
Sb 12.061804053480065 6.9734203440660725 9.005749998098583
Sb 14.987340906534216 7.364301488370902 9.019140175932021
Sb 7.440976666746915 2.9744583798089215 9.893782221982741
Sb 11.654838605631044 12.886224963711367 9.447536719592245
Sb 11.4731497263272 4.2021584598575314 9.73789329584506
Sb 12.636404552927596 10.157690859464758 9.39488560654284
Sb 9.06981556765197 9.107135481892557 9.53080225856123
Sb 3.001587421236999 5.437814004898378 9.248999809380452
Sb 14.99908020848002 9.489795015982175 10.981518743149893
Sb 5.146289028457427 11.647605168483123 8.367074928134716
Sb 6.480275199869939 7.764716830221251 9.735961164171657
Sb 2.9141652752516576 9.780542469757489 8.537147880068565
Sb 8.844598638958724 13.453606781102412 12.24068081845731
Sb 10.163902604819851 5.91276875098711 11.716700170612956
Sb 9.625021929541697 9.749090797799822 12.27308336265641
Sb 11.71806555584779 13.257173302660187 12.397128029324994
Sb 7.845065198990294 4.313012762540055 12.49651928954963
Sb 12.515320033559457 8.621147464427192 12.356969043680655
Sb 6.430240961524767 6.846641465139207 12.471179929233859
Sb 3.57093720590536 6.696366284092121 11.818081585460524
Sb 12.508142620204493 11.009151348547727 14.068704674260141
Sb 7.850371526711793 11.350761740800094 13.91583741278154
Sb 4.368847627382257 9.337122001720237 10.974171377390787
Sb 11.779820877559976 6.366973495094076 14.145550700840426
Sb 9.352429557578677 7.899270858098425 14.57614361827339
Sb 10.079170584670022 10.540428494425813 15.616542127623147
