43
Energy = -167.40943908 eV
Sb 4.991957339267313 8.420107683128602 2.0684884568971524
Sb 7.690229785028525 8.859663308275207 2.872994026756728
Sb 4.855915312014764 5.726716077783244 3.1164979095495835
Sb 4.728911892817617 12.35368819309634 3.861583692535554
Sb 7.428777142177046 11.729615268007331 2.9634840767467736
Sb 3.295581980808439 9.842417862440888 3.8908918865242286
Sb 7.896858802387563 8.038665276079449 5.666643975536505
Sb 3.1786543545653267 6.047663648396778 5.440302719568426
Sb 10.747543725782679 8.579644884979349 4.981110336441432
Sb 11.929488166677837 2.5616565243335385 7.60223668134875
Sb 7.537688228856592 0.6486788335130464 6.672435538765164
Sb 5.930345212178749 14.537585203070194 5.480039104964861
Sb 7.374071837255751 5.351841606651133 4.609328332407736
Sb 4.357775119055281 8.562475623073057 6.26022827287279
Sb 5.532097721820812 1.328602970016389 4.755980000730905
Sb 10.602298694597373 4.617207617339324 6.0258942635528125
Sb 8.17220287159621 14.537585203070197 6.010869187999208
Sb 11.323325170922336 10.722265975760648 6.877860082323407
Sb 12.722161468904803 6.569963022062425 5.7013250528721695
Sb 8.112647924881069 11.695744169954912 5.776712366043458
Sb 5.327068191721038 11.854231695161378 6.68016021431297
Sb 5.462705948962814 4.5808527311001255 6.676251482272822
Sb 13.00150566347941 6.822843339645775 8.525671674057591
Sb 10.105939919271108 6.148243090818943 8.629082463070034
Sb 6.30173842933737 14.191101966118957 8.11205689213346
Sb 4.775364392582307 0.40588640105927626 7.34573539224868
Sb 13.03330002293853 9.615881118072428 8.998994814147856
Sb 3.1214684741606002 10.53504683978564 10.181740257143534
Sb 2.1191209165139004 8.733117587776285 8.085455992457973
Sb 9.089738583817352 10.061335347721826 8.591133847115659
Sb 6.024539913533717 6.668003600996074 8.634823037861869
Sb 5.884950599669613 10.01020955193569 9.427047867772686
Sb 11.69295358827565 4.064625815180997 10.08209762646509
Sb 9.973562586252624 1.7827469977660375 9.609916380663302
Sb 7.679862470736242 12.293624052697119 9.869210995487869
Sb 8.144782266875149 3.8404517131251654 8.784651761132421
Sb 3.260006896280369 6.435386446073463 9.470577259426781
Sb 10.854410623645286 9.756545431400847 10.919660546858154
Sb 3.4142385409471707 8.140944940325864 11.853710934782843
Sb 10.352733517874736 7.017839368350239 11.57331061361039
Sb 7.683215466653693 6.665672710355313 12.529621240389151
Sb 6.335095386330036 4.714412818103262 10.777219943892572
Sb 6.130804957367195 9.067826558129992 12.1846029070795
