5
Energy = -16.80685158 eV
Sb 7.77560650409563 5.793091813025006 6.337043582901461
Sb 8.291125677840848 8.294042713213814 7.6512131751584604
Sb 6.557914743915635 6.6354653423499546 8.803945360597686
Sb 5.743055846479023 6.89141948724664 4.580446436991825
Sb 4.134337314499014 4.888020730994736 5.129391531180602
