55
Energy = -214.45132395 eV
Sb 5.783059052207676 8.018173329781925 1.0141789396460206
Sb 8.559083105475883 8.641046878265456 0.5987794278178499
Sb 8.69595083711129 11.289482979126666 1.7526157705302767
Sb 5.0984251033096175 11.506662138795447 4.372230783369594
Sb 11.097756903349723 11.36595431020473 3.42558843530723
Sb 4.115377080407157 8.977464761145185 3.218344221665386
Sb 6.9045704481529455 5.481583696312561 2.8166341477903707
Sb 11.727916432141996 6.365255625815234 2.2395960755900655
Sb 12.758347345646085 8.989894892380828 3.024196995916957
Sb 11.988748257959566 4.677464025935645 4.550473447420266
Sb 7.843090322093887 3.7657517324962275 5.13983521838175
Sb 6.005689434083167 10.883288648021297 7.044589288853238
Sb 2.96949795265039 6.023958782397641 5.278859495823734
Sb 7.517906710764655 9.94571687135254 4.00130264024707
Sb 13.566136433147163 8.808169223550095 5.762946514909618
Sb 9.537569790727177 10.963217669622198 5.876816654312312
Sb 5.627492040949132 7.110351256658112 4.885276792571574
Sb 9.161901750428537 7.3207896774645045 3.135000847131796
Sb 14.174174629226746 5.995885142924102 5.907555459775523
Sb 9.782781056957129 5.695022461945503 6.101856860428959
Sb 3.5542069766168027 4.160911952331063 7.4672694432625555
Sb 2.8998074085647136 8.612216865916661 6.57614322493073
Sb 7.62632680943393 13.141700079532178 6.202038238562221
Sb 6.42283913015938 4.624957641340061 7.554871939974317
Sb 11.3661658162529 8.44773158363528 7.629464365809694
Sb 4.1930557821772645 12.103308151795419 8.922668535220241
Sb 12.118124347371465 11.098654539573749 8.653437654092052
Sb 5.139115726434488 7.849572452081344 8.536399293619487
Sb 11.166249169637101 4.162257510595803 8.177776810167122
Sb 4.206418043940097 1.2131819751136703 9.195190924123226
Sb 13.086029957617697 6.271473937172383 8.609849596933701
Sb 3.2670620045067658 5.95240320320827 9.754560905011063
Sb 1.4254598590848861 8.127046149632255 8.975891173047076
Sb 6.929507427016647 1.849428100020532 8.367120138534805
Sb 3.6788503427009864 9.57102967017809 10.359600916904926
Sb 8.583114716431787 13.842339807807342 8.844429894876518
Sb 9.552794618778792 11.378232598048777 9.957402305809099
Sb 6.163598911578577 13.676573090223346 10.451338569833982
Sb 8.149731060755526 2.4733388580468674 10.93591740353448
Sb 9.131939184136655 5.044203680877596 10.0340322619788
Sb 3.8059256843412097 2.256949353888452 11.661883466476445
Sb 7.311523251265264 7.904760748293332 10.823733856800924
Sb 13.371255525023303 11.530171477219392 11.297645448128879
Sb 8.8976560506346 8.862735759265211 13.893714919213451
Sb 10.456930727302163 8.330850667031903 11.493548626107925
Sb 11.08141354417546 13.295618722458208 11.429637295043374
Sb 6.2158598462342 9.63758053168862 12.838664831425074
Sb 5.836447279472888 4.1625736363887755 11.039327686425105
Sb 6.961872568940937 12.444903309352135 12.994686563105503
Sb 12.684458575478004 9.44472794386975 13.14104052053387
Sb 9.708419839061527 12.97272282579445 13.922496941322006
Sb 10.785604507079448 5.5587617805892915 12.347365326609385
Sb 6.245105526295261 6.281102355815445 12.979764792984241
Sb 8.749707851925288 5.931517601350229 14.377379438457467
Sb 10.976185762814874 10.623565855699484 15.071267193680658
