5
Energy = -15.95565231 eV
Sb 8.799238861097844 5.588073191526808 6.19777430056711
Sb 6.774202756902696 6.340794210815699 7.846107305616928
Sb 9.091127403025157 8.272115585482178 7.570129761429103
Sb 6.675400795829546 8.9578441714555 9.260384854073212
Sb 8.753965465208028 10.708067135038906 9.334971479967411
