51
Energy = -198.62178732 eV
Sb 2.6413190049491524 7.260104463260973 6.407605234041868
Sb 2.9425802492515065 4.716782232139825 1.230388298504007
Sb 2.4448475168456563 7.418318496814705 11.378044749193789
Sb 2.6928386198155008 0.5584067044692314 10.433930685206539
Sb 3.6838355073720965 4.064940461595202 11.928026952122975
Sb 7.9332245104212955 12.663462077503388 0.793059863389332
Sb 8.34819677637842 9.00366522251123 6.31967990857114
Sb 5.276682932472633 8.730143960991402 0.9063676888436005
Sb 0.3541109648363346 5.446728835357148 6.423736365138146
Sb 6.9364869218424845 3.292315697917829 2.99359794014059
Sb 5.587793018162213 8.490681896107287 5.346138018531797
Sb 6.241019039891367 10.857533020755433 3.6215537612437876
Sb 10.463765871399778 2.9713605275900576 6.790938584146055
Sb 3.3760207935245314 8.30201047160237 3.0547350076961086
Sb 8.92401526841168 3.58919309858957 0.8546868821207109
Sb 8.170233934604456 0.690152237078008 3.520133225290268
Sb 7.649577312891663 6.0071401403992 13.273262758750963
Sb 5.125713691319089 12.593985743925113 1.4276776729466623
Sb 1.8522365517166552 4.844848200564727 9.851670581972513
Sb 4.002911305266157 12.262971468237101 4.8257345436427945
Sb 3.5500207612394075 8.450076350650725 8.91047024927882
Sb 1.1759083946637832 7.068047985546669 1.7486752683896758
Sb 8.704807712046689 0.6890131581885257 6.441173381187267
Sb 7.6721040156783245 11.797676934654758 5.996679244265232
Sb 3.791597515702476 3.6073937261773574 7.85525212971326
Sb 5.146426768386262 2.1125346488847394 1.029805358751726
Sb 11.078607173419227 6.316538251918402 3.7843148887610254
Sb 5.1777997372813465 6.543967025404904 11.748609155826276
Sb 1.9048009172122016 10.710239759858645 3.56940924387676
Sb 7.187888486232342 7.1801533505757185 2.520160804130442
Sb 8.090924347332644 8.234689571377064 9.117479616877937
Sb 8.555441587069907 3.6545219997875735 8.834518439391893
Sb 3.3184311019649266 1.8000866107574303 3.890127689628789
Sb 10.90830835284442 8.920185230491997 4.89517782329724
Sb 0.43778318107233566 2.3401927655193364 10.422402519298638
Sb 12.811247709424169 7.073735205273406 4.143218411968538
Sb 4.748000990474272 6.240608830012589 12.837010278185973
Sb 5.736339467613192 6.532270939484244 8.844994507282752
Sb 1.2110347101471002 3.813593168113534 4.188845297310204
Sb 3.9357544668907116 4.721320892926163 3.9407419046428034
Sb 4.554712422245636 0.5270983558317598 6.110960661209717
Sb 0.6311689778325063 9.250776938004554 5.722130950719128
Sb 6.045050379679941 12.2629714682371 4.158507942786081
Sb 9.791809364307753 8.42446221124753 2.266661763970735
Sb 7.453543871194336 1.700004787442591 12.58564811629099
Sb 1.6736433173564071 1.530075527436605 7.895714772918039
Sb 8.989130662677448 5.199183809190067 5.599284698657197
Sb 9.890072057176445 6.139567385312733 8.227464020068702
Sb 6.630590236304447 2.6199937778587814 6.443186064148616
Sb 5.129459260138409 10.822926373923007 7.12121606843951
Sb 5.038132089506293 2.2721337544763753 10.089975759206315
