53
Energy = -205.94492801 eV
Sb 7.471508590686107 5.591572651325275 12.706679796915735
Sb 4.151723124034482 4.903214626418315 4.97306563191204
Sb 7.081289858925392 10.822475744467527 4.729179348337607
Sb 7.1345285932233695 7.94137593035223 4.6044712021055485
Sb 5.82867268946823 9.79972356217468 0.9783283104827636
Sb 3.443525037841031 3.7579633383497106 1.0803532381987568
Sb 1.300212205495295 2.6612985231326234 12.54633378551225
Sb 0.8391670904706046 0.5607048749624816 1.5812637874446893
Sb 12.42741272709582 8.44806189060962 7.1490927102875705
Sb 3.42611041448762 9.108349478148874 5.049520019745292
Sb 3.698988586483265 8.807049930052635 9.44140087503942
Sb 0.6902715154443583 10.176165483455947 5.198509763072088
Sb 6.497641081777219 8.550260422394242 8.992418331779483
Sb 4.469642163655509 7.36940302913325 1.6320073678322438
Sb 2.105149758385386 8.957896163296954 1.051629681363425
Sb 4.577489586564697 11.124191483728733 3.2455795905550673
Sb 0.7190244368311175 4.7265414643427235 1.4347729976300958
Sb 1.2025914474139852 6.735970777728018 12.40157500286241
Sb 11.869908529406171 6.114255461997294 5.585038490487905
Sb 1.2538537974405592 7.891439023136329 3.5696339654728617
Sb 4.685764309113357 6.809337733574081 7.259251124623693
Sb 1.2207972398666176 6.57489786436736 8.590572726510965
Sb 11.733883702898927 4.922749159743284 8.225954169310924
Sb 5.196908190995391 6.878841576931944 10.884141595482612
Sb 1.5555687570570111 5.036010783447188 6.17071490185864
Sb 12.288579286147984 2.206417739807548 4.751657637787859
Sb 0.40727800799543756 2.687488899617799 7.385217810564457
Sb 6.568051211562157 11.124191483728733 1.8268156620247207
Sb 2.0290527633147426 1.8350459152696659 3.881274703136102
Sb 5.350427094240663 0.6198698807875658 1.1008076067390686
Sb 3.110207267472069 11.830747697569437 0.9995192405695162
Sb 3.632962681081144 0.6727463351983314 8.438229263132538
Sb 4.5135938030545795 12.298171046535888 3.4853958944289736
Sb 0.42814632077867054 12.63094595885136 4.731480141212105
Sb 4.964579810024585 2.9369181619655067 7.07736690593643
Sb 6.469519588102532 0.7811103310474131 8.929988133578437
Sb 9.863980717603127 7.875795663852367 5.6349368029124935
Sb 3.930350207877006 4.639519011516271 9.236340812713362
Sb 4.683628225866183 2.053356367457541 10.698571608216458
Sb 9.312987405407037 6.734189646975003 8.261924271850896
Sb 11.391607271446363 4.72155425490897 7.7425861702345715
Sb 7.829949646944057 4.70277112714736 6.776924673634836
Sb 7.923233822275524 12.169444334542812 5.940588869729376
Sb 9.987396643641608 1.1634469807744983 5.952749391047442
Sb 9.25729589859017 2.718370636925479 8.30129101469686
Sb 8.307693885706975 9.449912253982255 2.469663795562023
Sb 7.532843447079147 1.5514200832554468 4.442009257822596
Sb 8.539990993230843 3.1374090769727982 0.7264859032120398
Sb 4.010875354029761 5.888139056644739 12.190578572008949
Sb 8.84743900398113 12.337456317467689 3.189423913486963
Sb 6.91848908030187 4.808783123858685 2.4198611138576056
Sb 9.5649303698173 5.636591265511334 1.6942915593010743
Sb 10.20687967790786 5.02159236694141 5.086133525596127
