51
Energy = -197.93914665 eV
Sb 5.957435962109039 5.702324542039203 14.333429564430194
Sb 3.6732855293355007 6.995093170107991 13.053138435673594
Sb 2.2275750783001853 8.948652502144345 10.315491698774183
Sb 7.780689636771162 7.200388072012036 12.597548437469987
Sb 0.2581836883887065 11.868683375610415 8.310102155542472
Sb 5.432210639010905 8.470431969588724 11.331028890541148
Sb 2.3714478620484782 11.910761140530441 10.259135923917388
Sb 9.182931668082787 9.008922749874612 9.558793380963001
Sb 4.872252993216565 3.9399496868958552 12.39320124329053
Sb 7.589252850184977 2.9210225945005814 11.721716105435009
Sb 8.309055057156606 11.479533295402998 8.258289924493189
Sb 2.129849297585034 5.633826739742394 9.967785302793583
Sb 0.107811468700132 8.939788030684863 8.320971440893096
Sb 5.154705854722586 5.847080131896841 10.194537801635537
Sb 8.235079978416877 5.3468316957717406 10.39485273419528
Sb 3.0296697891635422 11.88162503775367 7.469955049856361
Sb 2.9109929618666133 8.932645389618273 7.49653659730703
Sb 11.783600345590282 9.79651243295045 8.474756701325033
Sb 10.26604783692 2.478093029512973 9.302640398781671
Sb 8.032462679892967 7.438722328394342 7.394172107668079
Sb 2.6757515224128605 3.3192836687340863 8.269634887707653
Sb 6.194339931668158 9.694250865706486 7.485070135519928
Sb 6.598668632663918 1.5898549590555637 9.34723057534148
Sb 1.841614243848113 5.779253420623409 7.001917370837847
Sb 10.38267384271678 11.068401325691104 6.284921291535531
Sb 4.625581246097461 5.0413805148108155 7.031743285418247
Sb 7.192983854736636 11.120368982118686 2.9667694557207667
Sb 12.347820616519181 7.836553076800874 6.438899306835067
Sb 5.576297966509603 7.270784717969311 4.138461777257927
Sb 12.825236264288915 3.342113858831423 8.154347211793329
Sb 5.228605977670808 10.062570085173894 4.764149843922191
Sb 2.7205318348183183 7.388431568182962 3.895491732583944
Sb 8.836967020000658 0.20419847834721574 8.190521743616708
Sb 10.998954036456551 5.520954281716075 7.506904448642203
Sb 8.37695655466941 2.848662390498033 7.11543034755934
Sb 2.974989166390841 2.3274650281466567 3.616121740207813
Sb 5.389359031235167 3.1463315168916455 4.940333207980923
Sb 9.739955723576102 8.431808337540508 5.263642037889682
Sb 9.086382852833403 4.4485625415442644 3.094730911472064
Sb 9.142380439242961 9.220712258919926 1.9505468060444515
Sb 4.444729911390307 7.763614864576614 1.5247771437744801
Sb 5.311389703909345 10.47144042966558 0.881184906575538
Sb 4.952424894646365 3.817679013456169 2.143175147133856
Sb 12.201099122986882 3.922101966305774 5.41231571074427
Sb 2.289363144100637 4.8893465480081115 2.4694983378202733
Sb 10.050499209439803 2.2045777459758407 4.675275412798029
Sb 11.658816069641425 5.225996174079947 2.009885435423222
Sb 10.166876776916583 6.124128216956569 14.58475817932175
Sb 10.0278863403808 3.373795470431227 0.5892373535263954
Sb 7.708158161621159 6.919140333616287 1.0218918704138082
Sb 7.6029408396542415 9.348101016073528 14.333429564430197
