51
Energy = -199.44128453 eV
Sb 11.966855395736218 2.6414865899785918 2.2087782931852353
Sb 12.564832102611266 5.472367104458047 2.633541127695
Sb 12.128152889684964 1.883672197192505 4.959011263506903
Sb 10.765475608374754 8.175568246607723 4.932282060501874
Sb 12.670135586018569 6.061061246726265 5.4929207542775895
Sb 9.615962435522325 9.204849508652847 7.342319778837713
Sb 10.727797107281086 2.0338063204072063 7.963702934780132
Sb 9.601953874231281 0.6477092664075412 5.655401617334191
Sb 9.261340701515019 6.6294128943102875 9.16363360593109
Sb 9.749188969106774 4.581203180680733 11.464473668258595
Sb 9.092140609375825 2.9317071380888926 1.856793666165865
Sb 9.777816005381403 5.760751151617026 1.7079684250005212
Sb 8.463493093039999 6.549829142186729 4.131848573007925
Sb 7.911326236731494 9.203768191007958 3.1504031461507203
Sb 10.594139375921166 4.116325832619051 5.915021512804811
Sb 5.609999295061704 7.735722000874681 6.910950411041614
Sb 7.257092402164121 9.970839137280059 5.874711071928673
Sb 9.36897704277374 1.925955938706785 10.493535124341884
Sb 7.881446949612755 2.7813094829879494 4.498158383325968
Sb 7.277395306546201 5.389316483924393 7.457198364873168
Sb 6.4091303089426646 8.09173011369296 14.398813775831044
Sb 6.206479440418059 9.40890871091226 9.218011110270897
Sb 7.095115380671689 7.321133918033839 10.978757417364678
Sb 7.171488421097046 3.386882963994577 11.594487858936246
Sb 6.238483533826484 0.7396684784974487 3.1764312050546057
Sb 3.467256637231932 9.441575490020242 10.273193514493373
Sb 2.547077262480714 1.7803812950709363 8.103338547237025
Sb 5.6298640864464335 4.869632820874743 2.7393891087481563
Sb 5.276350093489117 9.262602914622597 1.9303218387421857
Sb 3.026885316663438 6.966475984919922 8.923298727033457
Sb 3.6742552244759965 6.975496935095879 2.60800039662298
Sb 5.600828904140831 5.109941993406104 9.817734805886644
Sb 6.509074315685616 5.22652229451134 0.031316965855192606
Sb 2.5794399898535434 9.46861620409203 7.530028620438147
Sb 3.497917409811075 1.0052153659927179 4.0136281543304335
Sb 2.8843101353127394 3.332102227305948 5.659396614017632
Sb 1.2711430669196504 3.6840557323164305 9.838314655457841
Sb 1.96473146430257 6.7970767514348855 5.170653783955875
Sb 3.899709411917509 7.753285940809385 12.992029759248336
Sb 4.407900078242048 2.428672251008522 1.674158794255834
Sb 14.509253731101028 9.755863037384403 7.465958791899599
Sb 3.9277549661280915 4.86975765808797 13.498717225041535
Sb 14.530400703339195 1.5514020397454291 8.581394105915916
Sb 13.229635149873308 7.215451470529826 8.080059189365075
Sb 2.1833537518767243 6.578965132791058 0.16770028472749343
Sb 0.5533355221885714 5.392153478573078 7.60893335346216
Sb 0.3114356173405778 2.7354003531040876 4.458199479658081
Sb 14.7479906911593 8.949048592519008 4.702469943046831
Sb 14.679868846337595 5.5035744597660345 3.65824702123224
Sb 12.67013558601857 6.964491004473201 5.216420832415384
Sb 13.414119776610574 3.3972988619677156 6.647106639704069
