51
Energy = -198.56107666 eV
Sb 7.504875521045787 9.55713139592 4.999620845917176
Sb 10.381438649333903 0.08077504906727978 3.8902488267329796
Sb 3.604421074924059 8.56780546756322 4.8946944830567425
Sb 2.7430059374147477 5.974663514692602 3.9095085598385024
Sb 5.203073725576766 1.8976277689566183 11.376805159979083
Sb 3.1805515422828927 6.836115526875234 8.738412890894775
Sb 4.638392695197739 2.1046234375812403 7.24571406277327
Sb 3.723987343531688 2.7645860876146613 3.7987038768187875
Sb 1.2982119097667677 1.8402345362190675 5.135094592298375
Sb 5.85641297589163 5.534974225151222 6.617750596962901
Sb 8.352461274627485 3.64935879234152 9.490093568861957
Sb 0.3227111994862428 4.342980287586003 0.8233841097546089
Sb 4.213341584496474 13.495285493752052 3.4733782360905776
Sb 6.641975736877929 0.06700071217333606 1.8761027778051205
Sb 6.5239802448543385 0.7340253007533398 8.939819315111764
Sb 7.114636993136907 5.952422876452157 10.644384727620096
Sb 13.543737961312992 5.97169734284776 3.206845821956525
Sb 7.414225570775353 6.351174680876585 7.068145469048676E-4
Sb 6.031153560898791 13.361630364084611 5.719429965641262
Sb 11.693083318725831 2.538518953032831 3.173927670029171
Sb 2.7194306858728443 0.6955883299516233 10.669532384685875
Sb 8.512017437679122 4.376297636873782 6.683530625238881
Sb 6.317586594818347 13.059401588514419 4.785498996833652
Sb 6.806438952512059 7.656171245677678 8.315048042728362
Sb 1.0993221443855743 9.758224827235832 6.061175687205015
Sb 9.498296503470572 7.0141622411099895 7.3964042967396075
Sb 3.583432367859121 12.235942361295281 5.153551023413528
Sb 9.972700708129803 6.00420279779666 10.104394638289456
Sb 13.256399661580685 7.2899207555118375 6.5921575306767854
Sb 3.291034955163459 3.316743020825719 9.835858253960879
Sb 1.8232235100923764 5.382518864469726 6.615904177390562
Sb 6.049311988516396 4.468939100881989 1.7794643125265617
Sb 5.181657891124499 6.463390514054283 11.746864976702676
Sb 5.6865266989895185 10.976341929750234 6.758781482069179
Sb 3.701049646689431 5.74075499592215 0.5707682634534424
Sb 12.643348149677998 3.6592665317834845 4.699454735007541
Sb 9.12670986943465 2.8831848778197795 0.3197118559229414
Sb 4.047128877009915 13.059401588514419 8.187537654831356
Sb 0.4374166207288991 7.575830567188433 9.42305510487079
Sb 5.2387814220151405 8.215583838511005 0.4335394240560931
Sb 2.4676575399467557 2.403667515162718 1.1770671849877434
Sb 10.846014736360942 0.6813221166000611 1.1106566926674002
Sb 6.567840555816383 11.009605750082109 2.6937628887904643
Sb 6.237218862147163 7.074242407202963 4.191331855844191
Sb 3.6952460501941506 10.550857253014234 2.8098233714658134
Sb 6.305455572685217 2.2082053822147674 13.574187377745401
Sb 12.04367290450182 2.460981725744826 2.1033953552213336
Sb 0.6704939907992178 0.5608406353999473 2.551196727269322
Sb 7.874075122527488 1.463554229168104 4.056831295839074
Sb 9.088782774504207 3.96443817396327 3.003188263530223
Sb 2.3293615336808635 9.614883414439923 8.628202044869196
