54
Energy = -209.92044256 eV
Sb 10.412758775220144 6.606722060305454 3.321895019292907
Sb 7.434773497128478 9.270130593918177 2.0469979087726644
Sb 9.76020558364479 9.373391958282891 3.64455351740203
Sb 6.029253018656416 7.531981742621206 3.8161222191314454
Sb 11.095949317722573 11.810441122575668 2.8591047470591966
Sb 8.127875879845751 5.812416576382184 4.909974715966553
Sb 12.218556933773394 5.973148682685791 5.470083630713122
Sb 14.548207209471597 7.548430023738586 4.930848449876214
Sb 6.3448115831236045 11.658726815829784 3.651408990915028
Sb 8.856691699715114 12.86387195129386 4.501121529196506
Sb 6.351303421370326 9.732283232881805 5.763601089964186
Sb 4.000581515961337 10.946101604555023 6.97480456960121
Sb 5.0766817097320605 13.403753472961554 6.0288426733365075
Sb 9.588283864422019 10.677735841887953 6.275173691609334
Sb 13.297291224654035 3.649072214047384 7.959116817532253
Sb 8.323364040844208 7.16435366643132 7.469538310728831
Sb 14.496562484890452 10.386071484301725 5.592297089040396
Sb 15.533239788587387 7.116811105093163 7.652327306798757
Sb 11.263890829260298 7.725827990930332 7.523353183667003
Sb 12.14882610226149 12.069321074496475 5.5861325989874455
Sb 11.835527288882227 1.9295215156330556 9.79276390607604
Sb 10.43195905602688 4.001260908199837 8.379457083496096
Sb 9.112745607019743 14.424291624424272 7.948658400970214
Sb 6.300173596498486 12.938622601317578 10.404540178911514
Sb 5.109170264728979 10.441308771868938 9.599089969700307
Sb 6.222279121193533 14.829966425603649 8.232241875095875
Sb 6.733779987390529 4.929996923487043 8.433604966702644
Sb 15.390817866748792 9.971725555782424 8.320745390545293
Sb 8.091040747845904 2.3536949593293475 8.134701887672161
Sb 9.275482938715449 11.928327728534816 9.457229501326962
Sb 12.155610082975267 12.389873089247756 9.027499091772981
Sb 2.764341218046204 11.207110498959082 11.099001333568248
Sb 4.215046516358386 13.38564676216635 12.415401036109856
Sb 13.186849586931988 6.310523915077234 9.20357409854566
Sb 7.949262649295337 2.2091653835118805 11.073554341169322
Sb 12.94397174213736 9.78283684812778 9.885692210197623
Sb 9.393277729629984 14.429160807974277 10.879775384568424
Sb 10.585384196622659 2.9520797265453185 12.186379661268454
Sb 12.315128285987312 14.163328712405304 11.264845929935372
Sb 10.74060359370991 9.238741740344786 12.654270859708172
Sb 7.0897038399271635 9.221521415860511 12.215449244089754
Sb 10.194765861538846 5.644755592272965 11.221364826443832
Sb 5.829218751607266 12.616643611959441 14.721935023432316
Sb 2.6248582957440836 8.982648068691551 12.934083287273754
Sb 7.337035054700915 5.070609933556776 11.270857255275143
Sb 8.075481559968933 12.094729776616385 13.089963066402138
Sb 13.541512255413336 9.989039189916761 12.71120602008263
Sb 12.54065949755727 12.543532472966794 13.655152171421298
Sb 5.050626938130652 9.722510944202202 14.238369291440963
Sb 10.452344432062691 6.663958390293495 13.958690893875428
Sb 4.756921220494473 7.114939065437668 12.040771260109716
Sb 8.042046259074482 8.03662537118682 14.746215093669955
Sb 10.2221976737687 11.130108696101392 14.788989217662397
Sb 5.369970952653819 6.819502906848869 14.825531331562331
