51
Energy = -198.21247459 eV
Sb 8.491791307775557 6.783210271055816 12.422912767071768
Sb 5.845488938635072 0.9116093927321941 10.171652332259514
Sb 6.942608203354045 4.340131266315316 12.127998590600702
Sb 2.643940089848953 4.484488552991177 10.4822592493582
Sb 6.132376516370432 8.326090452243617 11.177802609008458
Sb 3.1243348225285814 0.33101335795130526 9.427226028655173
Sb 10.391737113072555 5.94991126703656 10.429578202334888
Sb 5.327713435369776 5.455176368919009 10.019106062874943
Sb 8.872438294399593 3.4867058072995647 10.097423382566356
Sb 9.676733215473924 9.199851866381177 8.207798891799548
Sb 7.558877284037448 10.97465392063083 10.74766924128068
Sb 1.6091013516040196 7.078218480925137 9.723494000715958
Sb 3.481814274309778 10.03940317561281 11.373739960035504
Sb 5.968587947771424 2.999855996278532 7.941239964724798
Sb 6.650107651354882 12.427936655439064 8.173265862845751
Sb 3.0873817927566636 2.905099272867799 8.11802438831275
Sb 8.475542944678212 5.723055272567021 8.28934711406997
Sb 11.871731237162146 6.240880224076727 5.745080568033622
Sb 6.795547178859475 8.975818317354099 8.435716986765218
Sb 10.074941295683695 4.113717605459006 6.519440336951353
Sb 4.014552202304244 12.414475512532082 6.981240821585531
Sb 3.550102900657055 7.873197640701555 7.7587295360375
Sb 9.646693799943638 11.827789371465487 6.962510928699566
Sb 5.9123913264116235 0.8511850943515398 5.860664675894922
Sb 3.1365428286255788 10.610176685006676 8.609803169223094
Sb 1.994938523982039 2.953727470664003 5.421580743470431
Sb 11.160653595593956 5.248174837846637 3.093048874121712
Sb 10.686690692656418 10.513067064680422 4.559321603339894
Sb 9.620275672537486 8.003246818065726 5.5354958186479815
Sb 5.118932575658481 12.414475512532082 11.135273083153553
Sb 0.7515539891670799 7.618031099931627 6.999269208166363
Sb 1.0945565837947384 5.640703794400769 4.89080467401884
Sb 6.298561975508543 9.222335053640771 4.9504612154985885
Sb 5.811132519162065 11.840148436614298 8.344537964500525
Sb 8.335854013885244 5.0843781130437815 4.123484655905045
Sb 5.75680735197373 5.186852969951152 5.8280838087298426
Sb 2.2047706709478754 9.457159443220927 3.7504629082222536
Sb 7.902224036668033 2.5385881755553616 2.7803632998456647
Sb 8.011775782576255 11.578164474314367 4.600816538967754
Sb 10.019227897292941 5.416891019003501 12.807233794551674
Sb 10.39171551987892 7.384812653787159 1.4973150459402746
Sb 3.616058231423852 6.953389290738918 4.459174899946289
Sb 4.306087044177479 11.284217196604983 4.5174265927636625
Sb 4.413975970779736 6.039507494339659 1.8401594008930644
Sb 3.5359592370022415 8.809724335200489 1.2636291092817362
Sb 7.202132206785074 7.023412965000348 1.8286617881866039
Sb 4.58878857930072 3.223430425537567 4.166908592731936
Sb 5.9716006526165915 10.068808012288835 2.2234820617545648
Sb 7.1267167139713665 5.6390906681137425 12.712950941232418
Sb 6.906908519360797 2.8576973774233814 0.12721838274566946
Sb 9.800373806262444 2.7482006431561974 0.6065854981829938
