50
Energy = -193.64316725 eV
Sb 8.570914084304109 5.640087959950036 7.553078750519441
Sb 8.662243713543942 5.026056351149876 10.464763195090377
Sb 5.747744250817402 5.004080181046774 8.307395860302663
Sb 5.397191813275585 7.849498480434926 5.861715146653592
Sb 8.258171503746622 10.296835947762725 6.296758917786423
Sb 7.2328366252210765 8.169441842382394 8.15493453587615
Sb 8.116517027218551 7.848502878974839 4.7521003273337685
Sb 7.975665678800182 8.883710810170879 2.019383385107808
Sb 3.100216105103824 8.983006249832792 3.3020785563050157
Sb 2.4136643042340107 8.568639810803225 0.5280545944680045
Sb 4.552511434827392 10.339581875621183 1.2300049974475462
Sb 1.8421412976445057 11.12693371872144 1.9005264621038207
Sb 5.427376639463912 10.747408778366673 5.741977731711187
Sb 4.733643069493207 11.41402701854866 8.493736110770948
Sb 3.5272745865788724 9.056953615223632 9.635698673999535
Sb 2.2754768454666277 8.764103352811192 7.032804128733039
Sb 0.8512964848993356 6.608326987829549 4.650197356346615
Sb 1.8653482841824007 11.160433784020512 8.600280639002728
Sb 2.332188971189498 5.01749322339511 8.452328954065399
Sb 6.707425408269101 2.880786171532785 10.043193653621216
Sb 6.2591793174495605 6.61952701403754 10.690263543169966
Sb 0.031558675991825914 3.342025079710655 8.217611420408765
Sb 0.3395752881865805 7.115952617230909 8.478366096263992
Sb 12.670378580158117 5.4653076554636835 6.527155617278121
Sb 3.107047346213839 5.058853867701343 5.578178104650682
Sb 5.9601045340715695 2.490558851611602 5.86789975055525
Sb 5.328669288641114 5.261423855689139 2.4467222152434602
Sb 7.499273418037784 0.9221303991650845 1.5797389342029007
Sb 5.21903124998217 13.22403150039807 0.4354733609673019
Sb 1.6630202101915972 2.899690438176213 4.244908098090926
Sb 3.208191764399313 1.5786684947178975 0.3386948277467801
Sb 9.99219207784579 6.5762466299468905 1.7647511217971865
Sb 6.467836391764337 3.399359057309471 0.499743406321242
Sb 10.585517711027657 4.467422820886449 3.6735862391378595
Sb 3.003956291173455 5.303099419901864 0.756471544850855
Sb 6.51275055350907 7.080299092224482 0.4580832831091668
Sb 3.0335980832991454 13.15776429855644 2.277177076072048
Sb 2.051351626293744 1.4934194900941102 7.173767160680496
Sb 4.935814148656869 13.489253370669779 6.024203037615659
Sb 0.6580105442466062 4.841984900921167 2.3307165258642577
Sb 8.223465912098535 1.4576726381554992 4.392271953551258
Sb 10.865367805052 3.261736366975609 1.1133093443871387
Sb 8.736586348567513 5.04093524429825 13.390610250791093
Sb 12.670378580158117 5.293002657943889 1.8628622423432408
Sb 3.1793870091293903 1.458598541768749 9.8655212548264
Sb 1.567077702096863 12.999572816891636 8.934487320198437
Sb 4.131481897867189 1.969551292177013 3.0547105497545477
Sb 4.445355451654679 12.845419308443923 8.82715159692423
Sb 7.799361083931557 13.125638527457628 6.442454926555052
Sb 8.221257625848526 2.0219707074852593 7.688722032370083
