51
Energy = -198.06932719 eV
Sb 11.841057397718942 7.465370919675827 3.257925230869067
Sb 9.147185861886651 8.201430347587703 4.174360150447397
Sb 6.367169111618437 9.774606651130425 3.7655160053300563
Sb 9.473742584838126 6.329002323068415 2.092794276124514
Sb 3.7465153005717964 11.032400751655276 1.5400162013122398
Sb 4.521753808072891 8.284082461648012 1.0499545432417128
Sb 9.968510987080744 11.184721003105164 8.48729412634896
Sb 5.578668975455917 3.4624899451237865 1.2250316829614616
Sb 12.828926596530545 6.188065253713784 5.702701605318983
Sb 11.712611830413472 1.8308510471065995 4.064932427831846
Sb 12.027289059883769 9.613973528243093 7.281580796202839
Sb 6.854292387716269 2.416256861797107 3.5931580933947846
Sb 7.805959712356448 13.795370723679895 4.082285912108222
Sb 1.0962939320379779 10.334602199347838 0.4459443358490233
Sb 6.897334916412648 10.585784132725289 6.527115065646819
Sb 12.145645086983139 3.4604245932474447 6.407584498993597
Sb 9.483124606470993 3.680186153550745 3.396423615590882
Sb 9.729995534907895 0.8250400640976848 5.947054621637065
Sb 6.538003056762879 7.79926741885426 5.953287237558861
Sb 1.7191202000446424 7.4816819994946675 0.33065729065170213
Sb 3.3356869988062092 9.054384020406788 3.591224027908958
Sb 10.616976167479928 7.115250140486949 7.333598307660886
Sb 5.473596357922687 5.7585147376440995 3.005474378445959
Sb 12.370071481830024 10.402055649245495 10.010962135749198
Sb 11.49157538187968 6.108988690853038 9.910957036042618
Sb 0.4299327041393869 8.60151977189268 2.6026360979396426
Sb 9.237038931723406 3.7190155102113063 6.293627032114604
Sb 3.0282803302370387 4.703135902104482 1.9722809494007671
Sb 5.564413716170068 13.644595308977006 5.879724425191681
Sb 10.871985384706887 8.406669359967704 11.503823543254079
Sb 3.0434273426204155 5.979123619942621 5.96370334979689
Sb 7.1994807579440065 7.142291628616829 9.236101481683226
Sb 8.492004801161944 9.48148646932715 10.325402619678357
Sb 4.603661865424369 9.266849821233352 7.686594427795708
Sb 2.455521284413955 10.596295931200274 6.316634644948429
Sb 5.547287069178385 4.217471648682933 5.840353873286147
Sb 8.899310133658705 4.830341812520022 9.819588543042602
Sb 0.5612693481990192 8.38323279049509 6.453214188118864
Sb 6.544452526160358 1.4955489730520084 7.56665515237167
Sb 1.5612265657753348 4.084404448469059 4.433090393779435
Sb 3.677078563248638 2.132980257409195 5.13211886381353
Sb 5.06311357766508 4.287823200391469 9.417569706583494
Sb 4.418203795743078 1.4595910737684443 9.467789205216425
Sb 6.343362057380279 7.27701011195164 12.066895004165785
Sb 7.9672603268383995 4.965627738780827 12.596636754277402
Sb 1.2422111529142843 11.049955033146254 8.973970311126864
Sb 2.3211508341469256 4.7379558193644105 8.503692026660023
Sb 12.828926596530541 10.031445177812207 8.05150753116382
Sb 0.5611848761376769 8.267954867801732 9.351293493951419
Sb 2.2240197573652796 1.970235167623759 7.620440084775228
Sb 5.0983970030061245 4.683744387520844 12.270652182769261
