55
Energy = -214.41451545 eV
Sb 8.054791128060257 7.2287595213129485 1.9727427125268067
Sb 10.958450423457453 10.241655825786708 4.14165639408181
Sb 12.717894197447658 4.3042730334552255 3.0332350359908253
Sb 6.826150390224948 11.03751635777346 2.827653201972993
Sb 9.241697568823351 9.871977912769633 1.8284763154566737
Sb 4.258399318527406 5.940100456060006 4.6683298154537995
Sb 12.059782484171958 7.545712470141777 4.453067152758163
Sb 10.026217808664958 3.549359721505481 2.91766523782612
Sb 6.132690843636713 8.348734149342196 3.8932213743013397
Sb 11.39092172521872 11.932028215109568 7.363206624909944
Sb 2.1523932864734006 7.423077208194905 5.754680862720064
Sb 8.028084899211821 12.934106976262793 5.009527681552921
Sb 9.473229541062471 2.0291766347523303 5.39835872811198
Sb 5.144050917997198 12.805439833618113 5.026544938924277
Sb 9.467063162960468 6.185012742180632 4.2283276803658945
Sb 12.472446987456573 4.015410423427398 5.7998334962479365
Sb 3.808162915558573 13.819440146474898 7.399763493270306
Sb 3.6881944514174387 10.13117560434019 5.294007343972128
Sb 1.740220624553944 11.983497221237451 6.499456791131717
Sb 11.689884678924809 7.354211843622111 7.3865992584791345
Sb 12.044801839133646 1.2738039971959472 6.51717948600505
Sb 13.154497368904298 9.770845169882316 8.201815624023945
Sb 7.647661213797574 7.62406993409309 6.330161433394512
Sb 6.224393700722775 5.043398403332296 6.622735536596106
Sb 9.073547717170936 10.567316158766037 6.293403760946385
Sb 9.774758803531142 4.429281401710736 7.072180884341032
Sb 7.851584621691907 14.102159856744048 7.997992178142791
Sb 3.4634486026495215 7.354641218618069 8.289975701265222
Sb 9.960227783980178 12.967985914843164 9.689512744607429
Sb 5.359842146856081 9.421608683566218 7.54133316962437
Sb 5.6579456816463365 5.36622399305031 9.521721912663525
Sb 1.5032187486266457 11.34980699873464 9.311635250251909
Sb 11.06879131507665 2.5822909794575 8.937328661139553
Sb 11.738164325543542 6.067664507344777 10.75803035532587
Sb 7.4869349465192485 11.55273914472533 9.076800396931924
Sb 14.122943280328442 5.714374002664233 7.416442322187566
Sb 4.326509899774793 11.756238079190434 9.43304147690013
Sb 9.899474961004904 9.926279780046151 11.391264715988514
Sb 7.346961565011612 7.693625413930071 9.846156628251666
Sb 8.505252668411126 5.023378785679709 10.346828634152047
Sb 1.5835515101959037 8.599783093318493 10.092063701259375
Sb 13.47416148655764 4.0464072071597785 9.682869963745175
Sb 6.853960835766427 11.035254051491139 12.269592067865077
Sb 12.772640777366911 10.155952273927312 11.050191250813949
Sb 10.573307300310915 11.479064580976365 13.853756105429952
Sb 13.756114445236369 7.649655896316289 12.11998080543821
Sb 7.9024431095618555 11.933656056765676 14.840485613677458
Sb 4.076712322107342 11.909018643456667 12.359613748892317
Sb 11.436834406841367 4.568195024829381 13.2088193656418
Sb 6.126309721030328 8.234107864163 12.461941504959283
Sb 3.292429805993691 9.129874092272956 12.420999295917607
Sb 9.42066435478421 7.897892418248216 13.512211918164795
Sb 8.562658983482825 5.049680148250586 13.227109132844495
Sb 9.409355138455062 9.742512606901158 15.843820466791334
Sb 12.088060170997915 7.1714402338989895 14.435542958684477
