50
Energy = -189.82250616 eV
Sb 3.7936424857928817 9.070670197358817 11.789758990910808
Sb 2.498182429321007 3.0915077566818496 12.42981357634749
Sb 6.852749571457589 9.942358890022973 6.737483884345315
Sb 4.182124259586483 5.400941124092278 0.7957942835512389
Sb 2.7125404416269685 6.457300441323823 12.3543823529661
Sb 3.7110193605993214 8.40621609942141 8.814208984100043
Sb 6.7278647330240835 9.878344325737388 3.8114038160271435
Sb 5.969019774737366 3.5958473382600573 6.113843142506288
Sb 8.480979819216248 5.56521089607422 0.5606574469601925
Sb 1.6148483122744262 6.592081356984501 0.8744066157850107
Sb 4.535669315671506 3.655868705912992 3.4451723423295912
Sb 10.839122343636898 5.86890410392585 4.6856558721445225
Sb 5.397761097874513 8.448267846491943 0.7083200811811632
Sb 0.718781460484729 3.2120787765533545 2.207319579324728
Sb 5.185600219663323 1.8030514793513386 9.324496389106205
Sb 9.495721401798985 6.9954489815262875 8.854237004467896
Sb 2.418526735817359 1.3731840561077753 3.667552804556964
Sb 7.1894036267664285 7.13123539994158 6.4740054382274135
Sb 7.091952213893152 8.372264261009152 9.600419978026187
Sb 4.706832424234481 11.097959499969926 1.840926815019406
Sb 9.543488571950773 8.593340230976033 5.863102552115629
Sb 7.529918626052103 0.5315764866667825 3.3746841745246647
Sb 3.840511419255115 10.336920866792843 4.51444245205667
Sb 0.6081112911527777 3.6628177759467455 6.267165782065161
Sb 1.36892312475484 6.9869734519995434 9.805861610143804
Sb 7.827213130470172 0.9548263405461832 8.881597093112727
Sb 10.344753045690119 3.8348162974824715 6.7536652545593485
Sb 5.6858031692026465 11.682029560901166 8.202531841781743
Sb 5.487882896255613 11.84114476256152 5.190733062125007
Sb 7.6619396194432206 5.387004407641439 3.381499815799748
Sb 2.673845868463274 9.243438534278086 0.2678023807731634
Sb 6.365338650665019 8.018524164962738 12.429813576347494
Sb 1.1696679781219665 5.602703406730663 3.930706135282828
Sb 9.548969350797323 2.9185089250352934 0.2033439159047182
Sb 9.881866529676275 2.9100146580582127 3.0598424794364396
Sb 1.6727918157581245 4.237733241728787 8.897290309587387
Sb 1.7622051875389804 8.918629471347744 3.1708696725740984
Sb 3.777608265848613 0.7912532299091197 1.1219726819211333
Sb 6.202733513926942 2.2912269518118085 1.5075760066673876
Sb 5.3348025171850075 5.427864341592655 11.742571124223172
Sb 4.041074934308098 1.4858786917594402 6.4772709731333045
Sb 3.4795093471047474 5.913421863845127 5.641984763630404
Sb 9.196769859935573 7.85759779921579 3.01602357599886
Sb 8.238177258030065 1.8291438590891775 6.0220819603174975
Sb 1.4845343844371095 7.881326888483875 6.409890455384315
Sb 11.219244870054215 4.965578425529679 1.3267713021474703
Sb 5.3940794283988645 6.036383977476948 8.874797229934007
Sb 11.980042409180623 5.911465431507873 7.537035246822524
Sb 8.413898243794753 4.43387635525473 8.797927776889399
Sb 5.2941919071131105 7.259080299030565 3.413173915565571
