50
Energy = -193.35120028 eV
Sb 11.923080698280001 1.3249912862670796 2.5629063763053352
Sb 10.391667726532706 6.304092701866202 0.3386826438931176
Sb 9.660228352935594 1.4490514333928222 0.7871613159867972
Sb 12.711433622686837 3.9963353592305224 3.3279601703071995
Sb 10.28364503761727 0.9321987925600851 5.075103621645504
Sb 7.8904512593265785 7.5374889146369695 1.1067123636432816
Sb 4.61646627137345 2.4105753169627704 1.16628299663312
Sb 8.590206598597717 4.059509779145414 0.10468024586896149
Sb 10.659433746481984 6.012753879712364 3.3381344488983915
Sb 7.729138724892106 4.409848152822424 5.980724872248207
Sb 11.839738055926661 3.2285667942209706 5.982120244645986
Sb 8.146995794154346 0.657413025369152 3.1448286286241283
Sb 6.160054482947805 13.345663294903352 2.2241998987815643
Sb 2.465187892775343 3.983588920479938 2.251492972940904
Sb 8.871348440677586 9.271106688338135 3.243143450997968
Sb 7.754308978232653 1.7390485655529846 7.10543708113467
Sb 2.0092904537007925 1.245756502636514 1.5698624523947518
Sb 4.726519753754235 11.0766217478771 1.3996008242694296
Sb 10.263729829786103 5.582835798540173 6.490773223744174
Sb 7.942824745536987 5.093955909401976 2.721712562658369
Sb 4.270011613522263 0.6352923599898976 5.194784236099646
Sb 3.725184254977646 14.362954080666702 3.4309391045191178
Sb 6.6881115760339 12.322577415928333 5.0901206038362705
Sb 5.960506108479551 2.4857154654737994 3.7203120886373906
Sb 7.629097456862666 7.852948166083321 5.465863980810721
Sb 8.361976118947407 3.297250165581642 9.451650194456585
Sb 2.5859738393822482 11.685230306909734 3.2827578199819056
Sb 6.054210309099712 9.848421384219659 3.7481209438155854
Sb 7.3761025947777235 6.993702207244999 10.44736772235837
Sb 2.5210871773233117 8.397165210804754 4.897897127719749
Sb 7.812679130122618 10.146423366678682 7.1135778556360005
Sb 6.293684383484603 5.1023563373437915 8.528728143599235
Sb 3.8617942032618093 12.56358350003741 5.719035773468853
Sb 4.827606894653837 2.449596519035922 7.440803453158045
Sb 1.9057112328002652 2.0471682441828793 4.3595568308747925
Sb 0.8010380623969648 1.3313971673293246 7.626321197562259
Sb 4.2407302742765305 7.633005267921783 7.232266455747016
Sb 6.6363234507589555 2.3799912469107416 11.560027900036786
Sb 0.531188187050064 9.61542112552388 6.543546651291595
Sb 2.0480738116743558 3.9778927205182146 7.399639945621112
Sb 4.828160444705902 8.239914647877141 10.417563395508225
Sb 5.154320145050803 10.154183330938022 8.229307546564042
Sb 5.847627207007705 5.147234998709939 12.122834062018965
Sb 0.4120452923149046 6.767806974928069 6.063625006841596
Sb 3.5837668161514578 4.759317849639874 10.217357876925526
Sb 4.094253759640256 1.8880248576728853 10.192268456785222
Sb 12.711433622686837 2.7371432309257755 8.318659602387928
Sb 0.040236256044955676 1.7018975386649302 10.392762266924212
Sb 1.6342055457135898 7.767565545263686 8.518792130227968
Sb 0.3054584473730473 4.510616593411577 9.711353284507869
