53
Energy = -204.81622797 eV
Sb 5.928424550497841 2.3692903495554174 14.346024973739839
Sb 4.5927926293892165 5.75855807600414 13.829134247292119
Sb 5.313274507758898 8.541695240445843 13.98984969500332
Sb 3.2034660516487494 1.3113796831113873 14.414970855314769
Sb 7.354287545054157 6.555458686009414 13.545449026896238
Sb 5.449564217786315 14.385270111698281 1.321403690456596
Sb 2.0963029356488447 7.402845229230067 3.192160957186649
Sb 9.37632550465933 2.8804147577653567 1.8493402514284
Sb 9.310665290201534 9.051508769443378 2.0660503492793088
Sb 4.942765327510492 4.382670127912837 1.961585865567869
Sb 2.206299519640186 3.5585693288765485 1.5549364156990064
Sb 10.150255668263794 5.753020850416526 1.7029762094878251
Sb 6.82272982549831 7.528976178194035 1.7968951975444665
Sb 5.747690534365614 10.260735755737489 3.8535331648138955
Sb 3.741338978647827 1.3080894979002984 3.8389023416241184
Sb 7.222006332796086 0.24694103531530565 3.7668752525713183
Sb 10.186079794920396 3.2208980185028286 4.643957693403075
Sb 1.7687421821370803 9.593726357910516 5.081738178225369
Sb 0.11570640852522347 7.274963066989725 5.2800831215645845
Sb 9.716430416983851 8.126523052931224 4.779561819708767
Sb 7.888091719509979 4.7381490876320775 3.4297222017003746
Sb 8.288180017499775 11.492404033007237 3.43878703580142
Sb 3.59543818835417 5.469175157559954 4.76754069477784
Sb 11.573458629045211 5.846498506486743 4.173846933140123
Sb 1.7014738186437426 3.3215693895788867 4.510909415943777
Sb 6.7026424817754995 8.082760842802642 5.546897895774158
Sb 6.0855882231280525 2.509213454562072 5.125677344275683
Sb 4.616761469313396 11.803908127135731 6.003377636658598
Sb 9.946151180360808 10.920672560057772 5.731834790035564
Sb 1.7511006852484277 6.540507972113408 7.651055498754027
Sb 8.743939122148586 1.856031052298312 6.991080103154718
Sb 3.8694963769655004 4.453842729919588 8.118050309724685
Sb 7.008462981585928 5.310342577625748 7.366053349995536
Sb 5.325652749602548 14.267688381383849 5.901690272795671
Sb 2.342600914858475 2.013685456115376 7.782404995017452
Sb 9.828878173333935 6.032028606286541 7.786852318979325
Sb 8.12397674531871 9.62073226826208 7.573676371505652
Sb 0.3661157660777395 4.016645608530473 8.508440748930797
Sb 6.571952838614014 11.958866336358206 8.149713266095848
Sb 4.0113721358414915 9.07849946375525 7.009131682404468
Sb 10.742820752113458 3.336265352312346 8.526686540176211
Sb 6.826181650046689 2.8987456902421718 9.04108398352166
Sb 4.003581784099318 11.040142508661802 9.183667061504597
Sb 3.021529577827008 7.249446590385185 10.691370477781216
Sb 6.2233582574101085 6.669798309147261 9.969250178748204
Sb 2.4421829139361906 3.3339917013026437 10.400578407861632
Sb 9.200706318273015 6.402301939278124 10.583153631323974
Sb 6.46115858009921 9.220438196017405 11.403075264490187
Sb 3.6936523582312204 9.792854222175135 11.796315736805195
Sb 9.028349473285685 3.5288455984558222 10.87490686760412
Sb 6.094579120550414 4.729071403578498 12.111668529057075
Sb 3.8228106333248704 6.142098861321869 13.223800959466255
Sb 6.473865041308737 7.277270716501807 13.545449026896234
