55
Energy = -213.18601435 eV
Sb 6.598587874532883 12.1540982743285 4.329071240083177
Sb 6.491915819123773 9.466987042424963 2.8367199728383428
Sb 9.253574583012997 8.571614737242585 2.6358039474710555
Sb 10.49490661037304 4.185724216184105 3.770936420656399
Sb 10.406747145859315 11.10655852127842 3.6057705820798907
Sb 6.090141470037355 8.350366178591802 5.4693537245644075
Sb 9.689749289669287 2.1001214956330516 5.642909277434141
Sb 12.937238812183478 11.105863264198241 5.0733313147659524
Sb 7.033395820571731 14.79333854850149 6.235860540758739
Sb 5.140898009494822 5.582897468044013 5.366985592337159
Sb 3.476231292019723 9.329034011037633 6.248454735659712
Sb 6.889767608872628 2.683822669823262 6.081724182405922
Sb 12.944517838616994 4.769339146315881 5.389977971307973
Sb 8.64140015882442 10.806044790311475 5.859981296261599
Sb 13.72031864645396 8.363213700498465 5.318388009450771
Sb 4.3920699986123966 14.24254960380861 7.263817481818613
Sb 10.274656836380478 3.827011399660461 7.859499019925088
Sb 9.129047541813748 6.563592552401887 4.7871206874532515
Sb 11.585115962560996 11.015957885219512 7.606968506216608
Sb 11.454481706553896 6.944980814145586 6.6540762349323215
Sb 7.268806867456469 5.278855390586448 7.291336448143998
Sb 11.181889012139505 13.855305197087747 7.9979795673626555
Sb 5.277986821879132 11.519922655440421 6.857298929190252
Sb 8.430886831035188 12.946974499597772 7.886562018526292
Sb 6.416734666642241 1.8200397399698063 8.81968926369977
Sb 3.2633768146166435 5.364162848619661 7.6124124836608775
Sb 15.320824565521164 8.940413409214889 7.687322321171454
Sb 12.908857022497388 2.6841457754936053 7.451015560909644
Sb 10.762445459945129 6.2981886727630885 10.087123295954816
Sb 4.462665856286656 7.835915009739193 8.571104001883223
Sb 4.1176993112043805 13.28808005326403 10.04438574565029
Sb 14.121351029407851 6.350399269929578 8.28619118082871
Sb 11.514776141377245 13.236124959239435 10.841566301969554
Sb 5.726025433183132 10.881212602821623 10.091172200384051
Sb 8.988897850907104 2.456013797862609 10.048841899879791
Sb 14.733741860251236 3.7925422178513615 9.437713522598036
Sb 5.384039526387483 4.482395616143912 9.425593929680081
Sb 7.91857227649365 14.710948219902827 10.853693130927441
Sb 3.030898126947034 9.770041644585326 10.212066796634787
Sb 7.281699597851174 7.22117550933877 11.534761044956374
Sb 11.107772927178074 9.219717342318091 10.696065269881938
Sb 8.905518686633519 11.983552371574879 11.270833601591983
Sb 13.593768538256297 10.349976464464051 9.573556376148783
Sb 5.459603194941237 14.399882937489483 12.368827706565645
Sb 8.920782308969917 4.81357130887291 11.874899896738535
Sb 10.275829323275586 15.345616145119093 12.475958132663463
Sb 3.624361164532387 9.64890401263669 13.087171108013484
Sb 5.918876140566825 11.52472049870435 13.016500550415925
Sb 13.439445399488772 5.863297468916479 11.034120110981943
Sb 4.907419628096808 7.068420037127075 13.189033208541677
Sb 11.474118106121987 8.764786227964795 13.520345212490719
Sb 8.703488999221552 9.58634306746996 13.67021997070864
Sb 7.523767054778295 7.058347806935735 14.416155090323622
Sb 9.144805050174153 13.127196416825473 13.952587927404787
Sb 10.699370632547216 11.00555973685973 15.235010707476052
