51
Energy = -197.52189762 eV
Sb 8.943304076848994 5.011359679276483 2.426986953980774
Sb 5.795275428469987 4.810705608381058 10.87291115285834
Sb 2.8703883051444827 0.30297566651201513 7.246917265537637
Sb 6.146986839730966 0.5382834413470705 6.355035151597456
Sb 1.1624778477280266 6.572647139259742 8.544708061505274
Sb 10.226962580441105 7.999632389668058 11.887603367937482
Sb 12.154346628323376 3.8844698641017192 4.883147364037524
Sb 3.2896172226588036 3.866437167987879 9.707400527340946
Sb 6.064156965210788 4.660544414708404 7.870608244904548
Sb 1.9063792733995213 3.062201556009512 6.890757918087674
Sb 12.716816320813654 5.8727567257351545 5.149850570646647
Sb 3.34694720697456 6.9656591009731414 12.758886005702958
Sb 10.962341397903918 8.475685516286825 9.127471470576424
Sb 1.2826743508490481 2.3209181241571826 11.082019084325609
Sb 7.655492957220678 10.769828034618527 1.1558550593604893
Sb 11.384041497450543 6.243067278752817 3.4815894122304236
Sb 7.4245941497190975 2.2018830084333496 8.377613194689594
Sb 8.904543813677938 6.501411508129271 9.814829603883892
Sb 6.199605753522402 6.257109767716363 12.053879371371444
Sb 5.383142549716642 2.005791761628615 10.500545937721924
Sb 7.669778689149379 8.918325156508454 10.876859331501697
Sb 9.237618958594233 2.1344078938250135 2.459622824731532
Sb 7.670709682719054 2.4513567295703287 0.012791573820567219
Sb 5.900127036056387 9.502694394054803 3.0690034326881506
Sb 11.314989061075597 5.0140519465256075 7.407929829181975
Sb 6.938319387141733 0.7267815076383232 3.556762475008938
Sb 7.040659663452095 11.4018622239859 4.950523377522108
Sb 8.24315290418348 8.167570090315454 12.78541392691204
Sb 10.010340853585715 7.158023328343687 5.917131948810644
Sb 12.785929721279224 0.26936318946642307 7.171570072585124
Sb 5.788439845359638 4.300639156856457 1.236739309318483
Sb 12.154346628323376 8.098279942785783 6.918573285566852
Sb 3.1198427809824154 7.04395146719448 2.818397291037232
Sb 9.555887233818684 3.120050817036853 6.033041123831252
Sb 2.829453778722696 0.31576389534491334 4.356788561314305
Sb 7.779090135874247 5.328065187195792 5.454949641848115
Sb 5.233899073893906 11.336733712115764 7.208048952180352
Sb 8.617956911880608 8.572638665170158 2.7604987853802734
Sb 2.591063563798024 5.855048312096112 6.12555376078348
Sb 7.368109181829233 9.39070824458211 6.995478827041069
Sb 2.0825415687576094 4.317756385911581 2.6815797648333626
Sb 0.32848811812787715 6.5474900247331265 2.355434334266119
Sb 0.3657597980670861 1.876603582997875 4.723097756100092
Sb 3.7084651282060226 9.073587216788157 6.242203490802408
Sb 9.018904893310197 10.64472437536159 8.978099286006564
Sb 9.20846157491191 4.860910365023296 12.444470650298934
Sb 4.859049542448872 2.4472053803303826 4.598621454711021
Sb 1.184219401796913 10.311035102587343 6.811035891283573
Sb 12.538133468304864 2.734298473024717 8.764704099685682
Sb 3.144491992295682 4.108148524981404 12.833196302029195
Sb 2.70667507849278 9.04164804840508 8.933741174818527
