5
Energy = -16.03187885 eV
Sb 11.818477457390518 10.263747523159854 9.163359586418615
Sb 9.623820959906203 11.026078167765826 10.535706399247331
Sb 10.094737131214082 7.436179795111064 7.297448412291161
Sb 7.670416361295442 7.79987738783483 8.625298125065298
Sb 7.180875611236435 9.661164287370093 10.417104280722164
