54
Energy = -209.78520623 eV
Sb 1.4300010455293957 5.797933139577463 2.767351013007116
Sb 6.982255189413753 11.846272614075271 14.117198578697591
Sb 6.42856563128531 9.034226595924807 14.2737025401755
Sb 5.27418614114289 10.697405486798573 0.5568165231936675
Sb 2.8891450389399997 9.850038810880651 2.2731824860028667
Sb 3.0044122032736458 7.336135740813132 0.9385565810959364
Sb 2.8673508193472057 3.3377581198437576 2.9134353557677595
Sb 5.556963356378511 4.053599454013286 2.6711417815883807
Sb 10.518014613121903 5.498188607144764 4.087109651704796
Sb 5.7417937745530185 6.513493531906202 1.1690993301417079
Sb 11.64391694727009 2.999867601622653 5.004815863818584
Sb 1.690649475766249 6.434127751159572 5.615325497928496
Sb 9.74016396600614 7.905458515306529 5.536144215230554
Sb 8.717135135177202 10.162971477818386 15.530466235714837
Sb 2.9653535757104805 3.8869016145526967 6.110513988381021
Sb 7.405691825189489 10.532641821096647 2.5072633204305315
Sb 12.454236303463542 8.45717297373371 6.4451138714356
Sb 13.911424157294155 4.092521433777313 8.518499051451668
Sb 4.147428255149339 7.602914103102841 6.753880797356832
Sb 4.840472192974647 9.836517365479443 4.26818643726486
Sb 8.784524336463518 3.231471612970289 4.611120455182755
Sb 6.774739526955183 7.870014613511244 3.484009203837603
Sb 11.961327802176637 2.2091936870868096 7.723449546475343
Sb 9.443594884223357 12.734483518973489 8.676682027503913
Sb 11.823435250227496 6.323411724556932 8.350246829627087
Sb 5.0350192131982014 11.604846161833013 7.9023351057858475
Sb 5.419792019346939 5.276776936897964 5.394569342787239
Sb 2.694613039969596 10.033404871165493 8.507259852661004
Sb 2.592844314217096 12.924206718717977 8.710020372821504
Sb 7.801758719008355 4.583084237761329 6.991027817681202
Sb 11.098910730040107 13.413806357111104 10.774252478270098
Sb 10.859562118790889 10.001634609376962 8.377903635508384
Sb 10.224797440612491 3.745064845219775 9.673863540155981
Sb 5.948159065528821 8.917169646062034 10.79676754379642
Sb 6.203393308897897 2.7934766624134952 8.645416640037059
Sb 9.027894608482848 7.706036597744046 8.418232582185762
Sb 3.0562110889669554 5.761303421428725 8.650731994133034
Sb 12.783918442395297 3.459221105887138 11.0992418345983
Sb 8.694625260248644 5.901830305734673 11.197707788941036
Sb 8.591469462102156 12.253420795677428 11.39408095687675
Sb 5.692401397274758 5.420885789528912 9.762198923714886
Sb 8.201664133690702 1.8128380976172422 10.502093734389165
Sb 3.0698807487644317 8.938895783660612 11.152714159189685
Sb 13.453441526194123 7.6940443943307635 10.257108609916894
Sb 4.927454328973537 13.035902481483639 10.38714994944954
Sb 11.98629503356659 10.082834458293492 11.056469826261498
Sb 4.651435090248975 10.977327075655806 12.376246435872144
Sb 9.214070647487029 9.319305429495797 11.459811050518004
Sb 7.711550704224681 3.625616366459079 12.734882155876695
Sb 13.14346600214349 5.974096200817005 12.526162413859739
Sb 10.432885308525812 5.722139849222133 13.493640328933873
Sb 6.1316575931987956 7.483571164677702 13.327209847449959
Sb 5.0946662009464285 4.81426162608751 12.496750712062207
Sb 8.973068595505312 8.191963683497784 14.117198578697591
