54
Energy = -210.54805835 eV
Sb 8.752785070963101 7.322118312189643 3.482984440017477
Sb 7.326289971996297 12.02637543360073 3.3486135078593
Sb 9.76056579982663 13.022508377834125 4.628311640171319
Sb 4.984704544589826 12.807323596111866 5.000638777049292
Sb 9.621359285654236 6.243684923723024 6.022470513060373
Sb 12.507141045734304 7.065456248184177 5.9022903598102285
Sb 11.881405045440003 2.923552229684941 7.448144709547555
Sb 6.039353680214571 7.5294732385725665 4.533306157628098
Sb 9.444931713654775 3.2664224019907504 6.158209062621231
Sb 10.585589082303358 10.91944014266946 6.537545927614811
Sb 7.8514322113532105 9.692726778141523 4.95432958342837
Sb 6.105557100579957 15.05251861876257 6.4624984657401985
Sb 8.250990991359503 13.315535470327225 7.034802943390908
Sb 12.516159890759775 9.726661676220628 4.732563145129621
Sb 5.000657156336656 10.529347294691108 6.81361979496903
Sb 16.681052739232754 8.836795468206475 6.677008652585903
Sb 6.2270688532943925 11.526346540894904 9.233208966627961
Sb 11.378383185140466 5.215787005060454 8.950321609214047
Sb 7.699978873093129 3.093907776208475 8.517676888382468
Sb 7.047747421895157 7.291197966458769 7.280679563958159
Sb 15.322629496608485 11.530661036514555 9.943759635922707
Sb 10.018583857279898 14.99749903782178 8.48783667873335
Sb 5.9019609322803035 4.642549126902454 6.907093192602444
Sb 14.258351529745823 10.283581370246884 6.976424197817051
Sb 5.512058086310622 14.311567050732672 9.224493720274253
Sb 12.582682566506167 8.316187110438815 8.48573382151493
Sb 2.4309489171315044 10.353433034032888 8.250289623899336
Sb 17.063834869701903 9.269696359513299 9.330496272707714
Sb 3.91700490248491 7.9910530769634365 9.121372502793916
Sb 8.516736821294257 5.417013763552803 9.991388528749958
Sb 3.6442905352015202 11.476766271420415 10.648384226880323
Sb 14.703298830310713 7.188356956960768 10.214698665542672
Sb 12.161483009180667 13.052993125978924 7.901498928141868
Sb 3.7273071832403284 5.098278044337724 8.767697362695355
Sb 13.178606800293993 4.892532077276962 11.178497996250075
Sb 8.096242706688683 14.715320328996512 10.696367200115565
Sb 8.95790625489746 12.009353414054718 11.338758489892646
Sb 9.017727286661454 4.8759540555083305 12.82678604035014
Sb 12.345087571395204 11.327779258366062 10.314164132402071
Sb 4.345145236069772 9.424591198421876 12.62526155817808
Sb 15.543142119545715 11.09019798152963 12.798964000717879
Sb 6.537704505124072 8.101405443236127 11.186209330456823
Sb 13.291738311031864 12.966461517674063 12.606504321289428
Sb 11.16327193812738 6.700892155565894 12.201387266481223
Sb 2.6509203062224014 7.3045406635548815 11.598433254957836
Sb 13.635879786540588 9.011299521034408 12.240187682244905
Sb 5.006519243352097 5.552073203959795 11.323080108029785
Sb 9.414863502606073 13.51491064287951 13.793540611652963
Sb 7.184952506495326 11.609706457314282 13.638569293879133
Sb 7.179351448334651 6.984164155937393 13.781564185019059
Sb 10.723184267532961 9.721967834624229 13.570977383333052
Sb 12.521796110701017 7.655635406842255 14.567789041279582
Sb 11.692607301342596 12.088611910657377 14.867295949571307
Sb 8.314536966022242 9.341297277298585 15.100779456502272
