55
Energy = -215.31961825 eV
Sb 6.549455473218456 5.316587332373668 2.1467542801251867
Sb 5.7023285714129655 7.970797217736172 1.394172319452338
Sb 10.907795067118299 5.925504261206782 2.981486338051324
Sb 2.9623222235405797 7.6856391655501195 2.3215054520826186
Sb 10.188637008223814 8.730042997911688 3.295085020348601
Sb 8.826673382477448 5.2817444697922085 4.906268608558775
Sb 4.294075328316344 3.5024288802640937 2.0665041071946613
Sb 7.2387657421517675 8.585566877780034 3.805424131697307
Sb 5.6005188224888105 5.523808920713718 4.910918923303476
Sb 2.8516020133298854 5.260157965158724 3.8738713826928732
Sb 2.9114025548887446 9.628139266945492 4.468212957027365
Sb 8.44582170730104 2.6536924201080074 3.7873013652017065
Sb 10.611377570704402 7.985948931134656 6.084324005627614
Sb 7.132479692536457 11.478243169500988 3.735968707090596
Sb 5.7477524828415545 10.914365528470258 6.205470186812999
Sb 12.823363227163755 6.302509695223407 5.126740411079085
Sb 5.606261056941554 2.6317799276058453 4.589341275239688
Sb 12.49740082456296 9.819236140677994 7.450906555525921
Sb 9.775360987664376 3.028179938419691 6.39241663312065
Sb 15.207215338473858 7.294740788501106 5.072220448814165
Sb 8.704502231583858 10.91255341252152 6.0753576054415275
Sb 0.0880091969574461 9.960405333715263 4.546474837918732
Sb 11.697687537914524 12.459367022860107 8.477604032688037
Sb 12.507071731790044 3.4298302961461027 5.482874375645681
Sb 3.3487715529596898 8.014346542822294 6.803277785470946
Sb 0.9949601627534399 6.365710305655409 6.991636350341948
Sb 9.454382312479929 13.514438711623445 7.0001083018008305
Sb 11.04877257052583 4.03428336586744 9.492037719800972
Sb 14.910158362728863 8.095600206670197 7.865869047307324
Sb 7.382865213005899 12.840904050433569 8.888689500839282
Sb 8.948476314398482 2.184180574777195 10.131909870234693
Sb 15.968125198905813 10.731759066038514 7.326740628496314
Sb 5.04763156110997 13.49575301143049 7.306364726182797
Sb 13.040643604950525 2.432531617531117 8.141989972162495
Sb 7.0522349065185646 3.8468157458451313 8.716146263404667
Sb 11.771521335964255 7.78349235951043 9.395185034744339
Sb 8.131171885329449 6.512668812575902 9.144516943237363
Sb 6.267530222579081 10.25269586608148 9.991801176434787
Sb 9.255759897287598 9.610079329701685 10.552097485026046
Sb 10.602611406762348 12.067866930080068 11.148900404425174
Sb 14.490748559646173 6.755883108370274 8.820556194099423
Sb 2.191243637869832 9.784281302764118 8.7314310153662
Sb 5.710354649448351 4.041109783419328 11.30582725328268
Sb 8.242411796505165 13.748727237478658 11.510964238406173
Sb 5.704682930849965 6.981130562137179 10.735792266933215
Sb 14.910158362728863 4.055442875183789 9.680656190501281
Sb 8.267623508800595 3.611117624795737 12.571697196783411
Sb 3.7996343718041143 12.063842882642001 9.473376608306316
Sb 13.904525516159474 8.046684552843455 11.329879520323338
Sb 9.377756996139656 6.1980914836086365 11.822368109010208
Sb 8.500052433647825 9.756793034404936 13.297862997423694
Sb 6.42740622336225 11.665363248162423 12.505130566399375
Sb 12.89638585105974 3.60648045371165 11.705238127237005
Sb 7.050454436681171 7.267184295161342 13.279767654781653
Sb 12.46905178010785 6.142957283828523 12.92446307596731
