53
Energy = -205.46693412 eV
Sb 6.239597804171343 15.303601308250503 5.2544728217757015
Sb 4.073626623855686 14.761217801676116 3.619204151603342
Sb 3.850839462474353 14.196585933121497 6.41708872686394
Sb 6.598399818284768 3.007250768479161 3.284327759209417
Sb 8.679951352038968 2.579777898160932 6.994829880838358
Sb 6.325061058048523 1.751212003777198 9.714470455360948
Sb 8.880072882432733 3.176916996965015 9.74927150043309
Sb 5.434119807135386 1.9262587008277892 6.83710675105078
Sb 10.558075052927597 5.734194116534645 7.051291119504279
Sb 7.684953135962737 2.351385147022912 0.5990024907338664
Sb 10.301022852032812 2.447056962830554 1.7796917768226925
Sb 3.0475212421847373 1.8714356578605595 4.3015964515627765
Sb 1.9431944787763817 0.5270593142985418 6.605392609800814
Sb 11.908434925052033 6.466861012445116 9.509712518712375
Sb 9.253943744953094 4.751026888523439 0.44416320611263826
Sb 9.035308231446066 4.584659456521883 3.3337674724438155
Sb 12.29992630431873 7.348971802856062 5.387996909922257
Sb 3.5509704735336056 2.2229573527498268 10.891768722627212
Sb 13.513871409088342 5.601436567043349 7.297150060997697
Sb 6.67766191327571 4.508988546774591 6.259803222958121
Sb 5.443118149394542 4.553976641805082 9.054732253128293
Sb 4.3306350821573885 4.7091387156182005 2.607090106171985
Sb 7.709044069663582 5.94133613874998 10.230710026533723
Sb 7.92762921344572 7.68652260148311 7.875958575831019
Sb 0.3246868414489298 5.369711114565124 2.489822952219969
Sb 0.7933251514576711 3.7438782287192374 4.877943454272527
Sb 3.1088721645336403 5.126896873027438 11.012799991594806
Sb 3.4306170018969717 4.776205653924158 5.408013931827191
Sb 11.901407957347784 9.33985850978139 9.437774657068445
Sb 6.154201439271531 6.814509516248012 1.7530086436196373
Sb 7.444567180568203 7.839069317080931 4.108341130950776
Sb 2.6765033896539188 2.8458479357081337 8.222808364060835
Sb 5.1384944402588815 6.801418152238315 12.029643139458164
Sb 9.070545422525079 9.301781719371915 10.033544794648147
Sb 12.426168679533397 9.908136983963022 6.656406549449078
Sb 4.578956667548543 7.4430736032979326 8.033706359478149
Sb 8.431052815791857 9.536182048292067 1.9905594103993656
Sb 14.7387250003252 7.594402729044465 3.622511129959986
Sb 9.628878464121781 10.411130767647604 6.109494505635711
Sb 1.8274235316069327 7.527000459086097 9.099526616947575
Sb 1.6572021616778336 7.858885833104007 3.072792401386148
Sb 0.8036468993777537 7.296730881170139 5.7790133859145705
Sb 9.295313664700522 11.818234805997886 3.6051267355044745
Sb 3.8938904609916922 9.157949377408736 5.797943620559818
Sb 8.705460157082914 12.16315584834296 9.824355246762183
Sb 3.986338640550847 8.951534735199088 10.446883507352062
Sb 5.606866809872619 9.535095370768389 2.628588492709909
Sb 1.4391189833663565 9.78551833247334 7.216997757790963
Sb 6.652927180108052 12.523677498209087 4.525515786447659
Sb 6.062287946573646 12.441601312749034 8.665953255264762
Sb 10.030448922840673 12.952193735529633 7.36776539928584
Sb 6.368546059574342 10.46055036906188 6.5901141779782355
Sb 7.45876806936051 14.196585933121497 6.77758833615135
