52
Energy = -201.7318525 eV
Sb 13.709813769635323 9.984889005857319 7.751065225686783
Sb 8.551554657866069 1.0758803498917928 12.212921003904324
Sb 11.277479382058806 9.77036408111587 9.461927838872198
Sb 9.231190515160762 3.763526790251139 11.250830605448307
Sb 9.299934986003555 8.07020014810169 10.83086235592072
Sb 11.335904491785222 6.777960399951717 7.495064760881425
Sb 9.61593997868905 2.771727038487006 8.647501627588944
Sb 5.730639062165814 0.28204128296311404 12.20683472888766
Sb 6.241531664602237 4.022051579800831 11.608375074293079
Sb 5.66007260904697 6.530278776103964 10.252010776878299
Sb 13.109067327823592 12.712114314931814 8.110111440765248
Sb 9.241858985005843 4.9191688414720325 6.737331281940564
Sb 8.096577590016963 10.626410145981394 10.878485109555365
Sb 8.916173082445644 2.600007512981938 4.032254317194427
Sb 11.96726166379167 9.094069172666211 5.551630549246132
Sb 9.693497147689747 10.247192354547689 6.890391586574147
Sb 10.890813704512716 11.311880918044501 3.5891461297397598
Sb 6.564282682406305 2.7736884011515412 8.914798279070277
Sb 7.307729534121972 0.09413912867486272 9.808937739189943
Sb 10.636786372777529 12.561289679200264 9.947379342512399
Sb 8.580233829109195 7.432353322696607 8.063793638505416
Sb 3.817185732053531 2.2775009399236876 11.301933809750553
Sb 8.718032259671508 7.59604922362473 4.210137456760553
Sb 10.122749237783967 8.967835870782114 2.061820276955933
Sb 6.666779733155883 1.039645334962638 3.1421273396009677
Sb 7.459006969980854 0.8819818598823975 5.902465768224823
Sb 10.441539789989818 13.051532836148311 7.100679378570364
Sb 5.950356427473564 3.163284085558164 4.941516356067797
Sb 3.8628423108424452 1.5077467444628343 8.602327487621798
Sb 8.667809235062078 5.319495001175333 2.3956306398675644
Sb 7.976396543953165 6.435905986103875 12.693328006407134
Sb 4.601443401257766 5.873864582402171 7.6198186994980714
Sb 5.013378405788926 7.43148759889511 4.743153255474698
Sb 5.632483675065788 5.054181197995532 2.1896126527117974
Sb 7.348009320862818 9.576442237321336 2.6349677675740284
Sb 3.0633355786266585 7.369016161556112 11.209591655794718
Sb 5.97506353778848 10.111072486986124 8.967229090777249
Sb 8.258950177374246 11.650884273143282 4.487886824884525
Sb 4.637972751333212 9.782254544775046 11.505460601097706
Sb 2.981868612211223 2.637487436947082 4.978930621386766
Sb 2.674284067779522 4.5785185379837605 2.9641727016878883
Sb 5.118098120824313 12.882151912586528 9.219299674093028
Sb 5.778246680900562 4.647124742306407 12.260830831607093
Sb 2.4039099396242887 12.394990221797086 8.404882766590076
Sb 2.182767646801631 6.889320298751721 4.65539814134983
Sb 2.4851666462840556 3.8604645659428716 7.575443762877971
Sb 5.310920148878289 7.291872818666256 0.3964405819361658
Sb 3.3344252361594595 9.022142919368665 3.0124094523970806
Sb 2.201580359150044 7.324525912797938 8.43089843259518
Sb 4.422672033623699 10.151024716847648 5.495134005079255
Sb 2.034431608270694 9.87258786812107 7.06461174329016
Sb 3.07704193925367 12.196859895696884 11.173866379723158
