55
Energy = -213.46379134 eV
Sb 8.267444489242727 12.667416394628157 0.6633036493438312
Sb 8.789903577594403 15.388658586290479 1.4871269206448563
Sb 5.035666253764171 7.221252469443289 2.5130580446136497
Sb 5.4214841814936054 10.098597248919594 2.664705686203066
Sb 11.290038542099971 14.547835546093564 2.7067483153373977
Sb 10.744058947664438 11.792988222596406 1.9688082388423327
Sb 7.483162737398425 5.797886820330745 3.4574844302389276
Sb 4.813281491605734 2.240698241122683 5.875471689959181
Sb 3.916965747595234 11.743946191256848 4.407428276507399
Sb 3.882602873465617 5.992073554672921 4.8920409691953815
Sb 6.618525876203075 0.0482069342512911 6.44150042305678
Sb 7.8131453401211735 1.9908766823615323 4.663027409953018
Sb 9.921798058001666 7.49186317921733 3.45865473768762
Sb 6.680592778936763 13.862808487465387 2.7107127661145918
Sb 11.909479910940423 5.345018939343263 4.099666456930594
Sb 7.813146895248585 10.030175816660195 4.254174455754238
Sb 6.921760632006834 8.935643876388106 6.770058231045617
Sb 2.197033262591533 8.033691695873733 6.000244253144835
Sb 10.519614671528732 12.638780035194426 4.687533238962812
Sb 9.778149203450862 4.744238073301871 5.8952173980483575
Sb 7.203748611694386 2.6937723921633627 7.398120381343684
Sb 4.175849626663804 10.031247618458023 6.600234600736055
Sb 6.5143846776519965 6.129678816442026 6.166894005018299
Sb 12.837860750239678 7.2490450969483735 6.2567314737111674
Sb 2.8787372311993598 2.3192247149879046 8.187471281317299
Sb 10.772535293291025 10.70287841487725 7.704668698009037
Sb 7.669922019435217 12.788183417734812 5.159222660373117
Sb 13.531351967510494 10.008836342736602 7.38974868435111
Sb 9.982830507140752 7.699136980006331 6.360678805507655
Sb 8.97532876883502 14.10243026663402 9.452658090387745
Sb 4.950601566715663 3.3415798221522945 9.822220620329311
Sb 11.46000403472611 12.882709404935085 9.665175086668528
Sb 8.364248819444066 7.171872157648925 9.517959853102266
Sb 3.211997227398972 16.34240447918748 9.309532993643833
Sb 1.8450267429409901 6.734411490241184 8.560193665959227
Sb 7.515585300727798 11.790967806061197 8.642129763299383
Sb 13.30004662130012 5.2661403767903465 8.309728020158994
Sb 3.0500125677029044 11.22722133366136 8.970200575335049
Sb 5.928001598039912 16.021363783736945 10.228107124129423
Sb 13.680077157630897 9.492405191667897 10.224317988864042
Sb 10.953920293074336 3.603332832388436 8.325666624935963
Sb 5.271354482785715 12.507550981975383 10.29761809730368
Sb 4.617977373217812 6.14900434608781 9.111656489486315
Sb 10.852816668336564 10.176449552501577 10.55414308953565
Sb 2.167823793536204 8.923564904166968 10.457608285771247
Sb 9.126387637122287 4.483935385377181 10.40635637211936
Sb 13.089016843652058 6.691604706207876 10.756471397038203
Sb 6.283234310792099 1.0599464038212443 12.536296441762408
Sb 7.452961622325868 10.920309836334626 11.429595851787012
Sb 2.2956221621577924 0.3907103721063059 11.93226058824487
Sb 10.329794811931611 6.794014719162338 11.630334498473887
Sb 4.587327125044604 15.388658586290479 12.74222297701092
Sb 4.188229276307333 7.243527212958914 11.70627614179228
Sb 3.938832045368258 2.723605381747833 12.463816586106535
Sb 6.980419306118799 8.092669272842855 11.908440907816471
