52
Energy = -203.30905692 eV
Sb 5.299278747915569 7.423237368188494 0.7695513878377358
Sb 4.686822282684203 9.864694612867087 13.432353352051056
Sb 8.308101863450736 10.201493490201571 1.3254311119824846
Sb 2.316860521306049 9.033668739974809 0.7035346971588715
Sb 7.739305663152296 3.2020884170089308 1.8121320750718295
Sb 3.623235787493025 2.981764597970543 1.5628637217964145
Sb 8.237087304932404 7.3176433395381535 1.3665816121792806
Sb 7.46897489545903 1.6770631121043904 4.282425577259779
Sb 9.50692612849732 3.7120683310257734 4.026566568925978
Sb 8.887843800063694 10.027526527929986 4.160614899837156
Sb 7.000009141767036 12.06718590185706 5.0332171407803346
Sb 2.778619457290809 6.4554010652960585 13.733510546282915
Sb 5.567793942900744 11.110473542174198 1.7210082688186765
Sb 5.536784593391338 4.807350527030318 2.7339616591820204
Sb 4.29682005280791 8.854600264006368 3.0805813863703215
Sb 11.05392010465517 6.513908098474943 5.888622020693472
Sb 5.412718795119737 3.4388224380200487 5.349884910004189
Sb 7.222137004263002 7.6674852475366 3.9997439926292655
Sb 3.405041181761728 1.6728532097727518 4.216922134348508
Sb 1.3981910517825584 4.866926477915259 1.5383567388854291
Sb 12.666388262207168 1.9441783447882592 6.073642762997785
Sb 8.2847349321885 5.624618025374441 5.839269358401209
Sb 12.274866060978175 4.453848764013774 7.572084556414187
Sb 11.033652707662945 8.374477763153056 8.131339271689162
Sb 1.8380904349994722 8.963340258235574 6.24182265035175
Sb 8.61119093464752 12.04782842898468 7.45516828817208
Sb 8.325933011024745 9.144725830354977 7.599657863386698
Sb 2.3973948983283058 5.754192211087192 4.075764222332152
Sb 4.23485178528812 0.31145056839131097 7.495912429442733
Sb 6.1462955229357 12.00887908994721 9.043025906605171
Sb 1.1231226010602915 3.325269597272074 4.842472993372784
Sb 0.12780685448845516 6.7723342770343296 5.5448208816598585
Sb 12.306057685525065 0.7344914298520134 8.672622498866223
Sb 4.8269728714187625 11.085758996421152 6.655043949550075
Sb 0.6556909004341699 9.400419031288951 8.786316022908325
Sb 6.49400424677501 1.986782220769842 8.299956887053101
Sb 10.350658815491975 6.16714016047732 9.872695023490762
Sb 4.389066365393528 7.990217899389643 7.311081712029254
Sb 7.576210711532663 5.568258447983796 9.523553647930123
Sb 4.057550089766265 2.0101821965756606 9.792394041730256
Sb 10.155632070556939 0.7607185556422211 6.787620925545071
Sb 10.26541563459115 2.8400314173212418 8.835573307216825
Sb 7.81473449367494 9.9250588762469 10.303729021292753
Sb 0.7456740590149735 4.6491787380516545 7.448386472345319
Sb 6.143203493250754 7.692082456567505 10.921855235624705
Sb 3.1871435278022906 5.500989417611902 8.629525875859326
Sb 5.76662746955154 13.81849674878614 9.812017436056198
Sb 3.442703934971082 9.409812106224047 9.69219164907813
Sb 8.067344716234636 4.518579569979069 12.25796177103739
Sb 10.140531503589692 6.4782449276198975 12.738686154436648
Sb 1.6811350551568471 7.19416938001303 10.366343150968625
Sb 7.437171519056473 7.081986033214686 13.432353352051058
