52
Energy = -202.12206409 eV
Sb 9.641173227266677 11.715414603786579 5.645611109106996
Sb 6.3893295258342295 11.987459772863541 3.0383013581497615
Sb 7.659181042034502 13.765301906640376 4.96473102675244
Sb 8.76521112352376 10.321840815546468 3.1905678856077886
Sb 9.811780256720693 10.123583737485943 8.799255060767065
Sb 12.539695154595094 8.563303389492395 6.979123536891356
Sb 7.6598585149804865 11.977526056941759 9.381591963518764
Sb 9.648361106346014 8.8422712086994 11.455813186740034
Sb 7.989207919456885 9.33727366747563 5.747833579165503
Sb 12.350271522842126 6.5946637086661335 3.632276915049957
Sb 13.466798845408524 5.918042789631256 6.106451267081475
Sb 11.072567962682422 6.438460692242502 8.294384154498196
Sb 7.365635639913799 10.600626215113333 11.926819275056843
Sb 6.746194536426836 8.20015349320404 1.5283591051207719
Sb 5.12978754760931 12.59990189294507 5.568026393685337
Sb 8.899288505875308 6.27104945209832 1.1587528521073276
Sb 8.4277883643229 7.629830599609568 9.17179398035931
Sb 10.25322186665575 7.408744043959904 5.62629083724967
Sb 6.0337111350074535 6.767681528734181 12.687088201341545
Sb 5.1732826067356426 11.217374068814266 8.120299966798047
Sb 12.762795310325545 2.1441231542276054 4.2507358467636855
Sb 4.145857046206955 8.763604188943987 13.610361279432047
Sb 8.607423551630621 4.060726798681274 9.742410348694593
Sb 11.371963161155653 2.9807213289019043 6.632952468802113
Sb 11.498893456905622 4.1048645341228145 2.463889799732754
Sb 4.952443548650366 5.179167159115296 8.67372002959319
Sb 7.343215968917795 6.289908167143888 3.6197758308086674
Sb 9.487275718708029 3.5707559970738494 4.530085322954352
Sb 7.234613041793863 4.028673701286376 1.7730080844831633
Sb 10.29972997454973 0.8236915085330232 4.96998345518705
Sb 3.2592257470794515 8.873816426321259 4.992468513771861
Sb 3.8109978860076064 4.946534398506312 12.101967141284083
Sb 5.240985645565918 8.876491455490905 10.946406124058816
Sb 4.99471849468165 8.430825617342707 7.317544266615261
Sb 1.9414747449748735 6.893172227050108 13.186207179483153
Sb 4.2051521296482 7.083195605065427 0.7096940786815088
Sb 8.374656073327413 1.1894056532031925 9.303322802123859
Sb 7.349521825032455 4.441717208394545 7.152028459809161
Sb 1.8880295028444678 6.258785364805201 10.38307176914833
Sb 2.532199605023659 8.657522470293554 8.895233390826453
Sb 6.601040988444111 2.5307909197124987 11.189546967752701
Sb 4.820762305272708 4.398256919329765 0.27932390636661625
Sb 3.6229906709499167 3.0150891912825752 2.643545562755827
Sb 6.473017925403164 1.6674297964556926 7.146724104780348
Sb 3.7330060468795696 6.175248527705499 3.5454705859228177
Sb 1.251265316992067 7.5066862172658535 6.53325781644417
Sb 3.145535106115118 5.242412222165404 6.386233661372799
Sb 4.515406198182519 2.363861960757803 9.202250482449085
Sb 0.8689809834010804 6.188222815924145 3.158828388840201
Sb 2.499782244021053 2.6769998686678895 5.462689722017731
Sb 1.0313302685671804 3.708922716980409 1.651081134641667
Sb 0.05139184282220894 3.69895707555644 4.381281900575798
