5
Energy = -17.09660366 eV
Sb 5.132350508558843 7.936778182877586 3.7388687151239326
Sb 5.5233973739422195 7.2850738665574495 6.5964016702381505
Sb 6.567272750875886 4.603476665318834 6.4696287912984145
Sb 6.9277298962664196 5.873581883495766 8.999538390653202
Sb 8.352857457758436 6.804697389152163 6.699170420087847
