5
Energy = -16.17842502 eV
Sb 6.46578345761064 7.7612575594063555 5.643817074912912
Sb 4.743647029800245 6.761110659124215 7.535279305971581
Sb 8.766171697535489 3.612095004403433 7.354055475447373
Sb 4.056003224685771 9.189655475151374 6.578370938754927
Sb 8.464953158473149 5.172439870019911 5.385035773018501
