50
Energy = -172.82314715 eV
Sb 8.831772071250082 9.417832809480307 3.4482087777112085
Sb 9.681704968487146 6.972298470535271 2.148322548173453
Sb 10.534923918016895 10.900086106337294 5.542937996487804
Sb 11.544562823842542 8.033428115509864 4.213887976339177
Sb 12.616218664073497 9.14118537212324 6.772025582356397
Sb 6.742847652502671 7.590895351104188 2.0962504870669663
Sb 7.891289006332356 4.710010727496079 2.895194068382587
Sb 7.334364981981437 6.7803334083064355 4.9380453794998
Sb 10.58663148515583 5.089165052433325 4.233557854217024
Sb 7.945031557781707 11.978293020188493 4.572645813138484
Sb 11.370336646956952 3.2639488369504375 6.487046713880722
Sb 10.763954632581287 10.638682403351961 8.606976369028091
Sb 12.247726938323014 6.143636644056207 6.573131688380563
Sb 11.466908097474837 7.709447796336521 9.05941895477893
Sb 4.960957869325053 5.563003955091755 3.474570238976235
Sb 3.840953089964128 8.27117239302836 2.870752331141184
Sb 5.904999509741162 9.980016136525736 3.846360372924874
Sb 9.068509696727267 5.443099574833327 6.976776605599798
Sb 9.553571041126835 8.250833499052742 6.371064342563074
Sb 5.933880674659589 2.8901221094473173 4.204622563983544
Sb 8.687732149640928 2.8957936746470225 5.239180004347271
Sb 5.60527888789041 11.573597703541543 6.334037561868546
Sb 5.592614951632247 8.471809198194777 6.56624531522933
Sb 8.983611377607643 2.6668273386726375 8.300862106903294
Sb 8.358952310964709 12.148775495540336 7.480929898380924
Sb 7.8017523223578085 9.350230289310597 8.418664012871204
Sb 3.8031111285539954 4.15170760572175 5.891747649722363
Sb 11.14727747154152 4.706271142131552 9.093588831251274
Sb 3.1065150173134914 10.079030764944907 5.282797192351337
Sb 6.207938282728416 2.5814274893089237 7.110577441693423
Sb 8.218034691499643 6.588941638249747 9.509460408893954
Sb 5.947112150384631 11.718172078352085 9.377295611229675
Sb 3.0727070093169453 7.029633132512394 5.385099393779151
Sb 8.730631170075663 11.872004986199304 10.42695452883697
Sb 6.041681304035471 5.5043766951597215 7.343174945234947
Sb 3.2964028670138417 11.370780962484934 8.063542035387064
Sb 9.71190000739019 9.174918200996055 11.069031830105095
Sb 2.6623697379461175 8.542474855096904 7.979458703533796
Sb 10.67781016048589 6.386792242083471 11.575041332485155
Sb 5.5389864595156135 7.763718315435625 9.42322156917339
Sb 8.742886944416846 4.176589108810679 11.029219568383064
Sb 2.0503304008786696 5.671848692594284 7.774973639231092
Sb 4.15011721402249 4.039048024615816 9.033792560270797
Sb 6.534043551634785 2.5509259018921466 10.005468661121729
Sb 6.828402208538987 9.87960389734621 11.633856018256962
Sb 3.837218288911216 9.821204003445937 10.576810004686799
Sb 7.895917641892461 7.092383320345756 12.407627218995374
Sb 3.084159920908048 6.6198483925596845 10.387094883023705
Sb 5.763804493410856 5.015572136583286 11.420556068359765
Sb 4.995534463821332 7.6841808436663 12.423874252395562
