51
Energy = -198.97872884 eV
Sb 5.052856413093364 10.246726574430177 6.227062614669808
Sb 3.4273224895736805 10.22753768989925 3.8195305307510283
Sb 2.3749373953711617 7.558119895771488 3.853528796887316
Sb 4.976560820519239 9.305197498417463 1.550882935416167
Sb 2.474056990622405 7.942693485929511 0.9559277146692218
Sb 2.421395724914178 3.9980418519361223 11.837129271783466
Sb 12.573264859492587 9.652062116451237 6.840141896930099
Sb 4.974482287054911 6.461231054313708 1.024300201746516
Sb 1.7896272730588185 4.180230954136992 1.917436566687611
Sb 0.9443838784512275 1.5241132398594261 12.025047302978997
Sb 12.35470989198357 4.029274380045766 12.402414251994971
Sb 12.310358965856611 8.208746951160824 4.375879787241197
Sb 5.564291013164942 7.444954851472799 6.020523854259546
Sb 6.179949554301099 6.812861793781262 8.779991906017196
Sb 3.8387598541076082 5.14508688864588 8.730565433381527
Sb 4.733425989763513 8.532372451384035 10.655002160408213
Sb 1.515046170417885 3.2543565222303963 6.029777727971131
Sb 1.952483061826185 7.692984235606978 7.264562642768222
Sb 11.808161711010708 2.3976030592804225 4.772876193578765
Sb 0.41496835282798744 0.6479870448814358 6.596878131511337
Sb 11.861148245368057 3.008514226657043 7.590041989635284
Sb 11.961317305269937 6.85164252952021 6.901405151378883
Sb 1.9182883930064287 8.261910013337388 10.12964948629749
Sb 1.378910411728526 1.3115838162549829 2.160492692688358
Sb 4.088225119384075 0.3089388167723923 2.0930591089477657
Sb 4.706428236909754 1.3109425864441804 4.751096048519123
Sb 4.531857701510394 4.571185418106132 3.200711588451816
Sb 5.224046472110477 2.769370561262456 7.84584039899622
Sb 3.2418073374065597 0.8555481614407103 8.758471423237038
Sb 4.187141329592692 11.882345542724805 6.630068688939864
Sb 7.223837807389719 1.4010604588631699 9.428862132284532
Sb 3.345261192932557 6.118355795738977 11.434611589081102
Sb 8.052858576062079 4.368607725805243 3.9324271071132273
Sb 9.659766736724364 7.910114360907144 8.892867797988561
Sb 5.270004901938396 12.260295535169886 10.41872366331356
Sb 6.7648766077466105 11.676080459100497 7.994594485859269
Sb 7.3949508330419285 0.34297100484053933 4.406153893052814
Sb 9.03386464874819 6.07775411613125 6.742224493827289
Sb 11.690539167142726 5.025213275222694 6.525100289044033
Sb 11.531525782882634 9.222586855209915 7.102484786295206
Sb 8.401495814412295 2.479566403695851 6.110618515011759
Sb 8.009580352441013 2.0781058774935666 2.133677495360781
Sb 10.687265564902573 3.2203557376248555 4.480989540202191
Sb 8.375058256319413 4.885760908238299 12.33156537078312
Sb 8.92888584583951 7.543910415076024 11.434611589081102
Sb 8.930529827152384 6.96170053768982 1.5044768107344773
Sb 8.851033831249016 10.269552897808147 7.4539385374937766
Sb 10.948911703772124 7.337017913775221 4.97180480052726
Sb 11.018540410404698 5.953490770625355 12.575222556517597
Sb 5.35097140141998 2.7051222518837137 1.1101228948499229
Sb 7.536626526920422 9.33079110338185 5.061224108400853
