51
Energy = -185.90010978 eV
Sb 10.533061964537334 1.6805990194984035 8.493262665867055
Sb 10.530550800137304 2.7242311120027987 5.6090466014187
Sb 9.008553865632619 4.218670784048512 2.9353427855913075
Sb 7.063268844702105 2.1899172361766186 4.813187291792572
Sb 8.04237038257262 0.4543556837233751 7.2353050403167725
Sb 5.892728919975283 3.9565390385972905 2.2880824749799915
Sb 3.8670008410883545 2.8547795196583965 4.256416830007006
Sb 4.852101139808345 2.1857803824650013 7.276869089028942
Sb 8.10274491036541 5.61870915079277 0.21907775993376455
Sb 2.300644353126259 4.050784086297138 7.444756076463072
Sb 10.894011328667391 6.70203547549494 2.251064285838625
Sb 3.5048544579896754 6.006065201378012 3.0334427049543686
Sb 9.390870102482234 3.842716088118299 10.478562712994659
Sb 11.333717306268369 4.725396721062771 8.230653802327417
Sb 11.640391067330262 5.570041680675359 4.8490673510482125
Sb 9.050672787974335 6.469814240097119 6.025703712277842
Sb 6.586431967651531 1.9350358880619722 9.957408682817789
Sb 1.0982450646304005 4.491656201922864 4.584128258628
Sb 8.010902703391569 3.4298037680523756 7.567659600066728
Sb 5.479139759917327 5.192197254905859 5.164295655648444
Sb 3.7140031174770898 3.1380662588146384 10.332839441750776
Sb 5.614714045063138 7.15775759189348 0.8446902807281542
Sb 5.158698179402695 5.155201215398629 8.702147324616337
Sb 8.684779708899901 8.373183589244006 0.744816959875307
Sb 7.4977483214616205 6.890000518166151 3.081578716561912
Sb 2.7247602004230096 6.889552950671632 6.249743154092146
Sb 5.994606844916604 4.358569532625872 11.684777799201282
Sb 8.186391149385349 6.651230340404485 9.417387474230898
Sb 7.088730672509434 10.141463339279928 3.018512366605211
Sb 11.524577415744576 7.831349980734311 6.909452541539219
Sb 6.0034612199967965 8.415751806950947 5.556631834300721
Sb 10.948117326670829 6.833004064444044 10.334318616105174
Sb 4.75412370433748 8.594828276940627 8.348365884058413
Sb 1.2058226669770875 8.791157511318806 8.429722735734801
Sb 2.230762709868649 6.39083170595581 9.691573381961488
Sb 8.708529628774325 6.562626751663258 12.279772197132063
Sb 4.066218345213204 9.12786653771107 3.2405948993221196
Sb 10.171898978847103 8.907937295511196 4.1854142871341455
Sb 5.518095537929998 7.463598016869275 11.333350519389713
Sb 8.248115683853724 9.397379657818911 7.56317671345607
Sb 2.7602678505014366 10.408249415731426 6.001035072334844
Sb 8.365421539033632 9.376086037392135 11.08284472866115
Sb 4.809946780691255 11.80232691029544 4.455885158625831
Sb 10.947859776751002 11.018808615745032 6.311611414992542
Sb 10.862930409209968 9.979749927211762 9.334342628967013
Sb 2.723633684486385 11.273844849242058 8.969562710574031
Sb 5.5840281082937855 11.548977350064721 7.519322833510438
Sb 2.831316440376166 9.173435873958596 11.09959097667452
Sb 5.85036156215427 10.758582277678592 10.728899326687783
Sb 8.178817899442514 11.574675507613488 5.438411498585094
Sb 8.365981052511549 11.879756951506414 9.07571064352986
