55
Energy = -214.24666764 eV
Sb 10.157423249823752 9.01925665466904 4.009599128465003
Sb 12.071939634136038 10.767418531595291 2.599123328438943
Sb 4.830375881874171 8.614108931170223 3.5987317489706387
Sb 7.371711339506254 7.407623905524994 4.43600524823659
Sb 11.381634668485274 6.417053032243862 3.9086863936913487
Sb 6.3945854745139705 10.88820926061604 4.653624561234698
Sb 10.541244760536665 12.94739380728512 3.7180766581526714
Sb 14.446626499467397 10.491132941879066 4.162953981880051
Sb 11.671720111957676 9.053954432799346 6.578477852971975
Sb 13.828782066293224 7.65541552447113 5.225886033143763
Sb 7.384075208301878 4.726258103650471 5.500234231119584
Sb 4.9615491203094395 12.778726908944117 6.350420599240689
Sb 3.9769252639879302 8.650670595868313 6.358218651379958
Sb 6.84510822328324 9.027202497376402 6.850757096945134
Sb 11.751206850162681 13.716863837603528 6.1732094851804105
Sb 10.183989972804007 5.136827645740747 6.230303097858515
Sb 14.201102098323439 12.219582105777498 6.352363895223445
Sb 7.618316429271612 13.561711642376677 7.358658791185142
Sb 3.275897593798376 11.373356895041802 8.275968692066094
Sb 3.787772913303257 5.9655277799969815 7.376149500777217
Sb 7.2285261621349335 7.144454258755246 11.02323169343717
Sb 6.568729977662018 5.814083088108987 8.129478413668076
Sb 15.267837910167477 6.819078115018301 7.696745307116944
Sb 9.776376147987232 7.409289065362842 8.001176763756918
Sb 12.997339767480904 10.671867624871398 8.665440883474501
Sb 9.602116062407893 11.725146527851413 6.218404075216647
Sb 10.070866285133212 3.68387106937555 9.748428236673197
Sb 11.707413497927025 6.197437921987942 9.805196329347242
Sb 4.797899107047885 9.509114075528936 9.941375039125889
Sb 14.13405949593786 8.339070964501294 9.831804232762707
Sb 13.461011769750302 4.605866069662143 8.16268468378886
Sb 7.725245744327191 11.875929655999931 9.722849163919326
Sb 11.417991779542499 13.308686026963347 11.099401161655704
Sb 5.842059990988038 3.67568174332471 9.949484168092832
Sb 2.942600866251025 7.254733287418719 9.810100866895045
Sb 11.93818235142422 2.7502798538001345 11.768435623447274
Sb 8.073608316686673 4.40947043409962 11.684432339968692
Sb 10.288615307231069 6.9630983099970845 12.670599221714996
Sb 2.6886159119516218 13.13049751122381 10.565738150683439
Sb 4.713545941222853 5.7875281775595235 11.596038057054933
Sb 8.710259810044457 14.378237762887219 10.88220490971288
Sb 10.436230881085036 10.720125245440071 10.287320704576159
Sb 12.76346241196079 8.550675980431368 12.901707955650865
Sb 14.36622015050123 4.091768997800011 10.899894582342847
Sb 5.353828488960943 14.114867674954988 11.18381611851196
Sb 3.2344263349237488 10.735201275624446 12.11327363173643
Sb 11.795465860933325 12.277379873300363 13.783911537413308
Sb 11.639042785080827 4.701111932988195 13.926186778614621
Sb 10.83856957855186 8.405009700884378 15.119953955917392
Sb 8.213806648197425 14.799632863801339 13.713575410473418
Sb 14.152700614353593 5.97356186874845 13.18278433509734
Sb 9.511335831344029 10.509165454035541 13.604297136466414
Sb 5.875488359884842 11.78078951710223 12.81184740225299
Sb 5.362721091638518 14.299371173629247 14.06695394323298
Sb 9.47839548729263 12.82620595048536 15.370362298192937
