55
Energy = -213.65612547 eV
Sb 7.070465228356414 10.079901899841374 1.7872213864033657
Sb 8.778871022211897 7.877513114101171 3.1816610514456007
Sb 12.258287160850312 10.444655049297069 3.7583383914576483
Sb 8.1985423539651 11.719615347642623 3.6650280539699245
Sb 12.276532502200528 7.6453902177269395 4.489972898536807
Sb 8.929272384476091 5.184320487111054 4.5453652688871236
Sb 6.253535523463527 5.52801423368584 5.594001895031527
Sb 5.970453067160063 8.056276715745488 3.946374105607131
Sb 5.662662750961344 12.068093523754985 5.044939288893449
Sb 10.000377269423133 9.469805840986877 5.29303836077724
Sb 14.518646365936101 8.041933755558883 6.248959684058318
Sb 12.634860788330078 11.794464879405316 6.311361920851452
Sb 11.876681245714147 5.378725836507882 7.031094920114193
Sb 6.341136473671686 9.596374143078933 6.353617966490724
Sb 8.075798347081015 11.978348874183975 8.935770969815461
Sb 14.694506037650326 5.4534889171578875 7.59562697612497
Sb 3.5841525572530224 9.232668747326278 7.172116242566479
Sb 15.294834711979384 11.487647421925871 7.400765643182689
Sb 8.527027778948723 6.534623209835453 7.045291533674383
Sb 6.656402682280866 13.807956165443551 7.123028158636638
Sb 8.33369240930733 3.765540242942925 7.868894370629023
Sb 4.318256019815818 13.782833166565952 8.713836245891267
Sb 9.934306825724743 14.20026382974601 9.193503940508121
Sb 13.162311728305546 9.707423051571439 8.219121681948998
Sb 11.056403107682808 2.9386662132391 8.411037082971838
Sb 8.446623526321291 15.237347262453001 11.277178704966738
Sb 3.472230401613209 6.715842585155226 8.630177473580401
Sb 4.4965398936712555 10.964262355953025 9.313591989521845
Sb 12.820723833893704 6.481203782352643 9.550059194278203
Sb 7.070267042771666 8.952764807567915 10.047695397450688
Sb 9.793101444326018 8.09733020329403 10.331957681444143
Sb 14.529851307922979 13.781011462722132 9.0094108152586
Sb 6.4629041694281755 13.121978872162428 11.045658843448491
Sb 15.816326862754973 13.835450271114054 11.615478471021074
Sb 12.243366415091609 12.642999116678045 10.389282384183891
Sb 13.89774845281624 10.143648992560873 11.610234844041067
Sb 5.7499837353186605 6.403478699095708 10.416082914056306
Sb 9.517939187288787 5.706648660050938 11.995092483166845
Sb 7.522792460288164 4.125496400342702 10.601839179271538
Sb 2.270098795658411 10.652635353252936 11.087377696432549
Sb 1.6709449887204568 7.847676902268868 10.617423163479636
Sb 10.565661152096451 10.219041907638385 12.242494119541202
Sb 6.578785618999985 9.481107003330575 12.894666175393658
Sb 11.827493017317217 4.127721375672837 10.931430449304104
Sb 16.448388914353583 11.114123862540453 12.456049599440993
Sb 3.8394297989672146 10.184543021664282 13.507070115211901
Sb 13.100573341372858 14.11803619650504 12.649217983788514
Sb 8.297810926001892 11.722957621240539 13.172711234745469
Sb 13.802778935016896 7.5659550633395884 13.153755412853517
Sb 7.09019770644619 7.098494004822661 14.29918420499208
Sb 4.93744693552484 5.753910325002451 13.125177731176116
Sb 11.161272167438701 8.09297114295387 14.18343624366051
Sb 2.6881762123505024 7.544692995304384 13.336256098200055
Sb 14.072833559945868 11.58513521883709 14.087569521734967
Sb 13.488754420745337 8.996051216952884 15.581533403093225
