54
Energy = -210.96157311 eV
Sb 7.417331390079933 7.539973211439334 0.25563301622789086
Sb 9.369047261221738 9.563339146253208 15.881311964448406
Sb 7.5781232678429875 11.744055799161286 1.4433413207882568
Sb 5.5924070527664895 9.694552065010265 0.850640754497117
Sb 11.410756542449493 9.234846791713764 1.591627049735222
Sb 9.260122551778585 10.52608289776258 3.421694377379667
Sb 8.226886768286944 6.386244657988664 2.8614650018269256
Sb 6.347865714026583 12.875120833086799 3.9951045576827675
Sb 10.901985924834076 7.1974811464666795 3.5871502785208316
Sb 4.847866716547601 8.640802241318159 3.388942848656412
Sb 12.05453496125838 4.566836781214461 4.014035850893584
Sb 4.148746879727342 11.104782152441874 4.689948570477845
Sb 7.445123129343087 8.508987957672334 4.616260340761375
Sb 8.061512024225394 11.677927692019894 5.926796502863948
Sb 7.188866130922026 4.469231773227372 5.105427099004508
Sb 9.918015381944702 3.99564906701072 5.904902149268584
Sb 10.405959762630296 6.1493990473019045 7.763179168282395
Sb 2.586119347053616 8.77858370855578 7.512369020269642
Sb 13.084949170965782 5.552978277653945 6.570006168533677
Sb 6.931227682353996 6.318533262866577 7.167040245022607
Sb 4.551980413704611 4.817218998056982 7.832667977696346
Sb 10.426578629587626 8.7584150955035 6.340364853347238
Sb 13.291260460399041 8.392230802284095 6.079537534987824
Sb 10.573317154624831 9.90148820840324 9.108579811878082
Sb 5.127933053729236 10.165471715763871 7.255860560805267
Sb 2.8366079044502106 11.540430604414036 8.360673607745916
Sb 9.220763420330156 13.939345097007468 7.301619211173261
Sb 2.8468011096000576 6.61621708581658 9.427035099336726
Sb 10.330564073057701 3.0231784806084887 10.173096472056166
Sb 10.767934031232373 7.63452823444321 11.667241011749057
Sb 11.441003446710472 12.647405540004026 8.692331566030132
Sb 12.95612271590663 4.225054946831281 9.868552184749595
Sb 13.379226000444246 9.179016193504578 8.925011762267234
Sb 7.828361618651363 12.520440725085956 9.442081213724606
Sb 9.208978236826459 11.040286832722694 12.338164967080889
Sb 12.10975251962437 3.2272163479056304 12.44716291409412
Sb 5.997587256711777 3.2961184032690594 9.87252717740709
Sb 8.238358367902169 5.0595998642308935 10.601872815667882
Sb 9.958984592433548 13.539922432812714 11.077438511790097
Sb 13.42316557789735 6.927849556551138 10.82169892665676
Sb 5.656754287234932 10.260337938632148 11.654219872427465
Sb 3.5150158363547024 12.09153578192077 11.122165114739646
Sb 10.51243631150051 5.385077766939187 13.534756935104836
Sb 5.789782309868325 13.957012773032147 10.94538542201768
Sb 6.758669808083175 12.402890580207396 13.228495092759164
Sb 12.366707826342152 9.089457627771319 13.667488709947985
Sb 10.378097298233687 10.767816445093537 14.971566160475504
Sb 4.6182177155018085 4.334750652200711 12.19210038225588
Sb 5.165420225334684 6.905001630037043 11.080209388788507
Sb 7.33738508353428 4.673590997150535 13.383710524406217
Sb 4.779243243710667 8.302869417186281 13.587105033420832
Sb 7.628146872143628 7.614720078329818 13.33113386213228
Sb 11.540515304722007 7.110402054277933 15.632591868792975
Sb 8.919199102376737 8.386012050858874 15.881311964448408
