54
Energy = -210.45626701 eV
Sb 7.4439991430570736 7.955621410459575 3.6349246445083323
Sb 12.7173298240026 8.724297464431086 3.828827184406231
Sb 11.204026389086826 10.323899026074741 5.541263306462857
Sb 11.78060819588766 12.884554508986414 4.378236561078418
Sb 5.214136303647986 9.418627102566369 4.774551811151756
Sb 7.566313389067318 5.140031630910455 4.155158927245719
Sb 11.519173949004783 6.21717902356035 4.604790979808758
Sb 9.333552709771908 13.762884747618685 5.640856530671336
Sb 6.794682342085181 13.057471010393673 4.5093031412417055
Sb 3.140549534617045 8.250972972565275 6.431556830701847
Sb 5.708341190409838 4.120130410996876 6.111719962700322
Sb 12.422353662275592 13.892594163176017 7.047248657980371
Sb 14.964364148256177 8.220522203986421 5.97351856226782
Sb 10.49451387970763 16.144067500237345 6.815085303436019
Sb 14.102267937432508 10.775793305979972 7.099063615088322
Sb 9.008171738218419 6.948312644781192 5.866766399636503
Sb 3.1093805373172705 5.364511294286296 6.286465901716042
Sb 6.5041527324403665 5.5891920989189146 8.451486632288137
Sb 16.506410541608386 8.285041173579007 8.621903715223906
Sb 5.4590168649966975 13.025061466328992 7.0611598225784
Sb 10.158098024970233 4.811235292070907 8.502505386256859
Sb 16.4664282219017 11.118165788556297 8.93949346041554
Sb 3.578703114361421 8.173273363190011 9.323326378955926
Sb 12.72278521684148 6.905926805338532 7.223857730114414
Sb 7.9296922226322355 3.2717932266269805 9.484283445164001
Sb 9.534256313027868 15.08104917235804 9.350060277971101
Sb 7.177424285017757 10.804784929278092 6.399499375842956
Sb 3.7359161060516892 5.2564303117418 9.180337270028335
Sb 14.343785517847689 8.054963343661282 10.482450414736055
Sb 6.343043392597327 9.00840624262834 9.161351297741096
Sb 15.12846622244303 10.868552594465498 11.472165406282672
Sb 10.097974418442863 12.478067952661355 8.196078809659168
Sb 6.685073565383349 14.868830696570289 8.976502248761161
Sb 4.8185046390360045 11.293079949231743 10.187950294732806
Sb 12.269800675749728 9.628655254650228 9.017129313956312
Sb 10.072233324396656 7.299230033941386 10.32708655047704
Sb 3.370376972982003 10.471267213149167 12.537570684984988
Sb 7.596703050758501 8.09737004109366 11.629444947426904
Sb 6.544279840327099 13.273538671241392 11.393860657501106
Sb 12.153751148805416 3.6566571030351747 10.11031260510538
Sb 8.146856691233515 3.795106756090825 12.335602510288336
Sb 12.800332332702261 12.210032355434805 10.502749113835575
Sb 6.025013283805205 5.698965462171467 12.111937141664628
Sb 8.628448873584446 11.216054169627276 11.410160598058413
Sb 14.193461020917173 5.149939343257958 8.923970861364447
Sb 3.917501978845322 8.581725907218331 14.669939028802805
Sb 10.599221205921955 5.379768648409511 12.373854265619283
Sb 11.79209766221777 8.970410369839513 12.631969250577407
Sb 6.052259984622385 6.708046700941303 14.84263172201264
Sb 4.9652878211052265 11.263227698930644 14.809125558422682
Sb 8.10924899705141 8.643288686687907 15.415745642326979
Sb 7.825239604631415 11.22718398802593 14.241531453937716
Sb 11.11315207657245 11.747822646101556 12.82791487024648
Sb 10.584764631313778 7.359911572927519 14.647240387527116
