55
Energy = -213.45980213 eV
Sb 11.251720414467087 11.855831826560562 2.167282895745103
Sb 6.531717450137862 11.891983325739048 2.472514401753657
Sb 8.850182962469992 10.203602359960692 2.7544004582281003
Sb 12.190191585837944 5.387572926308986 4.446632105862669
Sb 10.462490385323616 13.660600475982958 4.255689009537419
Sb 8.088340061843455 11.985588033010412 4.8945629837595375
Sb 10.904015653224736 7.9384870207157014 4.348920727419879
Sb 7.913845206416986 6.323448483271168 4.341507763568449
Sb 5.664020873878576 9.367675018657996 3.5706175783353413
Sb 9.531754885752914 4.345003707133653 5.73272361577652
Sb 3.73529322121309 10.200692412131579 5.548908554650435
Sb 12.787701525731046 10.243635747078443 4.041976679937509
Sb 11.256667703567786 11.530706936449027 6.118403724866347
Sb 7.705741339831712 2.9243760940527173 8.000443152254608
Sb 13.427041994921916 6.117688759424527 6.89130729388399
Sb 5.003172580971798 13.193267502531903 8.73314152822837
Sb 10.271725613859994 8.589400769499091 7.124372192970175
Sb 5.497690647482066 5.871166228346158 6.070211094179415
Sb 7.493359817334762 8.65579531889655 6.022358157539786
Sb 5.496065979896752 10.446292635405676 7.857810239924167
Sb 14.174809185930819 3.5680016874122757 8.071137186325787
Sb 3.0636900478436995 7.469301500879425 6.019146213118407
Sb 5.060660024073902 3.121217862833331 7.043903524026981
Sb 10.7157440767425 5.714193328053424 8.001341929853115
Sb 15.459329976950432 9.249748280220237 10.09837875272195
Sb 13.319728137103994 7.3399378259943715 10.23019058094475
Sb 12.820492445899715 13.123141830192003 7.958812324278585
Sb 3.8985434794973415 8.252413845865714 8.931192291579894
Sb 13.572365667856726 11.482343897317644 10.212694867207606
Sb 11.542182408422232 2.918974877505565 9.05887546622732
Sb 5.769118118823383 4.126485609119683 9.684253607399478
Sb 9.37386108351318 6.918592544963604 10.540521529787988
Sb 10.306883167968525 12.791186199647548 9.524679350471626
Sb 11.08410497272251 10.008321636557051 10.083265016292277
Sb 3.112983957899902 12.798872757082123 10.842356081309228
Sb 14.831967073129103 4.856298037485418 10.600678311294445
Sb 6.408196670232556 6.830982968981801 8.662296051654192
Sb 10.701355093752094 14.32299336362775 11.973282705340772
Sb 14.432712697619028 8.466332378854956 12.664106105333074
Sb 4.330739098692457 14.786664136408683 12.55325468757475
Sb 4.619837968711827 8.278359133918926 12.067824202569309
Sb 5.044952935524885 11.083121924097519 12.191823716117142
Sb 7.1723775591098295 12.188836011676765 10.491507609168766
Sb 10.802265895543643 5.752622316075394 12.789789749912897
Sb 7.389610710174263 14.649171789272016 11.96435565356845
Sb 12.596343851698723 3.348522389039825 11.62506552999193
Sb 7.997794757290877 5.083436113288828 12.370241652267003
Sb 7.430398229724655 7.923093770619862 12.678607932366731
Sb 11.934454413618305 10.024725809595388 12.91941678225364
Sb 10.954238735536544 12.56810720910564 14.133187811136775
Sb 4.738278843706901 12.789262815867344 14.538429357772714
Sb 8.362300887475707 8.869246156192899 15.327167147710057
Sb 11.0465469917983 8.027275192159866 14.778874128401124
Sb 8.520820752210978 11.140985615432335 13.507513089417913
Sb 7.548674868470974 13.59551829293216 14.669149585616259
