5
Energy = -16.14368568 eV
Sb 11.253065566083208 8.918035222015545 6.7168601686973295
Sb 8.903808389953275 8.20190149751451 7.703985719116571
Sb 7.984295098278674 5.95303208168595 9.040559159251849
Sb 6.620476944447012 9.830648544346916 7.892130765445712
Sb 5.707368929031113 7.564377948501723 9.15438076561632
