50
Energy = -194.12695026 eV
Sb 0.5091626148817532 7.475949868564407 1.158728999820696
Sb 0.754904293713795 8.55504129665557 5.656600458467119
Sb 5.3070679692181235 13.772095393502552 2.4659388803674362
Sb 3.1798465608904 11.865004017645832 2.8826364011815064
Sb 14.272303131031123 6.615365283017093 3.691482638843535
Sb 1.0794514384750227 7.144703177537725 8.179469223987393
Sb 2.0703540659218107 4.589043206259933 3.4038119168592145
Sb 2.4898052792914336 4.658490640024112 7.625876517844978
Sb 5.161070024852619 11.815087740569313 7.208976366778632
Sb 5.260000196198752 11.344032245559896 0.9499053024980271
Sb 3.326719946319972 7.889785697059732 0.8115632364143376
Sb 4.816736468962018 7.220031382677245 3.2176254694151396
Sb 0.3817333997180592 2.5895027558060284 2.222341849470172
Sb 0.3978588048882025 1.2820165419263585 4.8339677349915835
Sb 4.835150017000986 10.342822058412594 4.763633582257401
Sb 3.22610372159688 5.300094953384066 10.401830088704228
Sb 7.0075736301761165 11.557598341714971 3.2649976117107036
Sb 3.0828815952682476 2.36659051271327 5.0976984444390325
Sb 7.156146254135538 7.762970740538877 1.5505521132527693
Sb 3.417122924165361 7.883729591223685 6.552275079420938
Sb 1.9302998954891535 2.8343378678561364 11.238236556360228
Sb 3.681621457037013 9.822584379038242 8.721110043136788
Sb 4.051591197117375 5.156923820966027 1.3435686945767578
Sb 0.8733820309527074 2.432755425324695 8.582238082948923
Sb 5.392934327939262 2.692243154294792 8.382469589408748
Sb 7.284518879358392 7.960268940769098 5.621489144974722
Sb 5.92420906680082 7.837808348639542 8.723416312931665
Sb 7.446767707096685 10.064108183403905 7.629591572902776
Sb 9.185872558347299 8.565284438248726 3.4963810667450486
Sb 7.146425181183248 3.6910055454384696 3.5603640236561374
Sb 5.822263487363296 1.5772914423019608 2.1257927442993605
Sb 8.309819030976891 5.0667555703268174 1.2897432195216594
Sb 8.724447337258743 1.6004868742505003 2.251544487133647
Sb 3.235073995165098 0.9962159280279725 9.399299581209238
Sb 2.3704189455522826 0.5937162557250758 2.8792911825798524
Sb 5.528281256590288 3.633546280671859 11.05893866717557
Sb 8.46650245644056 4.570856494569452 6.994108437613014
Sb 10.519659884316754 4.055024528161764 5.023250792489772
Sb 8.216861161180166 4.764980305218911 11.255197708983738
Sb 8.328352856186443 7.496470555689968 10.352611115133156
Sb 9.448775890235302 7.172009851586742 7.6746976704656635
Sb 5.855303161725397 14.269961397195798 4.53706362902124
Sb 10.531007029000591 6.034322580770866 2.9093314622875894
Sb 8.715394655378065 13.772095393502552 4.209859837581319
Sb 7.477749909251528 0.754634805906461 8.786603964053192
Sb 9.505477282758763 3.06959991709476 9.260788296039307
Sb 12.344224023211586 4.666261022611491 9.086929566299267
Sb 12.956062427649728 4.999977702914446 6.323795140875028
Sb 12.391900319274786 7.2386828921700666 8.02163379157356
Sb 7.8459368597697114 1.4469402319948363 6.0050333241529845
