54
Energy = -211.06812991 eV
Sb 4.915955809907561 4.717649344502006 2.849665344975629
Sb 9.187602914380038 7.6769209963989535 0.6393707091066513
Sb 6.6338994505089275 8.259889582048736 2.234042114926099
Sb 4.493937473039882 10.891227599806626 3.968840486484535
Sb 3.2666697377616702 8.257475893284001 3.693714173014514
Sb 11.67779264354607 10.059526919409908 3.523669978268625
Sb 10.19422802307854 10.323803173036938 1.0684662500270274
Sb 9.587200339843164 16.35980669883517 4.7603922055459265
Sb 7.229822722793813 3.0649787167531812 3.5252846424429665
Sb 4.246296693113807 4.638779451462751 5.680621812731996
Sb 4.767010955153223 1.7966487491913914 2.802088681698522
Sb 7.553151584248085 11.051219886131383 2.0417988400844163
Sb 3.1264241673799273 12.231911073754983 6.206733103463743
Sb 8.641503323991538 14.292312940829262 6.461800190328839
Sb 1.2663105755044053 8.3582173537412 5.817120758685385
Sb 6.778332024801798 15.642774297185666 4.837684077048529
Sb 10.34842964402703 4.766968378146033 6.101448986268763
Sb 7.214562837942843 14.24759470182501 5.280938927108481
Sb 5.273764780251468 13.777310156690964 7.42796867292555
Sb 10.690714402206225 12.726542087021723 4.147432083705099
Sb 12.175166640138407 7.040238976652812 5.856119631251901
Sb 1.7393120140252907 5.6631535211694555 6.768774925430242
Sb 3.435180635751663 9.559514152919487 7.258841283455799
Sb 9.82027249730363 8.569749513769997 5.149478675372326
Sb 9.667896968688611 7.545985347400109 9.192775203891493
Sb 7.15162811842883 3.101472896688262 6.500623379032514
Sb 8.166901332635373 11.543011857347516 4.820047358757851
Sb 5.626356635551622 8.603195790194611 5.356311992342474
Sb 8.790671861537877 6.641810877049034 3.2556107151409455
Sb 11.495484410086975 13.105204971315358 6.9015285159703454
Sb 9.247252847916915 1.154613313725918 7.343004205901484
Sb 5.538844938184223 0.7721517930463057 6.9820143663121685
Sb 8.91086310936316 14.292312940829262 7.651672195542126
Sb 12.314219189049865 8.356646414073033 8.43911928158726
Sb 7.351864795202434 11.92215161620086 8.340689661695466
Sb 9.351476895725185 4.65231386456712 8.825297401864384
Sb 11.539297307182217 2.989042963706138 7.957595136535729
Sb 3.3799628386934706 1.8871352126740693 5.350236044500067
Sb 4.678496056278543 2.5080777265418592 10.576501958571571
Sb 3.8297847252767796 6.238684985761064 8.728040266196112
Sb 10.45069855399245 10.555587277450934 7.824964454899226
Sb 5.989937972136267 8.929843967790351 9.776935093835315
Sb 6.768176548936492 6.590473052653408 11.362569905367451
Sb 3.098061476824964 8.748819231947389 10.005537271786695
Sb 4.84929691620535 1.6525165216344866 13.328502403827274
Sb 2.882623113624855 4.701120142078495 11.003864418919012
Sb 7.99530263901841 12.50028516718422 11.106937227744298
Sb 7.095163418471043 2.9491226966976645 12.080869175730435
Sb 10.61363089310786 11.260827810992387 10.684250371468362
Sb 6.279743686709792 10.459661581897718 12.190852213168004
Sb 4.337359593405413 6.317619068479732 12.870515197359802
Sb 8.011879379207778 8.413619144021432 13.268052775442433
Sb 5.7148415493183995 4.218574943741018 14.28852227200887
Sb 10.484143817849603 8.557659621004081 11.759666459558039
