53
Energy = -205.64431758 eV
Sb 9.522663680703854 9.193415998700708 11.541670690986514
Sb 6.828504858779261 8.198414300463028 11.419377132783621
Sb 8.794323821790515 6.476510820529921 12.610053987559109
Sb 9.496936239822942 2.9481669328325792 10.675762087701132
Sb 5.003817917660921 5.6467453796181655 9.219306704776614
Sb 9.213957577195893 11.73215058289257 9.562855947215448
Sb 6.810313083563177 1.992014021309221 10.774937827974767
Sb 4.974793354946898 10.335213842550246 8.852614171132549
Sb 10.525341845320543 10.556478756275855 7.342265697290831
Sb 8.862858707036585 7.029204777296342 9.789311278962392
Sb 7.743664490072627 3.567571738829882 8.451388865735161
Sb 6.856675197698586 12.361437849153031 8.015683029254218
Sb 8.85677963945413 0.26137050250028604 9.719274903530485
Sb 4.9523779642447066 5.485605165737841 6.318331482254707
Sb 2.490190134613647 7.125477032347632 9.683031604031562
Sb 2.4537484783806027 11.367187711695541 7.873785344440768
Sb 1.1425131005381655 4.74986404031512 8.699971341480886
Sb 1.976421966237149 8.574406538491225 7.171959759678111
Sb 4.838831970348161 8.541889659428639 6.541719247190161
Sb 8.36051397678928 8.739706291269135 6.63933569105168
Sb 10.146740140673 4.8511251280264585 6.082117773996994
Sb 3.41285286800047 3.2681393057050534 9.738550963578989
Sb 8.257127262262014 11.4085490980049 5.652081893323616
Sb 2.0817226867082077 5.494414338841488 6.069329221215005
Sb 10.965611712110576 2.119751847181591 6.386988760213679
Sb 4.348491850621786 13.800905196017126 8.128689077689087
Sb 0.9621681259246381 9.446212213025825 3.9968730844396614
Sb 9.745721890636643 10.05257277483149 2.57218932151759
Sb 7.934812600243332 3.77611156803892 4.19542805728877
Sb 8.306833666729727 1.1275350513599272 6.971043168992054
Sb 5.136814118772642 10.717762837549387 4.55457045738491
Sb 9.855161736106734 7.761922153370995 4.332435535648052
Sb 4.161880549881312 2.2585461486028846 7.1194329444789055
Sb 2.500288297804979 11.718821415487298 4.967601602615148
Sb 2.670202640519109 7.252332765816394 3.083817009569024
Sb 7.436439252902279 6.564281504949737 3.3410733217655366
Sb 0.6238888698470046 5.281108747891816 2.0780599887324502
Sb 10.731214351610175 3.3036873982703554 3.7459079333699803
Sb 1.8885322218529692 0.5481829874873871 6.9847322071178235
Sb 10.673850944948857 8.369790599517085 0.4248377413749201
Sb 3.7429465312892845 3.376431126734114 3.115976751565291
Sb 1.0279886967106768 3.4484201090104962 4.28537982830088
Sb 4.978109003257075 12.36143784915303 5.635898689056452
Sb 5.692139141096329 0.6582717547702532 4.6315137452063455
Sb 2.181793886747549 9.520778159738645 1.3699818494201832
Sb 7.969222172612432 9.451954158128006 0.3725860016988295
Sb 4.9650091816774795 9.223768964811976 2.1829293810207733
Sb 8.342613027457288 6.602983227145406 0.6039370691021472
Sb 2.9129579751800883 13.947137700405948 4.404489563048574
Sb 2.632134201734796 3.893201397414369 0.5084125820218338
Sb 6.85249127070844 3.059052754464048 1.2435661434812224
Sb 5.144193788984736 5.312654069092498 0.9545063688201938
Sb 4.8565599943322475 1.0394793241977052 1.8243754797012512
