55
Energy = -213.88257437 eV
Sb 8.290589975504101 10.469978754719799 3.585889052905722
Sb 8.079677973204697 7.593267008999845 4.675816261011834
Sb 5.2494156040261855 7.219670841934107 4.028985034613334
Sb 4.269333834543782 3.9817487392319117 4.667501365371355
Sb 4.129308087138164 9.960467203539423 4.462176944489312
Sb 6.364822488422338 11.566992455365172 5.326933932805091
Sb 13.154799325296919 6.10576941380459 5.430888627113539
Sb 10.871400603678946 7.120049436847439 7.003363274862067
Sb 13.870650160946266 8.46696511049829 3.9851073482566735
Sb 10.08345295416583 11.689460530102687 5.47435800359406
Sb 12.60523247305841 11.109265589335665 4.236860036825575
Sb 14.310611466400239 11.937210507937948 6.409055743706379
Sb 16.028797147991597 9.7038575348844 5.486265519622672
Sb 7.148671892618191 9.203201764610677 6.9506512679070935
Sb 1.6907886327510753 4.110172000517292 5.691051795230658
Sb 5.281692561788728 4.091118166740929 7.341288914231299
Sb 8.259809609528547 5.700968082734352 7.189045062197489
Sb 11.803592590170478 14.564165003752581 8.425050262522559
Sb 9.032750472315929 14.44609402810101 8.171473019826907
Sb 2.745600850316307 9.952761011531237 7.003757766192707
Sb 9.839566842396286 9.93491267577481 7.845277327237416
Sb 14.719960707362945 6.0083014135374375 7.846061876891018
Sb 2.596133253609192 3.673612451932641 8.415837875514034
Sb 1.9181896242865386 7.082808043062955 6.776949456098987
Sb 12.376226201372408 6.684972481625285 9.449745609788012
Sb 4.7657767539059455 6.96204447919581 6.922802023867596
Sb 13.159904132095749 9.903904084020335 8.09524345285124
Sb 7.86456688743174 7.459300475320654 9.341989774415346
Sb 11.9227866027831 15.203113810796625 11.188129322669708
Sb 7.239846778133487 15.610928316965763 10.158233483363153
Sb 14.128380825927144 13.330959453823896 11.101202029653836
Sb 2.2033291352243642 6.336140684817731 9.518205379855335
Sb 7.920748158970849 11.994891404148667 9.185379912028374
Sb 12.532076132906504 10.942095796445157 10.7523804955188
Sb 12.021813572313222 3.9350793617311424 10.270902856160442
Sb 9.25506890938122 3.476529513563889 9.969873855654837
Sb 5.559586214574344 13.700732422008269 8.769994204782902
Sb 10.229064524609374 13.014630603654425 12.02212848563076
Sb 15.744163232644143 8.67668707056797 8.170264550444575
Sb 9.072932998623118 2.7068621667536266 12.809561820445492
Sb 14.350725528992852 9.826680832899143 12.674058375182991
Sb 4.9172447421426275 7.431533947540295 10.241754857005136
Sb 7.686760725330183 14.284959960699933 12.703390007563234
Sb 10.768582350250512 5.037430740802904 12.787378515783862
Sb 7.9824635645296995 5.28819769238845 12.03214498808264
Sb 4.848095170992509 10.03920973374388 9.026945818838396
Sb 10.019614387542523 9.139476608000917 12.91627849403347
Sb 14.271726908492807 12.429224596761319 13.874074889925632
Sb 11.52230126654108 12.933641277705588 14.616665141212767
Sb 6.998666216395594 11.603032264617491 11.964952143220493
Sb 4.342500967821318 12.185746037299355 10.916974088934085
Sb 12.376099852438804 8.389516366824969 14.456670831859586
Sb 8.370106714672596 7.262109078757389 14.461728350250784
Sb 10.52679835664168 10.360885870853966 15.46370975682457
Sb 10.59109414378398 6.070566185155989 15.621491804111322
