54
Energy = -210.33809453 eV
Sb 7.783430998668493 9.18906114632821 1.772734644910477
Sb 9.731916030663363 10.761219977087574 3.1682205989401453
Sb 8.386665896117126 13.181599388710064 2.182966668455706
Sb 6.236593544052179 11.400864765815676 2.914507771712416
Sb 7.750586342800803 7.779331187522422 4.313753388557008
Sb 12.017258439100875 9.10657982848163 2.453743242995712
Sb 10.649917386214009 7.267012189251427 4.281093900321235
Sb 13.420898049913284 10.086753057199374 4.80227937321767
Sb 7.399409724817158 10.45994305469567 5.433208319573962
Sb 3.6887261926638772 5.420581008727481 6.60127478158215
Sb 2.805292282595743 9.021114140234339 5.100305032296549
Sb 8.447393055074839 14.49459489602518 4.782091033706923
Sb 1.4652453792778375 7.275857235073964 6.974939955539187
Sb 11.220833170246756 4.723493814624655 6.602176434678744
Sb 13.951351572762734 5.127286120144353 5.828415824241324
Sb 10.745206932242851 13.235307756126112 5.57647192219887
Sb 3.8685947778008747 3.3338139585055093 8.637390870106648
Sb 14.163961658920467 7.921866622561066 6.592203332649317
Sb 11.447437411425243 8.885157475387222 6.570567531702653
Sb 6.058118978741044 6.286324297013623 8.03813315616416
Sb 12.455116113273881 2.242462192626243 7.343650846553613
Sb 5.0434784757994215 9.507290984298173 6.86093285704807
Sb 3.112600651379842 11.562793017457105 6.422994205538646
Sb 7.071836507148401 13.467406009620012 7.711561353952405
Sb 9.397542898668304 11.786372090472472 7.9374449022096165
Sb 6.478492708739315 3.465077916546194 7.37527412639771
Sb 1.688011886445606 8.518642427760533 9.542957826617188
Sb 11.199536183636097 15.202360432353759 7.682007776960959
Sb 13.207106087628736 4.680957799368294 8.681254351638723
Sb 10.600627763322716 13.554728871606962 9.981371654295351
Sb 4.510828944458175 8.649238385125106 10.19924434010324
Sb 10.44581905066129 1.2842329865677617 9.23702791022876
Sb 13.295756066391057 8.827151629372686 9.961755780218764
Sb 8.685352265478704 15.49915429238573 9.06174152648449
Sb 7.543007455639999 9.752497526953102 9.141772444039935
Sb 11.037821339212359 6.8945563122897 10.169119845874215
Sb 1.7489184465965886 11.331965538765967 8.944702075062331
Sb 5.4169544881729745 4.879308631538461 10.55655659063829
Sb 3.895311143774171 6.66318472545753 12.259022886140075
Sb 8.832908354024212 3.658725913234618 9.290535848061523
Sb 3.8763400032222752 11.378054202518342 10.97572089932734
Sb 12.95885277328499 10.762299925728227 12.10159237770342
Sb 11.421639156947498 2.864894840591666 11.425992994498305
Sb 6.629454779236749 12.13199637020646 10.410665856444536
Sb 14.230832109055434 8.27503289204003 12.664134800286023
Sb 9.078767024614262 8.854095037131716 11.402081297028545
Sb 8.602263522058884 2.872903924176639 12.048998334882802
Sb 10.243635642457022 10.92206542327732 13.001965412904358
Sb 12.31947990642948 6.051451063847311 12.58415988723931
Sb 6.090598503367744 6.61219216980397 14.15185575075759
Sb 8.247911199694478 5.737105309162604 12.4250412842751
Sb 7.089964463896205 9.227751581300256 13.56169916950753
Sb 10.166396207779343 6.269089975921078 14.52380524588033
Sb 9.527455614881287 9.044653242454574 15.124335319126116
