55
Energy = -215.10015515 eV
Sb 7.497829775438108 8.58397691370231 1.1559923581204248
Sb 11.093589975963196 10.666510186498602 3.1617953543141906
Sb 6.200409943558842 9.119139627724504 3.682131757553691
Sb 10.023204084730608 8.058214709060797 2.5551396003140483
Sb 3.5521410482466664 8.350455812883421 2.8652151397060193
Sb 8.929964287042315 12.35660074577131 4.113509395915493
Sb 6.048742679267734 6.457070953036675 2.5159446468623816
Sb 8.353227326466287 4.951388556354651 3.730115750279871
Sb 12.358856022046933 10.119015901268032 5.690146715947728
Sb 7.175142219180329 3.4812466865795186 5.811124853538297
Sb 15.361099665667425 6.499753187806 6.242339290837806
Sb 11.054349501478978 12.262688924879873 8.117917979384588
Sb 10.20634630327176 14.105631082006012 6.0336453813702375
Sb 15.065491419458663 9.191456219878772 5.159708342447998
Sb 5.473507128069661 8.021407528291231 6.950261779791375
Sb 12.743163652614264 5.737824796011551 5.338406544308674
Sb 4.722400664377102 5.322125213534873 6.250939747014091
Sb 2.9114397023923337 7.761131070508148 5.4923504788913675
Sb 7.126192993844735 11.46792423063201 6.231323386689295
Sb 8.752242874776487 7.484018586945677 5.0823492989504055
Sb 3.1297139308062154 4.449701555007244 8.531255673031593
Sb 11.138024408220321 7.679533703540281 6.703744639171489
Sb 7.493877532024302 14.252795485896888 9.707013389434458
Sb 7.433963243040028 14.288855690467754 6.79438530498512
Sb 11.879171903961419 3.502372164143384 6.996655009793189
Sb 16.107474692148195 10.853418641125245 7.2609028199580505
Sb 9.228149202200166 4.780752498895827 7.376836294429699
Sb 17.17967994544985 10.211529064202427 10.453023404004815
Sb 10.302764950666964 14.089486160181401 10.257342738800467
Sb 8.904363183505746 10.321397938667698 8.211387873763417
Sb 3.871420993919489 8.912176746853335 9.248479893871352
Sb 15.665292412650736 7.531653848374058 8.90993155441175
Sb 4.9392259771393965 4.434048209768126 10.79348382899793
Sb 1.7951065108332938 6.96517032564849 8.817507037436512
Sb 13.084438378279128 8.672916191731401 9.27412900142037
Sb 8.72003483611379 3.960382757090827 10.094087434543054
Sb 6.986596015482215 6.270302925213941 9.93769704034076
Sb 14.05176292071229 11.372714127829155 9.03605847465284
Sb 12.496786784315798 3.886577940506822 9.816592214388622
Sb 16.10747469214819 7.718647990297742 11.31540422113376
Sb 9.30573851506322 12.169337797606543 12.19858972506214
Sb 16.694206600011576 9.736806047081778 13.231739689938978
Sb 4.835498483545041 8.677393679916234 12.02910868328668
Sb 14.915360653488342 5.276410105876423 10.653684924236723
Sb 1.3065004053479343 9.229938067341683 12.114848288533835
Sb 3.696437733980309 6.156275633970389 12.786274864731553
Sb 7.219622290168223 11.435184231098116 10.294195075163259
Sb 10.706796646017532 6.057235493078968 10.258549711925546
Sb 10.614980282218518 9.741620120423278 11.28686300700768
Sb 7.104727483794515 6.909444593352276 12.741600104910106
Sb 13.461506774945013 9.549884522523456 11.995628000948134
Sb 1.0008802778916988 6.411015271246332 11.527023356596425
Sb 9.60305997993557 8.273820329441916 13.544395602232425
Sb 13.807157481932235 6.773066280274803 12.906525102352553
Sb 11.056567632612285 5.808186301648352 13.072331585963893
