5
Energy = -18.36590092 eV
Sb 6.592878883750817 7.0733692390861735 8.665112718518582
Sb 4.494006471090242 7.467015049718297 6.759691034136667
Sb 6.518721694177866 6.636618398900085 4.914919730443651
Sb 8.567660475949673 7.745610608206153 6.645729925328278
Sb 7.789324394759775 5.039978623817553 6.977138511300826
