51
Energy = -198.65279285 eV
Sb 2.0314493051523246 5.466870298228316 11.553305348807305
Sb 2.6296333363559796 7.80902372285601 10.050836082689669
Sb 5.13807000134569 5.588508170911859 11.18744869801619
Sb 2.125387710526059 9.944388183350155 7.336781469397957
Sb 1.009421108691775 3.553868238146376 9.708687577097484
Sb 4.389883178897056 8.251386299842062 12.281370208601778
Sb 1.3829430045954372 7.636595872570815 4.5923853731685345
Sb 7.921711393212433 4.271207609480349 10.999179207248552
Sb 1.2882157388292657 5.070310106181204 7.251182020374244
Sb 7.1843046322960165 12.21710540297614 10.945809283203518
Sb 3.8231656705440336 11.492185828773843 9.094776131785768
Sb 3.6777048482276085 2.3933713096371094 9.241660762038851
Sb 7.211275574016441 1.7606837485085505 9.780271104780235
Sb 5.231593255714894 6.973814409488352 8.635032917026573
Sb 8.78413131145165 8.445529293092966 10.86141402019298
Sb 5.308417354518512 12.40379079250931 6.782797046781221
Sb 4.005192143315123 8.586292354266924 5.559494524601093
Sb 10.082893879464375 1.2819846841298603 9.217770522179018
Sb 1.3706105461468474 2.772516779493564 5.481176364117225
Sb 8.436277422460126 5.350228881012588 8.384340304830276
Sb 3.2667879492588248 11.286718514594186 5.0049271570167235
Sb 8.547240321886415 12.184198758232505 8.376010946609403
Sb 5.980905144304277 9.647518064921321 10.240294090400237
Sb 1.2792331271871893 8.691022012131276 1.8719805589428882
Sb 2.7157581934148713 0.7426316345218232 7.128194035798738
Sb 9.824923226766684 11.09813733420003 10.725490303947865
Sb 4.180118766064772 4.55994685974402 7.389970859125572
Sb 7.502835630132881 6.437745967816205 5.263149737383009
Sb 6.950254854588147 10.034368363746788 7.199584993037803
Sb 10.793794407407162 3.6196493833823933 7.684888609837021
Sb 10.511324562864854 7.246054564803047 8.958621927175125
Sb 2.168783418300973 6.003251359230974 2.3340167417501188
Sb 7.794440779124117 2.3951375579846155 3.37053361279454
Sb 4.086229612135994 8.122862982539313 2.013810441048301
Sb 6.932266935933065 2.732624741744794 7.047219575319836
Sb 4.01868459612571 3.64710470599781 4.609244281879129
Sb 5.102675850619194 1.103471561328423 5.452170312629258
Sb 10.91956985448957 8.37964553102522 6.2691594919184
Sb 7.399315692323786 6.699542250587927 2.225415765398121
Sb 4.90757604770635 7.722418787154545 12.55494420525759
Sb 10.357625518708701 3.312321576552333 2.3213667877644673
Sb 10.2776950495477 5.848072773743493 4.959250743220866
Sb 6.555681642544171 1.8855988631017573 0.7946304538943905
Sb 8.49102272691884 9.14864948878467 4.913738694155087
Sb 9.489539814715261 1.4392635458612455 6.397162249021018
Sb 6.18623980389339 5.200064839850869 13.290233344961191
Sb 7.542876119923338 8.685623996159663 13.272955021353619
Sb 8.669581553180619 6.247609348565105 12.281370208601777
Sb 8.430915478905794 13.276344420549474 1.9083054475434857
Sb 10.163160064786078 6.144852104348073 1.7244674197763188
Sb 9.323426665259946 1.936452071506461 13.277114662133524
