54
Energy = -209.75334126 eV
Sb 7.1976774944474196 9.584734235427014 2.9475496317460346
Sb 11.54332870145606 10.862021011347025 2.7856421704039396
Sb 9.841989855387466 8.615706979351966 3.5125396448559596
Sb 7.37970856949206 2.279344215344512 6.024452116927832
Sb 8.651740844704861 3.7923211152864695 3.9062844392993235
Sb 7.53588416403738 12.423352356359896 3.560257365070825
Sb 11.156205243787788 4.733601489526228 5.0600561039550325
Sb 4.461323397784265 13.736391465975412 6.257153712513469
Sb 10.152204516735075 12.453839824985687 4.735908739438313
Sb 6.683947551519466 8.532869818262933 5.6052880642029175
Sb 4.085989096973133 7.770109482588208 4.832458818198234
Sb 12.956217109594299 9.907116431767173 5.178386961831747
Sb 9.542219935831536 1.1851885509365578 7.553883313651799
Sb 10.430822513826113 6.598542763749655 7.169328049859614
Sb 10.219342299430496 9.812785244293169 6.1878412376407175
Sb 4.144649648071235 5.0573519734243915 5.816792992606494
Sb 11.818398113870552 2.120016240534528 6.06281472481728
Sb 7.09133403819937 5.204759972511111 5.892647077968938
Sb 5.8134698588466405 15.049397397511644 8.478185264379444
Sb 8.366712446774216 13.871891243286129 7.556670513820275
Sb 6.674963326980492 11.815331902867317 6.232508365941843
Sb 8.621842953747054 4.909811023547949 8.790084330725499
Sb 2.244578256454368 12.38751918681276 7.523042724194337
Sb 11.834491136161315 13.951144421788719 7.524209975385123
Sb 12.770456661586662 11.364365304702918 7.68477663576484
Sb 3.036114547438557 9.330511445918015 7.2684756614201715
Sb 12.835057665331929 2.442850523826719 8.759482836977547
Sb 5.531293826240179 12.453704417130663 9.60219028459981
Sb 10.230817484009627 2.8021379595733737 9.960765276798426
Sb 2.736539639882444 12.79493564995697 10.285166072943019
Sb 9.27430137282551 12.355852198851741 9.909930323081829
Sb 7.95168593029705 9.210705222464389 9.45528334780277
Sb 1.443635400998664 8.22307283146832 9.607952322733858
Sb 11.318616267886066 14.350448191744274 10.378005168502611
Sb 11.641169570867097 5.538091567795793 11.45139532775297
Sb 4.942926165233024 5.527362616627891 8.587317597416995
Sb 5.145172776180876 8.581211515540533 9.06755609300452
Sb 12.570418538325482 6.945312775368713 9.080474732381708
Sb 13.417470621290585 12.49890056768095 11.14149716556949
Sb 3.3482609454514285 9.948212257203062 10.8612379298135
Sb 14.472482974488386 4.817983146332958 8.780871962670938
Sb 8.629669226323461 6.804518484710094 10.984876668282222
Sb 7.190114244527664 12.733709590484462 11.93247210107024
Sb 6.021330715233817 3.2356289753366596 9.950660702527879
Sb 2.610766216821823 5.644939623191753 10.27133622383152
Sb 14.452962056069444 9.270466811903589 11.982493682803229
Sb 7.448920887651965 9.811149145250122 12.262001103471437
Sb 6.649309701979389 4.884131577693709 12.145973602068377
Sb 14.383042268068426 4.4102346151175755 11.66779525259151
Sb 4.1377509528571 6.203527289375598 12.683584047254227
Sb 12.619403469011035 10.967493882322836 13.474751719627976
Sb 11.936730313965418 10.037040648299602 10.830027469758187
Sb 4.798253286737982 9.009237351068336 13.186254641447587
Sb 13.61892700503072 6.7597572722972235 13.164049513319815
