50
Energy = -194.70924276 eV
Sb 0.9813736993157515 4.586978132146576 1.7739889226775725
Sb 1.4748865272128295 6.96800861108917 3.3611505627712304
Sb 1.1817926821358522 10.20696733772419 5.106287182635854
Sb 2.8839933868295873 1.4496764406761307 2.2833924019836216
Sb 1.0414200797972235 2.866224129386231 4.140663460613193
Sb 3.616233786034787 3.8702478516748458 0.8473299924784966
Sb 5.128887085263548 8.199556341856074 0.8528474244053248
Sb 3.6358747475724047 10.352137511958885 3.580922930070266
Sb 1.766584943620413 5.286346253282765 5.720884918903701
Sb 2.7416661858706783 8.37916360205597 6.7670624156706625
Sb 7.020927450346089 6.235236762245603 12.914288566887933
Sb 7.296937511320846 9.572439502915506 2.153347933816761
Sb 6.955729230762564 3.4324511578247527 0.39768854956103006
Sb 4.574054440713221 4.53724774445973 6.185665082473723
Sb 3.692459100613515 0.3813069669013736 5.604605626744882
Sb 3.6160395320456233 11.125896399474492 6.352819912416922
Sb 4.301652140308955 7.470109902334965 3.5316500863502402
Sb 5.490046522971268 1.2098642696530642 3.4906223193542325
Sb 2.8117477011719427 2.5136729900690553 7.331117806037355
Sb 2.8379227352410874 5.679068169959875 9.87075094265999
Sb 8.731078734876315 6.9485134543375136 1.8431283187072982
Sb 7.594982698593821 8.077043905064732 4.649291511770961
Sb 11.425577234983765 7.873352335278461 2.2470788385184397
Sb 4.951856635399748 10.187219377362618 9.723607929115019
Sb 5.684108087395 4.127339724210926 2.9669627959384526
Sb 1.187694130244257 7.98470203510069 9.197485660799298
Sb 10.226240217580331 9.32682734472825 4.521640167980223
Sb 9.762389706018167 3.712148533001409 0.8579924711350617
Sb 9.141578899193064 4.4409469786608105 3.463017763888503
Sb 9.398344675187923 9.387920800498186 8.208292324385722
Sb 7.258267088933278 2.744902813801461 7.692673929623367
Sb 9.334361855657127 5.609935340891854 6.806984655902611
Sb 4.834598434722105 12.133050175342264 7.8275327354733655
Sb 11.900979508697793 5.480212336240028 3.8046175572833536
Sb 6.72925035360897 9.445560530050217 7.11958667019151
Sb 3.683361792216893 0.9221100268377483 9.608553960028738
Sb 5.180752475518238 6.414781897968664 8.361014545126498
Sb 3.769865217579229 7.075997496662439 12.240302585626969
Sb 8.178101963106698 11.926499775785846 7.468214411290126
Sb 2.4931215774105366 9.461073047580015 11.317371542841464
Sb 11.554622490580167 7.274652171168643 6.106714374767608
Sb 9.864824184199305 1.744962348988882 8.454283635950919
Sb 6.5070770430448155 0.5740679360813417 9.41510529030446
Sb 8.790834422228295 9.907882372968835 11.020041286142416
Sb 9.213502350768334 6.061192671482793 9.671604338042824
Sb 11.524651449286528 3.726960087613128 7.17207968070645
Sb 6.155373382397651 8.913419816330588 11.859933426872297
Sb 7.172016797289692 12.133050175342266 10.19914057285858
Sb 6.797004939406883 4.520198349477068 9.934828858466068
Sb 11.0330449195287 3.8282485883192936 10.044696608570534
