54
Energy = -210.68605051 eV
Sb 8.55834049127911 11.811197124091445 3.99122725495983
Sb 11.28925736474105 7.9850305252904805 2.4602397683617845
Sb 13.567937954248327 10.897366304623413 4.016867431927993
Sb 10.828217668616093 10.00642946334671 4.611269267955202
Sb 6.5269161727963825 6.23033861526314 5.7504219175416
Sb 8.673393645806982 6.9503303868827 3.052861332171341
Sb 6.839944937863922 9.477864724721105 4.431617842140324
Sb 8.822006539692051 4.04082565623183 2.6447177946225318
Sb 14.387316187191502 9.211785139381314 6.2263040807558765
Sb 8.29788858522944 12.060251462703834 6.878249016494615
Sb 4.469157257184648 10.946035208065181 5.298375252508777
Sb 13.46481431252734 13.577027624459006 5.094017608140633
Sb 7.2594799876036635 8.581985882170414 9.301746000646823
Sb 10.66939850965012 3.774993134043181 4.839649412530204
Sb 10.88419229341213 6.677511675684151 5.017127249753997
Sb 5.903178535702891 6.123068906419418 8.623520115093463
Sb 5.5416670420842475 12.87651114708802 7.150275124082223
Sb 7.829032189852675 3.6361841112081117 5.317720335898825
Sb 9.649092353193414 14.58631433403997 7.477676849536951
Sb 11.662404860566065 12.523614698451516 7.069293211006107
Sb 15.822671229002582 10.985059245032884 7.9680950477923425
Sb 8.408525018594975 8.286471885296852 6.57850420379525
Sb 14.254748424038093 13.423379471745596 7.883386836599252
Sb 3.027336237897943 9.795535845778577 7.554789532103998
Sb 3.1878018925290212 7.090261203906459 8.462329860816537
Sb 5.254493403307858 10.791525626580812 9.202583100435195
Sb 12.879470143649392 6.18337788223352 7.703531936602248
Sb 12.288239213948142 9.022694226207916 8.282737527745653
Sb 12.573026230941183 12.182488162137561 11.034639010892077
Sb 7.490762892149178 11.754885724320838 11.125556801475554
Sb 7.142334032940919 10.226094313273641 14.12118569312617
Sb 9.730985393458678 13.110331131028877 9.982599035828835
Sb 14.705266716335265 9.073679850618621 9.94399757932974
Sb 3.141182559527608 7.802382965100472 11.34854106513138
Sb 3.2748262009572593 10.686168192277831 11.36508110238499
Sb 13.30128823633746 4.84712947978316 10.239871725151678
Sb 5.901878237433827 7.586995823008836 12.163467306753788
Sb 10.875692424691694 4.339023138541758 8.733898402042438
Sb 9.41959264789377 6.185402183047086 10.478966916387291
Sb 11.091724862372908 14.534431564702835 12.127123549620068
Sb 14.743505335395236 10.652214134879722 12.373612251325426
Sb 12.057068889862304 7.223324863229703 11.325388085026944
Sb 6.054463265966129 13.53125836280876 12.905607377352812
Sb 10.599173867658958 10.524873774935555 12.449789242473603
Sb 6.091432937307767 4.803938192981996 12.872551878498772
Sb 12.751704746912733 9.745935085014265 14.272133889170739
Sb 4.447251753930966 11.32514427109639 13.934225297841392
Sb 10.480122221861777 12.758736973803776 14.30115025359038
Sb 8.976629489575307 4.708891311911091 12.960916134455521
Sb 5.279753976964221 6.709495060067892 14.89446654057322
Sb 9.296061774533214 7.463559784738512 13.750367454024856
Sb 7.700026370002653 12.853818450943416 15.211268541975697
Sb 12.107677089397557 6.886321646166196 14.1948137271861
Sb 7.5760309022484185 7.986889557500107 16.056031735228817
