54
Energy = -211.26726313 eV
Sb 0.913444428721145 9.159846512701428 2.2648090522003983
Sb 12.709345054371074 8.470894632832735 3.895373540702771
Sb 10.171020971305435 7.534029218813759 4.932594919032067
Sb 7.434273581275189 12.394849966553187 6.207848861314243
Sb 6.158809979283823 9.92655910020909 5.101219517685322
Sb 10.356876368570628 5.642559049043648 2.740865818327585
Sb 7.8590888850573855 8.276583139133303 3.3474389047496524
Sb 13.474202132945862 9.940818077747466 6.314070909091232
Sb 8.320664730170165 3.970239205511676 3.9474282484562506
Sb 10.421505060046472 12.494021327649916 7.336239502544054
Sb 3.2002303225136104 10.386145544368459 3.5463537081789833
Sb 14.46067251562526 8.641367232957764 4.903817124618723
Sb 14.071474103471271 6.105669416668937 4.937543721448749
Sb 12.15242859402289 3.9924275329059182 4.335239887487608
Sb 6.320908717328346 6.039728283695026 4.473494491031084
Sb 1.389930471104571 6.257622507964203 4.664320806959766
Sb 5.345469634143872 11.67937746293508 8.016642788043594
Sb 11.03204283728652 9.628184561370285 7.871056306583952
Sb 1.871472140258429 6.482798168672869 7.487680598382102
Sb 13.010908583856796 12.740993164764676 5.8300975850044905
Sb 7.464701042421172 9.716018022954172 7.6691576696289
Sb 9.512209797863951 1.922532988575709 7.589535824804266
Sb 10.000363912478374 4.4258014752693775 6.270482872681083
Sb 13.986718494568544 12.972090069930038 8.54535377195312
Sb 1.7373242388823162 10.496148279742739 6.030603958798121
Sb 12.920662502703696 6.73647236355782 7.510279205469775
Sb 3.305953476610312 7.607770917675083 2.9584898316263546
Sb 11.62162194667468 14.526007787112546 9.159361373313931
Sb 6.86404154663551 3.0685808024802284 7.91004798166347
Sb 6.773870301660881 5.973517242976005 7.349399676040963
Sb 12.29891535216806 4.365812565850021 9.069347070334928
Sb 3.655519718385587 8.700836752684626 7.292859892202878
Sb 4.191637273045973 4.993382638682331 8.366833652553769
Sb 9.877305340109194 5.772956407327742 9.921553617058985
Sb 14.460672515625262 6.204493041602523 9.913424620745865
Sb 9.541999344746218 9.715782594633396 11.961575735521112
Sb 8.816614004760183 11.86160030732548 10.149696307959735
Sb 8.711297271455077 3.056825414253898 10.11658987872533
Sb 12.65560343941248 10.699246359378071 10.004929897067989
Sb 6.075955317469779 12.474159755872897 10.716430367554539
Sb 12.300401546266338 7.927409994458401 10.81365414047108
Sb 6.795785550297045 7.846304045194952 10.768350563003471
Sb 10.322916194227227 13.814774136281297 11.653900637640582
Sb 4.172967905121872 6.532443190380681 10.843184001909968
Sb 11.670609037263452 11.532854188869175 12.86490592049469
Sb 5.094194424536605 9.978183238672699 11.830206980452285
Sb 2.9086250012415396 9.074990452054069 10.082352226796749
Sb 10.078867440190498 5.34072018506127 12.832740639000042
Sb 7.43836423954759 6.4024624814914555 13.259651052424925
Sb 12.15814131083096 7.253618708706923 13.644508346678867
Sb 7.818505254521427 10.84074762163568 13.979626369465104
Sb 10.202266974326344 11.43703905789852 15.534704194736054
Sb 10.679312220293797 8.599530263010964 15.77017102020306
Sb 7.816062041894333 8.298682107732525 15.396463975008801
