50
Energy = -195.08815532 eV
Sb 11.29707311318979 9.340375405276891 4.311736421830686
Sb 5.350712566020193 12.541973421310242 4.145576352498772
Sb 8.878794578904438 8.21304112980645 5.337688875410728
Sb 5.99562030161196 11.0168449209873 6.545601514201572
Sb 6.325291403827021 10.454582887537786 2.399401718083043
Sb 9.82862640142428 9.558770272693211 7.686110571972464
Sb 9.254909727413937 7.866209632287828 1.1509957078806035
Sb 3.3366532176573203 11.707092529959423 7.398922491795434
Sb 12.540268735129706 8.914621671798793 6.916578983959943
Sb 3.540344104383262 10.516011697048366 3.1033832459041073
Sb 11.63939290879403 6.8742645144071695 2.4230680345971227
Sb 5.389355371174384 8.837067191577924 4.6362137126298
Sb 6.183410294843766 5.986024882891612 13.572105553480494
Sb 10.446735668872975 5.643706039033373 13.520920153863202
Sb 7.998444818823542 9.80423032994034 11.56439874848785
Sb 3.2823784305503905 7.426460552099678 6.924930479571487
Sb 2.8012012575629885 10.589237031759184 10.017030761303083
Sb 8.775552786845717 7.741166864859472 9.699749012731736
Sb 12.8709044698197 6.12226780991546 6.349288006124489
Sb 10.47878532448295 5.7288689986655 4.834396973533271
Sb 3.9926938712038296 4.359631363702098 0.7784863017060834
Sb 10.288963238641541 2.7931302848823454 4.84709142970496
Sb 6.125811242107825 8.973270372605482 9.534011277104073
Sb 8.15465175195791 3.9150811324665264 13.178783511693421
Sb 7.186933336661844 6.366189663792264 2.5734273762019346
Sb 5.70683094587924 8.2007645782827 12.279390655271
Sb 5.476128849264084 2.6026310232003564 2.5882955852818776
Sb 7.503903645370661 5.159372663940074 7.2571316314609335
Sb 1.6903136485247399 9.72383191301735 6.1190258168196525
Sb 8.140701555345384 3.636878283560836 2.339719239395058
Sb 3.6298281399984247 6.304961220350792 2.9340637509041354
Sb 2.310488019794146 7.785196568115943 9.642572851236812
Sb 12.14194889035214 4.660701514197987 8.697334227741639
Sb 0.34251168103795293 9.704863707541408 8.739673165122522
Sb 0.9983882267039829 5.234990251418806 3.624241781240015
Sb 11.81213478878695 2.1715801973345954 7.3103053601017525
Sb 7.726366370082656 2.4479001275022623 6.219954254718773
Sb 9.298647287031745 4.455132498360671 9.48909997319775
Sb 5.145875072688162 5.162254738632298 9.037647283328534
Sb 2.317587807440188 2.836397034342292 4.587374988183043
Sb 0.7339213534797345 6.201976414144752 6.362359429058023
Sb 6.32260645672611 5.477627347829254 13.026057097115455
Sb 4.821529295360738 4.367690210005766 4.772874831670289
Sb 9.258576130455328 1.6610774805552375 8.61131999190601
Sb 3.520632644965211 4.765182736803818 13.178783511693421
Sb 1.1055848002868038 3.4146143650646748 7.137924165383237
Sb 6.592703175878797 3.487552800634502 10.933845726403531
Sb 3.583942894192743 2.82843634358465 8.459610995190339
Sb 2.334972749691791 3.1841805562001655 11.037635692344427
Sb 4.5018174873109675 2.1248827777834682 12.547882282383087
