55
Energy = -213.18227181 eV
Sb 5.621834979610865 6.084206406247643 2.551485393518411
Sb 12.30537823141178 11.55714884860459 4.2448808356719505
Sb 5.581516278996433 8.973276097268641 3.048731380185412
Sb 9.401135877986055 11.563075788156938 3.932237441287278
Sb 8.465061495332218 6.4131502110292855 2.8802457863308835
Sb 5.039869691204308 5.158871491525339 5.198316931796105
Sb 8.91568857036272 14.35685242044656 3.6373485743928855
Sb 6.680339905083978 2.818243089682958 5.592137879153076
Sb 11.627587784864 8.722572817996111 4.781061383719112
Sb 3.789883176008873 10.321140141365305 4.911553105469063
Sb 8.875480682253984 4.838842217010663 5.305605085427332
Sb 11.951009560375256 12.893706697369382 6.759624301218395
Sb 13.949681824883656 7.068066927809817 5.215553353757626
Sb 6.460140018909907 14.178458322049334 5.276960525986906
Sb 7.856120371662518 8.691185501578838 4.731239120079217
Sb 12.087302274744754 4.8853861960536475 5.387321779915046
Sb 10.399547083759954 15.256862613219077 5.95507586679408
Sb 2.420201676800532 6.391139933262566 6.9424489382624595
Sb 9.331517911861104 11.591881708505557 6.835543495270663
Sb 4.204038955044139 8.66461593844073 7.250364079452925
Sb 7.075802165017137 6.6645452634829665 6.721104343813944
Sb 10.359523236320534 8.582139748209615 7.3971835742241785
Sb 15.119525394742825 7.5572922612785955 7.9672976375604065
Sb 5.711711107358407 2.9042503751916255 8.326495311942622
Sb 12.903131358623881 9.287424342990594 8.816734245366337
Sb 11.267891313498819 5.805495380264897 7.942301340820339
Sb 6.083561017947197 11.496360958216968 6.201249295925098
Sb 1.639783348892456 8.622371446741747 8.639861901053637
Sb 10.483402113840235 11.207184019333178 10.162885679772785
Sb 13.840227936589347 5.255237769187108 9.124392538647964
Sb 15.915882065837646 9.573460800127553 10.502381292077942
Sb 8.208384883022818 14.207038786504247 7.572254161663156
Sb 7.802597970210317 3.3790270189952363 10.4667603866856
Sb 14.578427130350015 11.678526340362861 9.030729057948223
Sb 4.568559487561124 5.543970525936459 8.750362638260514
Sb 8.723267227882989 5.9709905021276395 9.560441320758004
Sb 5.008856215393376 8.620581308440858 11.354739761070082
Sb 4.645620112114032 11.52188995536096 11.16571316208744
Sb 13.364816286962704 8.950333375509253 11.650984029571402
Sb 6.230690946237597 5.505971343760859 11.735900376197808
Sb 8.265142756886032 9.526264994301881 11.089904636288562
Sb 2.2051149781038704 7.6223166237317965 11.292770152567831
Sb 10.590166696936786 14.04666465284065 10.716032765054326
Sb 13.43517439739807 6.061835101822766 11.867688798166906
Sb 3.4421642242731827 4.81091112821809 11.290727392192624
Sb 10.516453609864858 6.00725916157236 12.004516322016896
Sb 9.645695377510064 3.8158325102428114 13.526346410190156
Sb 11.471610179372409 12.126001513912398 12.709007198809815
Sb 2.7304286046749042 10.230354672877535 12.7566049286792
Sb 13.412827568604877 13.435249849070402 11.070903084475027
Sb 6.952919452707287 11.242660930658413 13.048728911129038
Sb 7.242092102804381 4.960420067674689 14.411056642587399
Sb 5.521845155494463 9.01702803662414 14.21661076561625
Sb 9.94292027326393 8.57750624481169 13.236364081689088
Sb 8.018132771545186 7.6446054409951545 15.122916416400594
