53
Energy = -206.31232884 eV
Sb 1.277727305357952 6.246427842323482 13.542286094166531
Sb 3.7628595737583663 6.743777340898553 1.9603689706637302
Sb 5.2280510128791855 0.41657499221504196 8.026735447622602
Sb 3.5165663364210213 8.26291128459546 5.892734209402737
Sb 2.6602699480300687 2.136262503859738 3.5741956976285048
Sb 8.409534697496886 12.091671870511588 5.484530356760483
Sb 4.149575843497007 9.779868583310085 2.2338933143206097
Sb 2.3221489241204663 0.7618281156941933 8.09727149958682
Sb 4.819986965601291 4.978798349357108 12.257468902939372
Sb 7.296264719086084 3.467645485136733 9.253300763433765
Sb 3.4672124495522603 8.152758504878985 13.896823357010645
Sb 0.9885071817471034 2.3086687915114554 5.920583783438402
Sb 8.747388649583035 6.071593463842532 3.4083575010959457
Sb 8.376837195761516 9.797740497930846 9.449422698527124
Sb 4.521743658922923 0.566820766567614 10.802500179168838
Sb 5.736072941352198 8.97978884870419 10.423446772569655
Sb 6.436859538942161 5.661029306058464 0.47514364216654364
Sb 5.8390384001663485 1.1500574282854796 4.648855546309327
Sb 8.57217771690944 1.8388169924149216 5.402592462263233
Sb 5.3260706108868625 6.200626636729468 9.682339304934848
Sb 4.008095734827047 3.095536069884561 8.3126474325746
Sb 4.169951266228293 10.913084040385783 4.9382856248420515
Sb 8.791750354199785 7.327040743434171 7.995421750517685
Sb 6.809760924034948 8.253558769046665 6.035306643181227
Sb 2.1347529368657345 4.8298450495889504 6.6402355960333
Sb 1.3105804456641696 9.856365732326339 2.3051776066717005
Sb 9.178429620025186 1.2893687027897076 9.631834071201755
Sb 11.442858658159132 6.8726976523645495 4.123328187640648
Sb 0.844327790021629 6.870431362222315 1.8937285192340685
Sb 8.006078040559816 4.39142992428465 6.582271607368527
Sb 4.873856509466334 3.8589038808701206 4.417855305838166
Sb 9.211539150583471 5.004856416099978 10.794413174208856
Sb 8.918798615215096 2.4695660887183215 12.278031721622392
Sb 11.479001284683129 6.938784526743399 6.990647424430878
Sb 10.895738221277867 4.118376062337173 6.736203413375122
Sb 7.2331430012267015 8.451486742492134 0.4379762885580173
Sb 2.821557423124299 3.2135638174634265 10.966718564260526
Sb 11.216837725036575 3.351690902106428 9.497081176866702
Sb 6.025952201459554 2.3475100962844433 12.58811037896752
Sb 6.220062113646745 2.6498578741846393 2.149678580426761
Sb 2.7061509611907506 7.230798175279671 10.274113552619777
Sb 1.385852197139852 10.175771667907492 5.1963976306046
Sb 10.571212981461267 10.574306295124725 6.584637825714422
Sb 6.549273235695085 10.820833806619262 7.40292632585917
Sb 1.0506449206636232 5.131990603616616 9.232060274522752
Sb 3.4998552765947837 9.527405809105815 8.55887450402163
Sb 9.253147110613474 6.3475776126154075 0.5202647155131485
Sb 9.003710158958613 3.201377383930573 2.858748861756372
Sb 10.698506992257377 9.67766992214636 3.877270995392332
Sb 7.8043055292468715 9.790399649389242 3.7697780290666074
Sb 5.946677296933147 7.2473909554371065 12.58811037896752
Sb 2.961124511878343 4.201200035121232 0.20220465698946868
Sb 0.8733008350066452 3.707383719270473 1.9632088163599828
