55
Energy = -215.28058564 eV
Sb 4.714206191352808 5.421596162065946 3.1200066680163805
Sb 11.462330668965768 11.837262832778041 4.50995389462756
Sb 5.57018003652697 8.090579153199219 3.614229925056383
Sb 6.903139470585422 4.0092737543146075 4.428642012388023
Sb 8.58880038125331 6.373167091689701 4.494601578469965
Sb 2.704990825500606 5.0830781808082754 5.133785402859004
Sb 12.066349459636115 7.89744006034909 4.607996691058577
Sb 7.99225078383188 13.48050693556241 6.429384897420877
Sb 12.738100255890094 14.39551946284607 4.222385935475753
Sb 5.903501017210282 3.720020559321479 7.118278061920388
Sb 11.843955623508641 15.965568261513216 6.441075887325674
Sb 14.194104041386447 12.05668817169759 5.33434054233419
Sb 4.107588168899309 5.904724000531589 7.465456705307334
Sb 8.982771626815987 16.15402101217578 5.994909653896432
Sb 5.406422537831346 8.263342338390386 6.494116383806477
Sb 13.630637035432663 8.978226750622769 6.707438151960345
Sb 2.9721906541334584 9.33074591710983 3.3977097374482863
Sb 10.930281683366738 5.736529418289597 6.065842977245084
Sb 8.72773818046346 7.288391115252541 7.232198499829847
Sb 1.2673543540763557 7.5516780690517935 4.855989312127546
Sb 14.388001230851396 12.944632543163305 8.06765060947146
Sb 11.611377805523691 9.396734449358137 8.633863746248439
Sb 8.250071036957012 4.690830953261831 8.436817722569016
Sb 8.447399916124326 15.124663705775552 8.716324906170417
Sb 2.7984019061253194 9.522439692719042 6.313504429451507
Sb 7.222076598619891 10.641518258360014 9.134708335124724
Sb 11.773333945746609 14.011125573753354 8.53815619072865
Sb 10.35846488947565 11.94774797484655 7.1298911003016325
Sb 14.56002774820058 6.743460120265406 8.723207341878219
Sb 9.236216341856766 6.12763785035507 12.172353018450584
Sb 5.793665788609719 15.081393501810586 10.009410154003701
Sb 4.683985751005895 9.047868537391652 9.801704101101402
Sb 7.92252747513074 9.176167479389393 11.630145137420993
Sb 4.989473750529329 12.555899274007555 8.924053910213626
Sb 3.6624055052157236 11.422125427783207 11.205507451094103
Sb 15.620253665537305 4.655443466207633 10.732108886728826
Sb 12.934193123744087 3.7203819089806314 10.605552094221531
Sb 9.043095513455903 12.510689724510156 10.670019305732847
Sb 12.013472167017374 6.521748992680661 10.12976463381108
Sb 6.892863249364268 4.849833575324543 10.978311482530883
Sb 13.544463027633533 10.986644137553615 10.082427312216854
Sb 15.438061048825718 8.81579363434441 10.513951414832146
Sb 10.446569006194073 10.78644295732287 12.47115258868169
Sb 7.333877256627999 14.155191389162773 12.280117153224566
Sb 5.562210384930565 7.29091744899363 11.85510999085805
Sb 13.19409496405642 3.685624810587696 13.45302334663728
Sb 10.42210728283756 4.230576491541396 14.097220692048412
Sb 5.286072666948173 12.497321308474787 13.3711561787288
Sb 6.7512988286338125 10.127633085535194 14.141544798377963
Sb 15.04316324646503 5.9083879365284835 13.286347450959367
Sb 13.29138409543715 7.95546885227489 12.31831265134705
Sb 7.945611543256113 6.953448195202982 14.655958103239165
Sb 10.447617372265825 8.369771513742718 14.757037548065053
Sb 9.317231673252074 11.088918930557202 15.129328713110862
Sb 10.081010815561543 5.930130669347118 16.378888200529108
