52
Energy = -202.55212586 eV
Sb 2.945247420299346 6.484272818663087 11.663447662917472
Sb 12.529223128227313 5.6969517554840845 6.478350807614612
Sb 0.35049494218079363 7.278640805504923 4.373728362970985
Sb 1.3248637151119018 4.689513953178762 10.079346283696909
Sb 1.7497887442131583 3.4206999191924403 3.9911436272790173
Sb 0.4681925010500859 8.198901250344742 7.128475186578263
Sb 3.723466042018606 8.813914061015607 10.03638034004926
Sb 2.336590591654861 10.99823186918952 6.344090605312818
Sb 3.0051100866388567 6.227207480245666 1.4276664067400537
Sb 3.5919002849215627 11.566168565908216 3.798080683561422
Sb 4.142791899190102 13.230410955723185 6.0902498606170115
Sb 5.608734735112074 5.406471421260892 11.988848549636105
Sb 0.9777916158922296 3.422534634033167 6.742591475367415
Sb 3.110531275312421 4.987087345948443 7.8619652391772386
Sb 2.9777217077312104 6.031635675773886 4.297162862615816
Sb 3.551452916936993 2.788446221439017 9.65849033983006
Sb 4.461659232158981 3.704662047277726 1.4307770251409504
Sb 3.40935496868395 8.312883535159315 7.154240322792228
Sb 6.6687841067443365 11.16327193206527 9.487928438469853
Sb 6.407211112802314 13.575283091154628 7.971878932567277
Sb 5.471309800294892 9.338630718820873 3.7594929152156884
Sb 6.43013740680769 2.5097304443270203 7.538973372953637
Sb 6.4040378257128605 8.032155807219633 10.93913571653093
Sb 6.3540881389762935 10.299445112579455 6.73976381838917
Sb 3.950635692792359 1.5744226453076073 4.593016937514144
Sb 4.0895655943854425 0.834447876137298 7.434666908443563
Sb 6.597574000071832 3.1180687156164475 10.431869191842598
Sb 8.063010174310888 6.7875501573421895 8.952510879213142
Sb 6.9913562704920444 4.41085595906391 0.23483590226019976
Sb 7.086441026529935 7.492509318256258 6.29173060765807
Sb 10.649815260578972 4.566777361720961 11.579543770120024
Sb 5.096941646755994 8.186745830968746 1.0984484577761453
Sb 5.818673553049763 3.750766627421953 4.045899263650156
Sb 7.784609842074113 10.68520038011256 2.5708418535391995
Sb 7.184905423904952 6.5164329163161465 2.1986845910961663
Sb 8.718166174109156 0.9514108819830662 8.379096370719255
Sb 10.339730933952326 8.442132834052812 9.55036199196781
Sb 9.329833285296425 4.520935411888183 5.873677080769449
Sb 7.883583583175395 2.528807980272137 2.2866033536916643
Sb 10.247743698495675 7.359725252713058 12.259117579231969
Sb 8.67149921861778 11.83115266419457 7.48240522579138
Sb 9.017749642807562 8.446330765805714 1.1750771802476354
Sb 9.154739498810006 3.86085115879398 9.169851593482775
Sb 12.375679997809469 6.597966227397089 10.500722948853765
Sb 9.880354112043173 8.036684464368076 5.838555802795627
Sb 9.875613514265646 4.5301594704313795 3.0143110908025044
Sb 12.19588964463466 1.58848974800612 5.698891305447315
Sb 10.026820561963206 10.519730366192588 4.401784314583429
Sb 9.297225787988962 1.6024819634110057 5.624188728859029
Sb 11.016914106187983 7.95474475864913 3.200826371397359
Sb 12.240224328708782 4.417388512442448 6.237356891131875
Sb 12.529223128227313 3.419634295364673 3.5228350771474846
