54
Energy = -210.98402244 eV
Sb 9.375366343853315 13.15615951606943 1.3216726466679112
Sb 6.173192456919648 9.983673411621735 1.4094458168820447
Sb 5.27633846126961 12.329125631263619 2.8789177709252907
Sb 9.087292435250312 10.277317666706594 1.370837700279106
Sb 6.712515180317987 14.22076086651359 1.2281127147740434
Sb 12.438564865714827 7.880950157322593 4.093862834298846
Sb 9.659505700647117 14.284039581264198 3.979022672884234
Sb 10.842655934397254 5.898210830176494 5.60382400540202
Sb 5.438007012838207 8.890133401880314 3.9976758503651846
Sb 7.1862312782251925 11.121279102804383 4.687229304300419
Sb 7.683854996214046 16.243938169303775 3.1238520714627533
Sb 13.199979768145123 9.591415057725857 6.292431989878951
Sb 10.013258299455044 9.528109442214818 4.058461646639304
Sb 12.526235397900097 6.108934286391594 8.126312453449366
Sb 8.676638687071408 7.69767840565328 6.323127994501655
Sb 6.8901727187406605 6.405593910461659 4.4337430484706735
Sb 11.623547616711157 11.725472906253758 5.051950696197364
Sb 4.7798931661385184 5.729833666628489 6.305837295943514
Sb 8.425834057898184 3.669820584125131 6.27882760438487
Sb 11.26341856590349 8.690218019660561 8.259763107080655
Sb 7.061434934258136 14.396492523638505 5.2549935058029895
Sb 6.155701305064049 3.779896996186795 8.015198929575982
Sb 3.734724247920451 12.077599157679867 7.836855607306162
Sb 10.565281249261497 4.417877930922589 9.594080951902667
Sb 2.724590174096342 9.42846932787346 8.471242527405757
Sb 8.142366729976601 5.807280236690694 8.633894477615652
Sb 5.121717284244303 7.746415661506515 8.415812551554739
Sb 8.933692355374811 14.854775214165509 7.440372678745069
Sb 3.3595457429777023 6.572163022718406 10.397739471900499
Sb 3.357421061190218 9.333806227489607 11.275157155874414
Sb 10.190177515956346 1.9935119865767064 7.817347492642304
Sb 6.376984674592974 11.031457613916972 7.478738662542667
Sb 9.971374822392054 12.092631998143506 7.418983038432128
Sb 4.757432048714308 12.942266532784858 10.398950851800096
Sb 12.75930949301545 10.02580835793553 10.33589784178425
Sb 12.037362321021075 4.572190142863031 12.37351573343258
Sb 8.151452326661772 3.0186748692918717 11.210888971898026
Sb 5.936836373428893 10.60898363000694 11.71765169249593
Sb 9.042960921818821 7.235094621927126 11.43151424185381
Sb 7.477612079960186 13.01812731824526 9.265721217702856
Sb 8.077565413397945 0.7284166108802514 9.244068611489496
Sb 8.341317748508434 9.795585060300201 10.089845128906129
Sb 11.834558211010664 12.702512975154425 9.53055965548178
Sb 13.497883768315528 6.715867505770202 11.201421044189715
Sb 5.588218526245024 5.274059456213336 11.684090338603303
Sb 9.902077140031865 0.733332803723076 11.532196007684123
Sb 6.827797056724696 7.278450602260767 13.311687488243718
Sb 10.445672368106758 11.191408431502401 11.587458676599057
Sb 11.471507855131037 7.255434928573935 13.123409684464725
Sb 5.992977289912451 1.5494165636253439 12.52033750097802
Sb 4.845965104484035 3.725381471769908 14.01675925462325
Sb 9.331392570638146 3.5710530410759964 14.059954002675706
Sb 7.167121846369564 5.03516368179221 15.201553184421778
Sb 8.318696313085756 0.8309607002521006 14.060424412080742
