50
Energy = -194.27884739 eV
Sb 3.0027681233853465 3.4800660339880545 13.177883149804247
Sb 4.539249141134377 5.883875530718111 12.58481250025327
Sb 7.4626830163335045 2.780577101597974 13.136570507417455
Sb 2.690397179223017 7.449256651587683 0.6428660662570043
Sb 0.7897215180868493 5.2954473272357605 0.12838913248309664
Sb 8.403363515495716 7.577891562095127 3.067839572916715
Sb 4.852838872796692 10.363316621222477 2.68945806464745
Sb 5.365621859608466 0.9947545301778906 0.5262253710094297
Sb 1.6988726030243844 2.581985642150655 3.7961241938803854
Sb 6.527254228804682 5.129363104727784 1.0172333603644443
Sb 4.51853437285 3.294211285958584 2.135057625429738
Sb 9.092445565435419 1.9522750993750477 1.8381444214308318
Sb 9.082163825541617 5.144398722479227 4.538839634457903
Sb 2.2306086256301922 6.868267631354955 3.4767647458917144
Sb 0.11961900448029934 4.9315383431518045 2.94064350968918
Sb 10.479956699688483 8.993167755216719 4.597863118973277
Sb 2.6897921250238146 10.82457781244955 4.605251138058937
Sb 5.7620890819134996 8.087713274728344 4.16022422558432
Sb 8.429306041639618 11.559718188324346 5.151800010226411
Sb 7.179707364805923 1.989362543749714 4.025324250611646
Sb 4.365057928885145 1.1633559816740333 6.082860876708634
Sb 5.967277739678672 12.733065522795153 4.051188669797289
Sb 7.300515651612224 13.254044560629499 2.3138825246063206
Sb 9.62342428015749 1.0450362319538886 5.324463072584171
Sb 3.3110651562447035 4.642059148429104 5.121552571618206
Sb 0.2586918862071224 2.1952757694175986 6.2551441375020405
Sb 7.4214183755044525 4.518547341962561 6.916172872274026
Sb 4.5545684291188575 11.976191778817793 6.456825348284422
Sb 11.197241650543438 6.488265685538322 5.977188787996495
Sb 5.977598187831941 12.733065522795153 7.490758486050212
Sb 6.525713390704662 9.822888905048071 6.445628842534492
Sb 1.1276258630358869 4.766365960602937 7.097103375885968
Sb 4.7300255436290675 3.4418889667001977 7.797605397721773
Sb 2.4088244956025684 0.6098759738141656 8.187640250469373
Sb 8.701142421517957 0.042679357950018204 7.8560293670484365
Sb 8.484948754005211 12.469577889235515 7.9421567675519995
Sb 4.413979748821659 7.249929927008452 7.350755535928884
Sb 2.0068822481554993 8.52899761019672 6.2694864749176435
Sb 2.073181647882413 3.2367957059535533 9.461949955118675
Sb 9.902390581417318 10.190583152201791 9.034991814202867
Sb 9.603865306839085 2.79341247939011 7.643193080879259
Sb 9.128581640184528 8.180360978457188 7.093294897442287
Sb 3.3466281993936824 9.57478513913311 8.733582352142973
Sb 4.781880586921571 13.444373111708968 10.009400229468367
Sb 7.657279309954266 6.255175433030105 9.225880139326206
Sb 2.7829684021066443 6.901309790072634 9.703072623803482
Sb 7.083840157759928 10.32973079240899 9.399132886058744
Sb 6.24723404627615 2.333216336189322 10.072602874202689
Sb 4.194126179502502 3.677302007601928 11.535244373413798
Sb 5.32643935917623 6.2865428928735065 10.980361530952688
