52
Energy = -203.51527701 eV
Sb 13.742121403237359 6.632590328535151 8.511330687223756
Sb 11.486259511325624 9.749694791894258 7.8039056731399015
Sb 11.128391377449539 7.437521814691367 9.522148568698926
Sb 12.359117951411287 6.290148712828038 5.96389113593345
Sb 13.408737955397488 4.005677229819378 7.404630384602158
Sb 8.889657624683249 10.641427769735847 8.816406655774434
Sb 7.936874401896773 4.316327324089068 10.750016081351367
Sb 6.402266565803532 6.7610611851437366 10.532313152529076
Sb 9.929121679231137 9.58700366619917 5.351078462273177
Sb 9.802926075762972 6.011664406409008 7.391492471266604
Sb 10.720669963649613 3.3913263643583 8.275747557148673
Sb 5.1146189255826755 11.315319963121393 10.184695082266332
Sb 4.280933124022636 9.163345810454068 8.405922086473224
Sb 10.735945719184215 5.329779605339902 3.0404208813972105
Sb 5.745674354055282 3.074388712092346 12.249223437800259
Sb 4.445087343289195 5.671480087829679 12.28214483473185
Sb 7.783230135045477 11.943756382511063 6.48567727887393
Sb 9.984741017642214 2.1961155983472853 5.709335683811388
Sb 5.003409159538588 1.7509471590167927 9.740073753550174
Sb 7.456857232601875 9.077529303608527 6.83754171392189
Sb 6.722337400698418 3.5106235198966735 8.23023093354172
Sb 9.25293543972313 4.531612633082028 0.6476081874862462
Sb 10.032747135791004 8.148905543077767 2.882437934541487
Sb 7.87237200731956 1.0120088293068998 7.279475100816459
Sb 5.801799893378137 13.25581338904696 8.191499828902828
Sb 8.451092313497696 4.354986207886509 4.563048689567265
Sb 7.601958712346439 6.9356563698504905 0.670794355863492
Sb 5.172980517188662 1.078836581083345 6.187965074097292
Sb 7.025569582041132 7.5220722864874325 3.405090189134344
Sb 7.973762375245073 2.560213997161331 2.3428393318940732
Sb 3.8871161895074633 10.168545108171783 5.7374883091917885
Sb 2.386482685777713 2.8909316203211888 9.711500795657114
Sb 6.44530933837666 10.078131789311014 2.1379645170464365
Sb 4.602495580423745 13.255813389046956 3.9903706991184094
Sb 2.4454012581283484 12.193253821592457 9.412127907639304
Sb 4.927534447811287 3.7327405537604514 5.109486706118291
Sb 4.831464681820329 6.3672792844023105 7.804575065246832
Sb 2.7687005238683526 5.7209711754708765 9.787062325940939
Sb 4.838153624757018 9.30226032372313 13.728279085482132
Sb 0.9135890687394951 2.7378390890254756 7.208047130023082
Sb 3.334159734396418 12.815015707522479 6.711165194862238
Sb 1.5158456909351836 9.418800260544371 9.159498031301771
Sb 4.723941081349145 6.423706237744516 0.27343779949665653
Sb 3.5911237676227716 9.640690705166213 2.392823406201869
Sb 5.265823644124687 3.5355636895332436 2.25503674792728
Sb 2.0432909760938984 0.6102364667727669 3.5816596463930788
Sb 1.1536851553002228 9.266523445545907 6.298341989389089
Sb 3.9429322201702375 6.798479359994885 3.007686559375604
Sb 4.143304661263411 0.9510734152518615 1.6543757457020005
Sb 0.2787659389215407 5.475235327260667 7.940384555583812
Sb 2.1055140517255886 6.515053969024009 6.077295150982925
Sb 2.130546276215686 3.3495910504923794 4.628785619305181
