52
Energy = -201.89145458 eV
Sb 4.5941903376041475 0.9407516110725916 10.139722604832695
Sb 13.412501211924228 8.293449981725031 6.261124614300479
Sb 6.009350774395843 6.32983060807914 11.375932496979134
Sb 4.276485323976109 3.73072679536093 9.511830631059594
Sb 1.6844263781100488 3.773051438716416 8.252181368575583
Sb 1.9947160022641308 9.523366284203053 7.064425781218851
Sb 5.3680691976325345 6.943405581183952 8.62012813317938
Sb 5.091749670527032 8.702226045042881 12.775673780263597
Sb 6.4628336596588545 0.7234463832047858 7.8769400895016775
Sb 2.156497230489994 2.345425151364357 5.819539419587556
Sb 7.104466796358502 2.1839414937155324 11.031196542793786
Sb 0.10305685083702598 5.740113429561483 5.069743846117073
Sb 3.980197452995473 10.190188025969489 10.576423553744522
Sb 7.589974087459137 3.365951898845805 13.623721546716425
Sb 2.7454973453879683 7.879057275714515 9.350274325624094
Sb 3.900801626631112 5.4665354350241095 2.3592447054409207
Sb 8.512899694284641 4.423570060703982 9.502840803593637
Sb 9.929580510822651 4.0511096299128875 12.12387659606855
Sb 3.3128299632481863 8.572310151661986 4.684150172254386
Sb 6.101373934003573 11.674196521776969 3.1943592621772092
Sb 7.718974960235493 8.710124104270934 11.547499477790664
Sb 2.7727620544662424 5.148060168667083 5.957534970597863
Sb 10.077196067312826 2.5308251035603155 8.02810853214145
Sb 6.454842974344917 9.620190041454581 9.094736363440386
Sb 9.3324346586469 1.2856449565001415 12.6465020938602
Sb 4.99343076884096 1.4957281375777902 5.500025184150462
Sb 0.6322414941009328 8.165364472653629 3.6010941809523027
Sb 6.116638865484224 3.571284693550569 7.212294285437539
Sb 3.5060421200312013 12.83368915320441 6.238108381974847
Sb 11.965973130343379 4.66328082823775 8.601897190509181
Sb 9.798084694843766 9.699502469154638 8.395227811827532
Sb 8.202875316243356 1.5225384727011584 4.680932585426018
Sb 9.952592408194041 6.808071487619629 7.752863609845987
Sb 6.651732415954934 10.080690621997798 5.5785770867853195
Sb 4.555041229260143 2.682223195636314 2.214391743253959
Sb 12.38004665147949 8.348593181152008 8.00695432112481
Sb 6.213014219069044 12.448956317137334 7.139051592399291
Sb 3.2979964225859315 11.334147593197333 3.768204994324398
Sb 8.450391113940519 5.189958658646474 2.1022546340962642
Sb 7.410458336905604 2.522072737939775 2.1124163825953817
Sb 9.129491793004876 3.989822608230139 5.708199809228258
Sb 12.194942183808536 4.675693298828319 5.793801469958825
Sb 5.736909095986273 14.08836541460683 4.777187367370604
Sb 9.53346350926371 10.355293637894128 5.599334545518815
Sb 8.005980030331372 9.555417368345285 0.889848532278669
Sb 9.873668990070122 7.708961065362894 4.4335056992261945
Sb 4.416622716148603 4.317443714573341 13.737776712715858
Sb 12.639829614215085 7.5564800276370265 5.246634339842477
Sb 6.897618102735943 6.0447405176683295 13.747658347275449
Sb 6.3629934875989695 7.162183778991461 2.455400067106485
Sb 10.604946982833155 9.265016719296405 2.046332248979794
Sb 9.750006308926684 7.799006317821666 13.623721546716423
