51
Energy = -199.20080058 eV
Sb 0.1010963887205845 2.36935109271313 12.127001004192342
Sb 2.6833459959671684 4.894449117090977 0.29938304942063343
Sb 5.686599142900861 8.163493011251292 0.8750306186789005
Sb 13.461907108317833 4.810873329831507 0.0031152589920270353
Sb 7.850265443971703 4.791516300375241 1.4797194946796486
Sb 9.308721223036741 8.737315140172766 2.9284027925609553
Sb 5.718556544829529 2.7709462909096354 1.2783492465030004
Sb 7.031341544638174 10.35547246357939 2.1906999899217703
Sb 2.3227882908621704 2.001459847022216 0.30374965982401014
Sb 9.826689035383767 2.6895876946351476 1.9880624649439869
Sb 13.24031968496549 2.219492098902928 1.245860377941421
Sb 3.5316528857699994 9.982646441546388 1.4417139339810545
Sb 2.7345821115501363 5.835424452961623 3.0400399604611694
Sb 1.4283254570171253 8.028080138746931 1.700490056100067
Sb 10.763271913972936 5.678874075555564 3.9396887645907657
Sb 9.527145730408959 9.585579920195231 5.678523064929857
Sb 10.33824480388737 2.923047827904488 4.815789179426767
Sb 0.8803077632507885 8.345932603569109 4.733850576282948
Sb 7.7052739571899895 0.6851821124077957 1.9404788922526643
Sb 7.5171256135624285 3.2828729846096896 5.375604798551102
Sb 0.009716744090596963 5.675440380024726 4.098841838417219
Sb 4.514749149445613 1.0177391073891078 3.2374336011607374
Sb 5.827948466431833 11.119029221776614 6.621929387162594
Sb 5.051106248234428 8.820678921137405 3.5997446505311177
Sb 2.5635348453264992 2.0745166386758154 5.120390465882496
Sb 13.2089211647505 8.2263152037669 7.475529048578207
Sb 7.959521233459711 6.343679475160532 3.916388040400313
Sb 7.071713008985293 8.483434331549757 6.877864903264695
Sb 6.902490503706284 0.547784826211783 4.784871855556908
Sb 7.744614039947801 3.416447178847682 8.296992437772762
Sb 4.341080234378788 3.8964178149854507 6.466186347851134
Sb 4.2331431968678785 1.1318351031793226 7.296390829966577
Sb 11.72002799159625 4.1114740489873425 8.691206332241505
Sb 3.0089617220158056 11.170652129524514 7.3429721695844
Sb 2.6139411282506506 3.1496011826953643 8.671894701043746
Sb 5.822566812236804 6.158693220996916 9.294018361853396
Sb 11.460897529649099 7.433702962312441 6.186507541050727
Sb 0.6530076690404829 5.561885359755008 7.008368670849271
Sb 10.080121022137817 1.7388220160252752 8.406075040777697
Sb 2.1832846974256754 8.701767792667114 8.599975487506214
Sb 5.016859863668545 11.457986209151489 9.367888614226413
Sb 9.662514396600498 5.990962072836255 7.9185654292831815
Sb 6.274543270640839 2.0258381628003903 10.382873803253524
Sb 4.3426859659666075 4.1388367698296396 10.820681407424182
Sb 3.0382678912838497 7.0833260868521055 6.360084436889288
Sb 5.493948760287065 8.844180353280898 10.659966399413683
Sb 10.737714189263773 2.701488929809755 11.032346472768047
Sb 8.020879138815145 9.557894104934533 9.4214935944785
Sb 8.148259225537723 3.3873265828249277 12.127001004192346
Sb 7.564892604437457 6.20232010796723 11.591392090569677
Sb 9.835409807535067 7.451775309207093 10.37583193864962
