51
Energy = -184.86251292 eV
Sb 9.725769476058485 8.889952241582817 1.4203257681157588
Sb 12.730225964997029 5.381806873341076 4.4408707010959345
Sb 9.8241912304337 6.010799932677234 2.8678389213377367
Sb 11.77207555553196 8.482587105232755 3.8915723975315344
Sb 10.38572465118756 3.375588521006653 4.269925501564303
Sb 7.043665155903377 7.313785433425228 2.1155506257874768
Sb 7.058983037070412 10.42525139019315 2.3134206131695016
Sb 4.28070133215826 9.255106843001945 2.0766718821276204
Sb 10.163386280813947 11.152270792764101 3.45881539516223
Sb 13.112540487335705 4.476642443822866 7.160433854808296
Sb 7.182659118486588 4.166312806794889 2.773636992717155
Sb 8.772365333088084 8.591062735970086 4.9995593555194295
Sb 12.438251958410158 7.522757104034454 6.984836726831262
Sb 9.925972464350595 5.979257893342985 6.157100210114533
Sb 4.42790248218721 5.786531281937531 2.7911687831713268
Sb 3.2367797839911536 10.913863944032826 4.535797496008523
Sb 7.760201370561268 3.1381429218141452 5.9389093230689465
Sb 10.50796836292601 3.117352696278227 7.488917536134245
Sb 5.461026860661213 9.107186784772352 5.024154775972042
Sb 10.809079432654034 10.190999828196631 6.478676671718891
Sb 7.601657761376038 11.580399233925556 5.210233821983244
Sb 2.1578281700268653 7.925490148920763 4.0434082129834605
Sb 6.644926061303211 5.951618356083833 5.422374879462742
Sb 11.083570445646517 5.418994493417043 9.407731437952132
Sb 4.86751780944428 2.8789596717825674 4.166837158522888
Sb 9.576033050763247 8.252242190980349 8.56582924955021
Sb 4.558835222403042 3.9028611630726906 7.019493778781271
Sb 6.671018236887205 8.537912750642436 7.812738348571516
Sb 7.827006147861848 5.374676881794183 8.36274548689827
Sb 2.3861640427307025 4.613559466687414 4.814574191665666
Sb 1.8464363857684705 9.537081485971697 6.996161122051109
Sb 8.4516791535083 11.089178779449135 8.130176696285996
Sb 7.905498345618682 1.295243880559149 8.527367722321628
Sb 4.998625909685473 11.206280144749066 6.979546671676552
Sb 5.3662856925375815 1.1051553977273454 6.829958738255185
Sb 3.6399510840606877 7.299685757507331 6.414970450947836
Sb 8.879416424598217 6.658242108324076 11.38512913606657
Sb 5.097298432274769 6.217075860770271 9.649916801568532
Sb 8.708438331680252 9.838547321185867 11.050544510890058
Sb 6.040537971072507 11.126541587684347 10.254934283790854
Sb 8.911160885626462 3.557294831103105 10.7079430806841
Sb 3.124356002842342 1.600602370091104 8.645708135056141
Sb 5.747033252960489 2.929786284376541 9.903634532362497
Sb 0.31749498663907366 6.741998143629023 6.216107312092335
Sb 3.6032984828305112 9.232494129629728 9.303557240833513
Sb 1.461766756178135 4.150714204430431 7.672284873422867
Sb 6.068285838201821 8.291295905965205 11.494835171827676
Sb 2.9765219097056357 4.182224956690274 10.54388254337652
Sb 6.420512043513651 5.067084029062699 12.046837820562931
Sb 3.3043558892093414 6.916123556888392 11.993729485780703
Sb 1.6630024515570472 6.8115149508752975 9.116407273714724
