54
Energy = -210.59037925 eV
Sb 9.717986459937098 9.513204498520592 2.608268306341421
Sb 6.862631803961395 4.556187628069039 4.836671191922726
Sb 8.396528905821336 6.387516217741149 3.040493275334537
Sb 11.109172063787462 5.99290869790522 3.9843849971886462
Sb 11.06583861840869 11.259871059760105 4.492196657535846
Sb 6.9371558285351265 10.294558029129474 2.405840095024379
Sb 13.877831113333162 10.665463445318558 4.137921355957561
Sb 4.566513013090488 6.301359394000074 4.926320929766911
Sb 10.436386197076292 3.9759352876320184 6.012065703621739
Sb 6.131263654969989 8.72124353152079 4.704992694091766
Sb 8.28503138380436 5.611381249308854 7.059620643807504
Sb 7.867924503882077 11.208974962042067 6.3978546819880675
Sb 14.885377145123087 12.597468936329989 5.951430513188187
Sb 10.80066982432751 14.072636811424294 5.270166815542522
Sb 6.13050964432443 12.336850102576458 4.366431219088286
Sb 13.58610145721388 8.734145990196339 6.668843707057099
Sb 11.154069575422822 10.226105048344916 7.200009384181396
Sb 3.2982413097341574 5.077958358978598 8.796960209725851
Sb 3.908632043003144 10.516695169373229 4.774348154078895
Sb 8.539600841713526 13.968251278362477 7.090622427438608
Sb 12.43698220771329 12.98140775363192 7.375217629369871
Sb 15.33935893964351 10.520283052519666 8.060675854291373
Sb 5.842409821359427 3.6544225229383294 8.949190889191714
Sb 9.40500722275582 7.928388967954448 5.282872155766974
Sb 5.033344854038026 7.19901426647468 7.6637285888674755
Sb 11.387153571563779 5.343975297555835 8.374572243782694
Sb 3.635216886338502 9.82891905382694 7.627636085651477
Sb 6.182647192293235 10.70144442211967 8.70197853539382
Sb 10.040230079892314 14.103193551544035 9.583539971783868
Sb 7.1619176672004325 5.792409334159755 10.41384822517004
Sb 10.92557265750375 3.272303456191713 10.3410821093586
Sb 13.932106512403864 11.637625986477085 10.409670174716183
Sb 11.031349541814214 11.48034170254503 10.308749217845714
Sb 5.840408378933574 8.939721183782575 11.462617838693399
Sb 8.840219119911865 8.497228569667888 11.164971084852196
Sb 14.100648420366701 4.823155502815952 9.315072443317243
Sb 14.481726529418356 7.676864275375695 9.593242149467947
Sb 2.915954193595085 5.701074133815724 11.595629520286057
Sb 6.055461470181673 2.5315180893960982 11.621575269356473
Sb 5.497290044293478 13.14011150947419 10.12135807014092
Sb 7.91652451206474 13.667297399163745 11.55977611040187
Sb 8.63969186900769 3.9252622853830563 12.041172993907743
Sb 8.59034703347241 10.898553257716795 12.889279670710796
Sb 12.71408284869156 4.990802060585987 11.845952938981688
Sb 2.9777469324808195 8.510998208917188 10.928691221241683
Sb 11.969356016755485 7.7374072757548635 10.90458306275292
Sb 13.26474225911517 9.733265174496537 12.61128186498166
Sb 5.515044754830416 5.176974562323858 12.791882285184727
Sb 11.341272350220176 11.85127219250444 13.153511413255755
Sb 5.261522184563172 11.565747869705698 12.591944114593849
Sb 7.662050727598916 9.256424044182031 15.264747302028265
Sb 5.167855075467156 8.241796193214412 14.193663735121117
Sb 9.038502333138739 7.288242082311667 13.731555686356263
Sb 2.915704995135832 10.000753656171423 13.416201171527721
