53
Energy = -206.42817626 eV
Sb 4.897767651344085 7.536124063745564 11.335384207095384
Sb 4.383454981932743 5.0111389143884955 9.989762690002058
Sb 8.193605763779647 5.316196279597635 11.370031986295377
Sb 3.648363857921465 1.406433094445273 9.560417246314312
Sb 9.184643308662709 8.99343955447103 9.599676782849823
Sb 2.6515207190826446 8.323292460546911 9.695055052481935
Sb 9.25349603227919 2.7858788417228317 10.406108387787832
Sb 3.185952972848688 10.900478234764115 8.460733308800052
Sb 3.515791267273356 6.511974157328241 7.595829753476382
Sb 11.452275564979468 3.6203841674734307 8.849659715461048
Sb 6.683099269172706 6.611760264997751 9.242956421904534
Sb 8.181483584453916 11.61728616160245 10.401962318353764
Sb 10.62349627199167 6.823193388477156 10.863489468204895
Sb 11.668163210419717 10.159636176429549 8.730986569479148
Sb 1.856142795083614 0.39586306659122583 7.553932102352315
Sb 5.19254295577381 2.837904342584043 7.4456924358671035
Sb 0.1436565234617117 7.33765089810735 4.452586995139977
Sb 0.09924407675428251 3.62842469446065 6.127236963696065
Sb 10.040722868317953 6.010149481996757 8.10670386289725
Sb 1.1758971331906654 10.15706997501364 6.51336997170477
Sb 8.337718721480162 9.290747573666668 6.403875679175119
Sb 0.6792115601960189 6.3091693376120155 7.101819205251754
Sb 3.958117691917455 9.564815765628827 6.03065821365887
Sb 4.162398342087441 12.712637376272747 8.254723822986216
Sb 7.496291686552199 1.2451745518326065 8.184980003572232
Sb 7.7673717073286435 11.955518823466246 7.551295980108834
Sb 10.276380485916146 12.712637376272747 8.743329882636123
Sb 13.382037608414638 4.658138770484357 3.4724624945395988
Sb 5.850199339195115 7.880607244286211 3.7868517289481813
Sb 3.670021391178418 5.357850362494433 4.029501856927909
Sb 2.761389972297139 11.923435218050079 4.875706513930279
Sb 9.789286123616218 2.327028687672383 6.723041482374258
Sb 4.230149038700154 0.5932599739371353 5.88451039232195
Sb 10.616261890862422 13.555538126861912 5.880896114955227
Sb 7.545328610464812 5.95609686138394 5.573636274552116
Sb 9.361786121419382 1.380231373554925 3.8982097605812056
Sb 11.908392129341474 6.949418264681799 6.071421120512661
Sb 6.0472954367651734 3.7000651677761947 4.38447417703292
Sb 2.136841524743339 11.057628312102308 2.1836753607727033
Sb 1.9201328703982845 3.063113746915972 3.9909571709991365
Sb 1.4466851217870365 8.25258934893297 1.977568583007497
Sb 7.758256073963261 13.552512272062973 5.4885770491732435
Sb 11.14232519370885 9.71093547774689 5.928171635186389
Sb 7.726652484465932 10.059769396166688 3.662266357784868
Sb 3.230920458141065 5.305049164494899 1.1634255382482248
Sb 7.347411191275028 6.279267056472864 1.895013664989663
Sb 10.016769392379624 5.966791340454523 4.038030173077332
Sb 3.99732860600542 2.5329592454907575 0.5972020245232844
Sb 4.146653514940412 9.069229338503392 1.5526608695634985
Sb 6.601845814622606 2.4487700729263655 1.7725839740727793
Sb 9.54602856264837 8.259962255725586 2.313897809015313
Sb 6.26063808991382 3.6696048515965005 13.01829416160271
Sb 5.452784316573114 6.449999199256842 13.52930473964244
