52
Energy = -202.2607076 eV
Sb 13.64518180696923 3.4051274161598415 9.025907038018415
Sb 12.447187285766173 6.264652860045269 6.870581478294874
Sb 12.201366785983282 3.4345977548385704 6.453336366386822
Sb 12.355704152688476 5.919288255469245 9.757404792076821
Sb 10.379950238897106 7.9292408390937945 5.6711062049995
Sb 10.680209532338777 3.879815181987143 3.3111492625811416
Sb 11.110411065587574 3.3602762046445434 10.385466154522529
Sb 10.399079606453169 6.751310519514358 2.9774032764355707
Sb 9.195883077295647 0.8621531250566242 6.496484533472251
Sb 9.384437520408369 8.036135130400945 9.723058244540837
Sb 8.941608178655144 10.115756150824758 3.018283538060893
Sb 9.344595222295878 8.87506937648865 0.08252153453896979
Sb 8.328597349823855 3.108193747473323 4.856714853034458
Sb 9.660606447003868 3.419549941077794 7.861293939415472
Sb 8.850500424026409 8.756264712089315 12.484334213427855
Sb 6.677863591762636 2.4866864077889606 9.257393717048181
Sb 8.488383666877821 2.493550296894352 2.0312200020161706
Sb 7.543987936320044 7.473705148011051 6.094664684942814
Sb 7.3866236646028804 10.299192819230766 5.6009439659379225
Sb 6.959341513715804 6.526480614508405 12.754023985124455
Sb 7.096486214836852 7.158049778180131 0.10072603515924304
Sb 7.731406087616512 11.219177850577715 0.6667066637650156
Sb 8.281287941243676 5.427118396951811 10.429707511187612
Sb 7.551851744558391 7.492271192687468 3.058370013031615
Sb 7.383067553481267 10.050778529086937 10.299342589631566
Sb 6.534160486802444 0.22226736264622454 7.427007579193723
Sb 4.213631467209567 8.32027756775668 7.4410980275818615
Sb 5.506744896538321 9.534735863126363 15.82189106602373
Sb 5.606957521055003 6.408979627811959 9.867780660104108
Sb 5.164433626095053 8.812439858080559 11.654570424818054
Sb 5.243522163223286 4.223744013614152 7.3478299858962455
Sb 4.260585403478929 2.0566415095767496 10.780690142125191
Sb 4.682970288381268 11.046666208557985 8.37875400922422
Sb 3.9306444014070654 5.383266846312608 1.2234641993736328
Sb 4.936791193435125 1.8339766971798683 3.257669873905262
Sb 4.994038013381144 11.168711527178786 4.216467180248584
Sb 6.275134297261626 4.322861392137332 2.718209794460913
Sb 2.048475287600822 5.888651689269665 6.321403361931302
Sb 3.701929926026733 4.809975578252964 11.383072979965506
Sb 4.416202644901066 1.7256786776769366 6.087960352109974
Sb 2.890382400157216 10.563085084762083 6.125837560304134
Sb 2.4931690854727044 3.0990997622270178 2.2639467001355777
Sb 3.726899209432921 9.495968169486211 2.2346776220707256
Sb 2.8710924919612975 9.323724862704985 9.794629887540696
Sb 2.80018804066894 3.6993044499287318 8.850005659079228
Sb 1.277574720658366 8.058999675251764 4.569560526151527
Sb 0.895823576081263 3.8970257925176774 4.52931960451855
Sb 4.1885598094886225 7.000775590447572 3.5532135365261235
Sb 15.326608322722025 6.064484575368103 7.67519872938998
Sb 14.867811748941271 8.633094031843143 6.538384593923343
Sb 15.539752866394553 6.0692275934316084 3.134326614636342
Sb 13.64518180696923 6.323829754405448 5.343672429067798
