53
Energy = -205.25368475 eV
Sb 9.603200578724223 9.25667732525467 11.743717400319941
Sb 10.384976439545522 6.515259262906981 11.52845408603952
Sb 7.5201142674241295 8.869944164470269 9.678140975002343
Sb 8.100039137017621 4.811378385180395 11.979744279114177
Sb 5.731713182985554 6.208322429442043 10.836944172389597
Sb 4.570864414307331 3.5652481023131326 10.664804184138879
Sb 11.14447873455039 9.48068348091871 9.300672694763719
Sb 12.445654080713386 5.707534287760957 7.551605772243822
Sb 8.88678655394343 11.063601538524667 8.497216317619324
Sb 4.916090166811383 10.040063374683935 9.52467840711969
Sb 9.93754386193338 6.767674809793541 8.584323687784398
Sb 8.696056470965571 4.017795342089711 9.253720094465463
Sb 1.9636753462430325 3.8906791315595846 9.280337390918568
Sb 6.253350661308238 1.0410533157196886 7.483648328482413
Sb 9.774313445113886 1.368366286662496 7.67517044119375
Sb 11.838064751056418 3.0747944372084843 6.532700146295675
Sb 7.093073932372874 13.76094555636359 5.209785029892486
Sb 1.7846456465910279 6.854986398634276 9.512126144638414
Sb 2.700631692303131 3.2987089957528366 6.4524839660141895
Sb 6.0090499320488275 4.539327730074941 8.381838212679908
Sb 3.2905409097573917 9.70668801790756 6.158855351741786
Sb 12.575778828893549 6.173420299850685 4.682448222286706
Sb 5.585279215751911 11.310251288649484 6.808522186060689
Sb 8.083692533511877 10.012448004232915 5.888045665757395
Sb 9.087797304311335 3.7100492626320034 6.0165322709503535
Sb 4.23360138141694 7.625012366277973 8.147798057102866
Sb 9.945830028483927 14.31934137534798 5.052396933083611
Sb 2.364662443700896 11.592606375278972 3.8218594749910615
Sb 3.73252430255789 0.5460126462794836 6.115165082300208
Sb 7.6042802191836865 7.249259117636204 6.5260341268223945
Sb 1.501594222815863 6.305500165782958 5.69980149775663
Sb 10.06652409867683 5.553968763718153 1.7920066977177722
Sb 5.062649931480208 12.143373660326898 3.5903216635064563
Sb 11.904627458291447 3.776286127407887 3.1203757080360726
Sb 5.879679553413645 1.994331004053265 4.798463536955242
Sb 10.669925989613525 7.926858190055123 3.3382745111509875
Sb 14.13604819860025 7.723426401320132 7.552912091550626
Sb 4.978358194296494 5.535175794823136 1.6921058965697462
Sb 13.87858723310124 4.873985802639965 7.389543515116233
Sb 6.2730370631363 9.605168180057706 2.9183060726421726
Sb 0.42511583144357246 1.9769275460863247 5.115185631682344
Sb 4.307841425685571 7.889217463523387 4.166693652602377
Sb 9.351376425702751 2.3321149126068224 3.490280733262304
Sb 8.079036024301926 6.7460436436732545 3.6275101314817784
Sb 14.174352790399944 5.73606071515532 3.3675182726973953
Sb 5.6319444367464255 8.405629805137474 0.3720696677396395
Sb 2.0007056515649704 8.945071317782533 2.7687227890629953
Sb 3.651414103099233 2.8663034247833763 1.994935990243376
Sb 3.9578902821994375 4.122061295200649 13.743904613268722
Sb 12.575778828893553 3.89923564354088 5.015348238829512
Sb 0.8069602364409051 3.146846188707554 2.481833057773191
Sb 2.8655923532759444 8.896610650087045 0.010504232127778332
Sb 2.316194703294873 6.077223031607238 0.7297664916048286
