5
Energy = -16.8423449 eV
Sb 9.191153026347909 5.669893567897791 7.175386324952008
Sb 7.161487550114349 5.092067757929946 8.78850755410673
Sb 6.873042868585445 7.395258647179487 7.074499034328343
Sb 3.8353123763637806 8.19911162672423 4.552538280253177
Sb 5.4390041785887275 6.1436684002686315 4.909068806359692
