54
Energy = -209.45868263 eV
Sb 6.484254156702201 11.699711464424555 1.5072119029708912
Sb 3.6619566287296257 8.468245782924217 1.6682697350825588
Sb 10.812160610761174 11.074342844528038 1.823302468113239
Sb 5.910492725141837 9.437901656446577 3.1261937020799477
Sb 12.081320325437225 8.492291068790696 2.398473506466202
Sb 8.685605675008128 12.41788876662437 3.2258172233765334
Sb 10.478056481420538 6.162745480072433 2.989748279191228
Sb 12.531329336594588 12.108228272446208 3.9344318553025306
Sb 4.5057824019807615 12.618776393143849 3.4311226838451785
Sb 8.375653242268898 8.011592905438125 3.7953453093317404
Sb 2.4657477310618026 10.655233539496129 2.816035779104301
Sb 3.8691285580690105 6.876838999499318 4.665994087339034
Sb 13.38471105726075 9.532949968635595 4.7381940321541345
Sb 10.101415165361502 5.863625345502329 5.875664763112612
Sb 6.672870158130788 6.394095570222904 5.470496359739491
Sb 10.698995130005493 11.879314201203796 6.345391702863175
Sb 10.49572541635858 2.986931344266296 6.150729191074787
Sb 12.114788781858806 6.803690255989268 7.794234919735029
Sb 8.101023806477032 10.742301378255918 5.496685065398393
Sb 5.791524910506372 12.406790009084569 6.165649662490832
Sb 2.5457203373305832 6.446395019725139 7.218638465562811
Sb 12.279911447593065 9.750191417380142 7.635559082162847
Sb 2.6937167088008724 9.077048445372366 5.951767218809745
Sb 12.62751167490807 3.406100777628028 8.101734709787712
Sb 7.8971830843372075 11.981909401968428 9.193113414198868
Sb 9.842499513885594 13.819266442010951 8.387561614359376
Sb 6.719945308975995 8.143406325683173 7.77002018989029
Sb 9.881727394708893 3.465168064265522 8.919244202979002
Sb 9.831831016294839 6.326185749485365 9.508901626779132
Sb 4.700073582864491 10.209210138673184 7.678032727825492
Sb 10.169418365943862 9.84941360911821 9.808623923334457
Sb 12.725358114617885 8.657004957134044 11.102690100209522
Sb 4.789761761648619 6.385876982758989 9.046687236639924
Sb 6.3631893652678055 9.163407137481132 11.2735043987187
Sb 11.388353099817063 12.366217682791964 10.588396780061005
Sb 13.642250858478988 11.069832276185474 12.202224487168257
Sb 3.4576788540683205 8.442487236049043 10.566064414842202
Sb 14.884702139717556 2.582181284743976 11.096721682541567
Sb 9.89550741620353 13.032397865199364 12.986634867497502
Sb 12.550213150838319 1.2727981143819338 10.081172694181582
Sb 7.352119050915815 13.454078835239347 11.667784648293194
Sb 14.026388780458282 5.282720116399109 11.72413702821936
Sb 10.98280814342462 2.474806246280424 12.234742998584563
Sb 11.177178605117975 5.345602218927769 11.984889610806858
Sb 2.80049769383686 4.632311375617696 12.709159112281037
Sb 3.757917288691818 7.294099629582238 13.259450187988097
Sb 6.740800473776831 7.598312854879891 13.640082734423943
Sb 1.1532803152501268 6.283846594157259 11.066615986597798
Sb 12.041704089351951 9.303801331713832 13.84690921752406
Sb 5.70409669345517 11.419417095105532 12.964825408822332
Sb 9.418308176480307 10.218613236231294 12.975053276610295
Sb 13.531501767303421 3.0859717010270864 13.58359886701929
Sb 7.3331005429360046 10.114065959397673 14.986671515518427
Sb 0.8985275847551981 6.439683331598958 13.847118042178689
