54
Energy = -211.40167786 eV
Sb 7.191208524172316 11.9054277521061 3.487267194923449
Sb 11.185301066728996 8.70143652953241 3.80272879323388
Sb 5.794183313607298 10.127358713445389 1.6056029255661464
Sb 9.686932073918651 11.032227440105164 5.0136202208483756
Sb 11.167670649107883 12.836712310923675 3.034672469783481
Sb 9.60031282644726 6.717232184897905 5.095832810516092
Sb 7.500950519882221 6.142222551949284 3.183208760628238
Sb 5.223533759695911 12.820159313253866 5.362469722752781
Sb 8.748045802803015 14.390547964508816 3.057149013200147
Sb 6.336344368423191 8.637407311411245 4.059712168165865
Sb 12.501816400418734 8.977955540660714 6.385701056032524
Sb 3.6580325586541886 9.02073316710376 3.1573909664832502
Sb 6.3763705026492055 4.312979338791846 5.156402532793957
Sb 3.0123479029372198 10.994553008815753 5.169487159830711
Sb 10.901150162152733 4.188458586549919 4.699609739913667
Sb 15.194353954519132 8.977363179264302 7.645904197215868
Sb 11.88070503512701 14.079676746235496 5.513555273650659
Sb 11.545438099127443 11.715798133332504 7.29979121104646
Sb 9.64368500893093 3.085806634126219 7.159061266396822
Sb 11.29112591594624 7.065763233509122 8.253231910680459
Sb 3.934769531692794 5.804872934252483 5.59757037279694
Sb 14.217601705650138 11.45238368920073 8.727917237185455
Sb 6.76345210464692 11.979289305223924 7.6764347050368125
Sb 7.928368559208139 9.448201274984012 6.974607530776635
Sb 7.711538294453463 5.216971828656688 7.567147401664719
Sb 9.016204003131094 14.180829188163267 5.915155087808964
Sb 12.179344626200784 4.459455372074271 7.3027808271899985
Sb 10.097170848603525 5.788154240785957 11.280727344776498
Sb 3.4771877534366364 5.207573007155766 8.36941083281265
Sb 10.775133984694822 3.1787168025814756 10.435205841934303
Sb 5.78719346518488 3.6015788861888103 9.033252175935903
Sb 14.05887972522506 6.866766644213032 9.30583892343097
Sb 5.082294603295352 7.537141947031099 7.601288757429545
Sb 6.616223461355365 5.453521672625515 11.11159165031769
Sb 4.431643775162858 11.237747897864676 9.275005370171034
Sb 2.911603846705564 9.414041889708116 7.613094179375417
Sb 9.23395229160164 12.531668349805937 10.243710695993876
Sb 9.369957922204037 9.699479943981858 9.491531625853273
Sb 6.769541845574093 12.182328525895551 11.858892690599998
Sb 12.40593786750682 10.157505457227604 10.506984193663385
Sb 6.240055536534938 9.524125893223548 10.80480419301276
Sb 7.079515144976644 3.3206948705127908 12.974173331003973
Sb 4.422715552497928 5.997028204143003 12.997489257302522
Sb 9.975107195104139 3.588411226057567 13.170360647898828
Sb 12.289475643033972 6.39933323798536 13.130992186480785
Sb 14.097929810752955 8.26341357119938 11.855458852089807
Sb 4.449900675029567 8.935479378939766 13.039002126648217
Sb 11.409275937105205 12.207569848544054 12.25724238560083
Sb 6.415100706407764 5.284391379254062 15.013429044743074
Sb 7.920188437617672 11.490742813049517 14.412864194550329
Sb 8.092848536082617 7.264573918533593 13.737212682637217
Sb 6.39334728820363 9.136416522309352 15.151678342389426
Sb 9.804288451639465 9.916727320898591 12.946449484229385
Sb 10.682206372630452 8.022507265605425 14.957760381394996
