54
Energy = -210.39112206 eV
Sb 4.148208984223299 6.49919672916182 2.726688030042996
Sb 8.108400654358281 5.738901669803772 3.1612915957790944
Sb 6.556598481452197 8.098035439519883 2.5510283168992456
Sb 11.315778540078508 8.661027246266844 2.532569275219669
Sb 9.144556838987233 10.40764168862971 3.325873461204449
Sb 10.834270875196568 6.290209329082839 4.055326482319887
Sb 4.638073326558067 4.25152933895312 4.509572981680815
Sb 3.4061472687367624 8.108484064700264 5.022387612027984
Sb 6.6334957432897275 12.391138402151991 4.660153226131388
Sb 7.233489989937693 4.759111917203791 5.7163892349623815
Sb 9.20092614056652 13.659444561121424 5.319991586264181
Sb 6.294836267221195 6.923824572817002 7.49359107004747
Sb 5.014023859686133 13.674889211911081 6.676181828075379
Sb 12.923128514500883 10.201304544531558 4.407286524656945
Sb 7.041545357547341 9.400040806876554 5.118421383211981
Sb 10.451904051797145 11.086835430104376 5.768569556775928
Sb 4.295050487628188 10.955893856866975 7.346934255471569
Sb 0.8122135774496226 6.945392586921414 5.3762183490462006
Sb 3.1222687273429575 5.68360426862655 6.596145636238863
Sb 11.237685214437242 5.0730583368483675 7.655698925946431
Sb 1.3269007386522835 11.03570118491635 7.292346459108493
Sb 13.747595643802713 5.9739112269330725 6.399311229581878
Sb 12.803431920242545 8.643843537224534 6.848761119032832
Sb 10.11148323035185 11.86823484162251 9.44003403177504
Sb 8.442945580353827 7.56798813885317 9.449737220399935
Sb 0.6577384374803247 8.332313951005085 7.9416607555951195
Sb 9.363252966307092 14.325844398632066 8.119213011976935
Sb 10.118845062519549 7.570683884714888 6.538227612778868
Sb 6.6225375313496455 14.760670043152496 8.854051188255065
Sb 8.212232430051397 4.508560232311766 9.38447411290471
Sb 5.307488028477869 4.60284281288671 9.033703609596438
Sb 11.533948925903987 6.089405552312231 10.379366353722308
Sb 15.228444948281359 6.063401343421174 9.084458484066076
Sb 7.756322215837901 10.390824125060401 8.65392681949041
Sb 3.445503051045661 8.18910985593934 8.952895203204376
Sb 13.676455980785388 4.214044640196404 10.675905967066765
Sb 2.8014180521886005 10.958767656911197 9.807133056530066
Sb 14.35073583896811 8.61491265152801 10.092051394992362
Sb 9.932335844037278 4.012654877000531 11.641721063078881
Sb 11.272328277161009 9.628051540280499 12.172119064150701
Sb 9.327985863037785 13.451485483638121 11.697389732030352
Sb 17.08844725708475 7.722624688557789 10.622044081119341
Sb 6.455653084275793 13.439568616984689 11.446968672875562
Sb 10.396968771821921 11.802877707912895 13.851725888680471
Sb 4.129841807536658 6.275471791800248 11.063362579051665
Sb 6.896205011551686 6.9446200848511275 11.85621025310343
Sb 9.357102105081841 5.807752579215299 13.76164965749776
Sb 5.95458265412904 10.684824488813174 10.830416279790322
Sb 14.455363830355921 5.131900246006145 13.258394161544409
Sb 15.108128768484429 7.868635253317191 12.754404053749719
Sb 9.29312555678707 9.117535310483794 14.19324702843562
Sb 12.087327957865803 6.100480519140239 14.760132803954477
Sb 6.525309476659144 9.376907925351874 13.305201119602883
Sb 12.59957557024749 8.914150126638996 14.61760191896698
