50
Energy = -195.45074797 eV
Sb 5.269530435283191 0.06150413202943981 5.738855924079542
Sb 2.8270346661909618 1.5367949964906584 5.080559365562275
Sb 7.395534164921117 1.5367208798978655 4.329254878082275
Sb 8.605725824209124 5.257545137766623 0.3914827368203192
Sb 2.7627284878034866 2.6652775507472115 0.249915577717379
Sb 5.590543891003765 0.49032458495931974 8.614216037211698
Sb 3.0421888617791475 1.824443533822989 8.585978083003262
Sb 5.064236388167419 9.374089707296697 1.3098065242670323
Sb 4.784153878636965 4.690728367287995 3.1871266789064086
Sb 7.548413595168305 7.810984028068155 1.5379435783297333
Sb 4.307205039068147 7.800687775928922 3.5593204572203145
Sb 11.359576910576374 9.831374579915055 6.493198736397388
Sb 9.029603187425348 1.0207171179094898 6.666373164264447
Sb 1.887946032624161 4.841320712076762 3.705650179006879
Sb 10.355225580926133 3.6186683778609945 6.437107222966697
Sb 9.649771811680496 3.7817911236007045 2.6257144253479345
Sb 7.194376003322593 2.842803258612221 7.948469107050427
Sb 3.924142334227898 3.7836832925301747 6.632933446098336
Sb 1.5845740100933197 5.266504649355422 7.518806895377682
Sb 7.881849739784972 4.424733625573583 4.921435334535154
Sb 4.283359567424045 1.863107106490058 2.598475342803728
Sb 9.750870795281731 3.4558565470104985 9.303057766309943
Sb 6.244794769556897 5.503319654666275 12.406351521089876
Sb 11.049808904152082 6.005969439079183 1.5100727712965298
Sb 2.593277439670162 5.935796562107752 10.150189052572266
Sb 3.7267996276506232 3.3900415954166316 10.900902455992595
Sb 4.533862228427808 7.375920303669522 13.76587189566049
Sb 8.105238046837405 8.002434147532844 4.39016698549931
Sb 8.587651404571124 6.884664098255099 7.6264260233548935
Sb 8.603466827625258 7.111027277294875 12.38299310091702
Sb 1.4203897233928418 5.1258025878025855 0.8624784375258087
Sb 5.3882630474501685 5.3878089753605725 9.625202333964689
Sb 10.09372653678495 6.273321305764021 10.02696257156529
Sb 5.533944999561936 8.975426399906372 9.728796388612254
Sb 11.387165942926167 6.926843891900273 6.772513456724459
Sb 4.253304596214279 5.177205306210049 0.32865061904783016
Sb 5.1206333883837365 8.116967149231543 6.369931242064306
Sb 2.1993060411708463 7.9893838827346375 6.850182156449189
Sb 3.6620826357540155 9.375535421824761 11.912134527955576
Sb 10.980554738422523 8.007319745884669 4.115477030252523
Sb 1.4941308095079093 7.723405666122686 4.035770349133718
Sb 9.051625980417397 9.719665896930739 8.198898222883926
Sb 5.877024573503899 9.910832454867423 13.722132528988645
Sb 7.734323502912481 9.691482005311267 11.476581301816994
Sb 6.768225379647866 11.655236000590794 1.7975612711097242
Sb 4.839738224264055 10.95707369379097 6.1026247089834795
Sb 5.184611350404441 11.717569872144027 8.88671459169514
Sb 9.14974455963614 10.182412464905283 0.9813137737571589
Sb 7.42805101152775 11.818470062943115 7.042839522212205
Sb 8.679809914058753 10.813885839906408 3.779402053711851
