53
Energy = -207.61960643 eV
Sb 10.135640695253734 0.6688896393894003 9.314089149239152
Sb 10.568371873468742 2.9121526828818367 11.100046513553716
Sb 7.284619760165585 0.7418189791740751 9.644594669916522
Sb 11.395076891015435 3.0706715840729073 8.332224586724855
Sb 8.82404568682139 5.8200748908320135 13.213639397817937
Sb 11.027746792001501 8.958609832119318 11.176768921692686
Sb 8.711847920907127 0.10508502820224387 5.74750308396044
Sb 10.890695185293465 4.052737046420296 4.7569277687629175
Sb 10.031982370622957 7.228707333351731 8.863433511017794
Sb 8.286890921740383 2.7862033839358045 4.7741701981620395
Sb 9.708500923125916 11.060512246924333 9.66700589715133
Sb 6.227176073410413 2.6475852369968482 7.774033225910205
Sb 6.213333623581243 4.736604107151347 12.617488220219466
Sb 9.412989147503234 4.781600795634214 7.139335290657324
Sb 5.01882692315522 7.219985057251026 12.038484445305677
Sb 10.130246650897561 9.637251912827882 7.168005415728521
Sb 8.783570384720758 8.716365701828567 12.976423924082727
Sb 6.18897381709923 13.296234890469865 7.111347888132908
Sb 8.367651690834208 4.758894990047597 10.577272464125045
Sb 7.940846295387994 0.5375446660872074 2.9735608455393323
Sb 9.884738587297635 5.586765355028103 2.477319699699648
Sb 7.068710026854781 7.405554532629439 8.726767599847813
Sb 9.448983815911859 8.436694393153118 2.934556544752876
Sb 3.6354068477549175 2.6694332384199146 9.049165570503607
Sb 2.664060690555738 6.760046989128685 10.440700023709677
Sb 9.291753454241675 8.316467142362042 0.049227914489839736
Sb 3.675348113010123 5.40159152650523 8.0797301972067
Sb 5.106065673716702 1.153200794800778 2.9333310379045656
Sb 7.387359017083316 9.50745526656953 10.617352731512675
Sb 4.355047440529065 3.2709006561831333 4.7559584990711805
Sb 6.947878010947784 12.03680788422756 7.1473452349112305
Sb 1.1300688018244136 4.644849186547396 6.890547427057084
Sb 6.491815943778539 8.794588187373094 2.9364012368549464
Sb 6.468622369777309 8.983427808272676 0.03635694537261053
Sb 4.789514924791899 10.709350872587615 11.042431344298356
Sb 6.994291907522412 5.352802328953862 2.5293795469598797
Sb 7.342469597606217 9.283331666611769 6.425860894162861
Sb 3.727275758606876 6.697552057079106 3.4530380060679793
Sb 3.967675170736735 8.896573296419763 9.001139377991777
Sb 7.275994644987358 6.229739112577278 13.213639397817937
Sb 1.0515309416450576 5.65621137323935 4.134682945967056
Sb 4.64694093103812 12.612569374602437 8.82241413076019
Sb 5.835048271725465 3.168652064166151 0.9804229733795882
Sb 2.379311559868577 2.0487547604984284 6.500822600332771
Sb 4.9997043244394686 12.515702673325933 5.053677852904341
Sb 6.375866807220081 11.670875752472293 2.6607963980047904
Sb 3.818979868445336 11.279971737111197 1.3258456645334165
Sb 2.4239390072635483 11.044096928371943 7.77332261124637
Sb 2.547009028243682 8.677791142642635 1.627537400341703
Sb 3.4447215569249665 4.886050331313753 1.1126809533261617
Sb 2.0406016208868363 3.198717880301627 2.9900912170005443
Sb 3.713033851849102 10.002945964312984 5.403195725982773
Sb 1.8255343758182305 10.854035109134614 3.3862308770744676
