52
Energy = -202.0077467 eV
Sb 2.3045345259324166 9.706232095091494 2.306683978903417
Sb 5.8401770498690615 9.12731605100351 0.975718131046803
Sb 11.00550230702426 6.769879576379915 12.640628561125578
Sb 3.6037708696163104 7.206363674914476 0.7746617529259964
Sb 0.5961608809433434 5.420689349735457 4.089078378982666
Sb 7.111150468797716 6.092109691427255 13.668852764212973
Sb 10.18083969639855 8.538460007831514 0.5712077592514329
Sb 13.622567059223574 8.714868036214535 6.420320842189894
Sb 1.445409467346508 8.162701881693664 4.566271503358176
Sb 11.864301184420771 4.6781241021567865 0.21922032053932564
Sb 4.91172996993453 4.494544016480692 0.3159803939767823
Sb 4.964566768747086 5.804190950785236 2.857341698545703
Sb 4.789365577841745 10.091174499401502 3.512532193842585
Sb 7.924594167725383 7.27051849677267 1.8686763630352627
Sb 9.399883868056428 4.447088159605203 13.054326242659993
Sb 3.242749287621275 4.343268465622554 4.6986001904936945
Sb 0.9602756822481743 10.22609172142715 8.299962923020399
Sb 2.3599499667371875 1.660815405323554 4.323732646597946
Sb 13.739825155307079 5.762678207484433 6.746396891398333
Sb 12.090473621161417 6.922553215418605 2.0279482197792635
Sb 7.319934740190485 3.1660975600526626 3.577192364066921
Sb 3.11322507831558 10.940509057183819 6.452238042138021
Sb 10.841167789129091 9.662165565507998 5.246698631897781
Sb 0.7908061412849592 2.1618529709414878 6.663099892440599
Sb 4.807761426768441 0.7737035516142488 5.928936129255558
Sb 8.931227017972596 7.470168457470078 5.227678784148008
Sb 2.031947024570261 4.667948436713255 7.642170245950992
Sb 10.177919903713974 3.4406602087573237 3.3199396245898667
Sb 7.784599181227869 4.265910874499778 6.190868068195028
Sb 3.861516050307222 8.142841426101894 6.158906064565596
Sb 2.725105520390594 0.1473666301388193 7.861960342276125
Sb 2.39494174443864 7.7797732741590115 8.759470597763444
Sb 9.17764867693283 11.660983772510217 6.598633365273219
Sb 9.051224660755507 1.7866667644769845 5.438497995250394
Sb 5.310763893588895 3.224355002391806 7.406866879261598
Sb 5.123370962920731 11.24516369095002 8.526490008165338
Sb 10.629343420857749 7.883552738693848 7.541192745095223
Sb 2.134393321606688 4.349644558725174 10.487666105277821
Sb 6.529970387052252 13.308463684836259 7.765054691247316
Sb 11.217546026281163 5.826441768793729 4.574065924852556
Sb 6.943553284101582 9.847680387598231 6.78323641857334
Sb 6.0650543035049695 6.780377688941406 8.598714853840978
Sb 2.634686023136166 1.513131030647628 10.404689244064075
Sb 7.115332876926183 1.6235778163645174 9.042738714411154
Sb 4.666241325209265 12.820576946805044 9.786409197932688
Sb 4.691141167471494 8.820419035423015 10.11898760324438
Sb 5.168115592176251 4.710885796112149 10.516891741856144
Sb 8.92818410210711 9.867151668957638 8.86673015682828
Sb 5.322301722183523 1.0149382174514905 11.239383519490659
Sb 8.424097271727081 6.616815194285964 10.381531797029156
Sb 6.784383010686197 5.923548831049671 12.640628561125578
Sb 8.295062904741636 3.91472430817709 11.25415249843391
