52
Energy = -203.08953829 eV
Sb 7.365059734933112 6.1618658993228275 11.688112964418542
Sb 7.35592811587332 8.741456744325376 13.010799135383534
Sb 9.928655991181483 3.781328842411157 10.627538850134384
Sb 9.095666135288843 9.650748915797433 10.84323061638168
Sb 6.0963992688295505 0.677636181111066 9.785603683423634
Sb 7.911064197717427 3.3539661107057084 8.630143362548836
Sb 11.040963221790234 6.302656829705692 9.65616252976164
Sb 4.527149421783276 5.544494934035234 11.316925113585809
Sb 3.43337276075257 8.191444409634403 11.314684495605258
Sb 3.752250862554166 2.3200677929030746 9.275654307677105
Sb 10.308986430170295 1.7499120717186685 8.643920627575206
Sb 8.349222183308562 7.352899294474122 9.220285001723928
Sb 7.057256241400481 13.741888845515183 7.25785384986965
Sb 6.407331794502848 10.632295290375893 11.053466495745726
Sb 4.510828706101961 12.74508113961802 8.203599093825673
Sb 11.103581957435734 9.342240691874034 7.780796009318423
Sb 9.034215330811252 5.062841701005781 6.25352789303574
Sb 6.2981235006380025 2.1309642813894225 5.826634474168471
Sb 0.9339350423446385 7.205757390025907 10.286523600199189
Sb 1.561866515315649 4.981836801573031 8.561331285062213
Sb 11.787814981772364 5.819592591954242 6.908163742716268
Sb 11.191374934419274 3.0860821904010267 6.2241304791089185
Sb 4.4778937911669905 5.022377030497815 8.436568934616874
Sb 5.192232655896217 8.874265945064028 9.095934261488065
Sb 2.6434797061204924 0.6779654815454923 7.166548780175807
Sb 7.8024834744051015 1.8575115488623992 3.377726037322577
Sb 5.446108482727795 5.079445544086484 4.417325201266338
Sb 11.26304597029215 7.555695719122143 3.8787195857982377
Sb 2.6861497288741836 4.4056488151645645 5.027628280342057
Sb 9.358696010252027 11.801336703549447 7.671796809321316
Sb 4.1969072641202 0.5238958232173248 4.728942206564274
Sb 3.3147069516011927 8.079816929016859 6.231523247963969
Sb 9.195956968254963 8.686039347478056 5.657203976497944
Sb 4.6281950765770175 11.510899988498856 8.029740549793285
Sb 9.450499914223387 4.337941052048235 3.4234095564033984
Sb 12.470375003946149 9.87330916312854 5.2323776139516625
Sb 0.7449368099783616 7.522079341934279 7.420365137611331
Sb 5.674789675388312 3.3826679228327117 2.095468885855463
Sb 3.012145778894934 2.403426138503437 2.9027274198451223
Sb 6.940691968492163 10.850475838410139 6.439450761073622
Sb 6.542371526473561 8.158641415975744 3.8029366185972866
Sb 9.972862407917871 11.384897728783915 4.827244161052967
Sb 2.7178032066596187 10.883650636632835 5.8703548285309495
Sb 7.877609752135286 6.242009538312007 1.875614230504369
Sb 4.417997785912953 6.8819834265871025 2.30405136740509
Sb 1.9561247047824784 7.011055400911655 3.8888679200146354
Sb 9.822615076069205 8.34809667592147 1.4434647106672243
Sb 4.746062147396683 11.017114440716933 3.7800504023914825
Sb 7.81444295728986 10.335409447989061 2.327698321552377
Sb 5.781297656746181 10.716342852885939 0.1678484617748885
Sb 3.3039992195697816 10.006087602156082 1.470052919899227
Sb 4.219188224483728 12.74508113961802 1.474228416510218
