54
Energy = -209.81953011 eV
Sb 9.629335682316723 8.99619113252646 2.0373865279749652
Sb 5.271914707019613 7.628168662316455 2.493704706528473
Sb 7.317234177212417 9.059978789489604 4.117091526843374
Sb 10.777550146404828 5.141033493443476 3.317501577189423
Sb 11.013155698809545 7.842619969990552 4.249434512869543
Sb 5.229833243636187 4.846464802671848 3.322159261616846
Sb 8.018328372025152 4.69476420997803 4.503245071854534
Sb 10.00981131723985 11.705952046275032 2.72619958247449
Sb 2.5680953629442267 7.98720891087325 3.512298639575535
Sb 7.103235762347223 6.903713342709078 6.040376006039464
Sb 13.687186837299935 9.08072987878986 4.378331094832622
Sb 8.501788478815344 12.017351796828812 5.34523975166468
Sb 12.657017941991466 11.751261443920448 3.8550834689311917
Sb 3.1077447331065167 5.511369745556516 5.132569070641876
Sb 5.211974883005034 10.137060982082055 6.060103686242572
Sb 11.374599760002592 3.9290939724373253 5.889087627616374
Sb 8.741761880839928 3.003698293477298 6.764349183737486
Sb 11.68142327540495 6.6027309319752465 7.05118718319835
Sb 5.845784801940279 12.883030322799742 6.036771764431614
Sb 3.489533957975949 6.911125321225558 7.644619629527075
Sb 2.4844731144946453 9.37884708950601 5.958409512805405
Sb 9.086856007732289 7.255164502783109 8.143555350180975
Sb 12.203263581492898 12.57808557696326 6.586722701667491
Sb 13.225783072757986 9.246989203430012 7.211978562784982
Sb 10.049533177554695 10.918397454801534 7.622327090125826
Sb 15.215629998862259 8.038998271304159 8.94110839272355
Sb 1.3213050629273442 5.19862140686974 8.573829542184544
Sb 5.256723928821716 12.473120484702902 9.224856996666784
Sb 6.168216772327944 9.783051539682821 8.82030151058165
Sb 11.98602373253896 10.302442765542851 10.296738988269901
Sb 9.947184431384317 14.41542108866744 6.134938705546111
Sb 12.944491748948758 5.920742347019477 9.550721023768642
Sb 2.0373343775960424 3.2024836968881756 6.589345269656186
Sb 8.397143265195744 4.648415401203458 9.158256605004423
Sb 3.8460764599019113 3.9163546668209026 8.631436555626331
Sb 3.827111230630844 9.055101325983875 10.349818503107917
Sb 4.105526223696473 11.45251220806977 11.965931123729908
Sb 14.496872030057887 9.352372486559663 11.309493644429061
Sb 10.998957626451716 7.615741322763581 10.84942800534164
Sb 10.949658840016143 3.808980614464262 10.3275855840811
Sb 8.236147209909124 10.970820376737553 11.410760225118816
Sb 7.534237955170758 13.658865884467685 10.563643426746097
Sb 4.786128389710397 6.473985763906046 11.384075907199874
Sb 10.828592099147366 11.287308412637396 12.747987889433013
Sb 6.4521904524261355 11.426439320342919 13.610830154236956
Sb 9.910875182250729 13.514122634339117 8.92760653840054
Sb 7.569884784465325 7.380350117154363 11.453865353409745
Sb 12.768747261830868 7.142518730143198 13.039873358690082
Sb 11.007162787899697 4.629677136387884 13.05970118661746
Sb 6.699654482089122 8.545159096365234 13.962745701579403
Sb 11.236906169423268 9.056769073833323 14.609835682422599
Sb 4.708785633066787 6.562846666503395 14.225492578368657
Sb 8.954235565922767 7.447227586072135 15.435175627458607
Sb 8.213761257863315 5.401302632620946 13.5376677631492
