54
Energy = -210.83108542 eV
Sb 11.851186685935343 6.814537980192779 2.8224418838292324
Sb 9.037628965192678 7.505427440137417 3.1515324635902027
Sb 6.827206136152705 7.1493013310002675 1.335043727415475
Sb 9.518526102342774 10.323230747880658 2.8986685152310434
Sb 12.208846952681291 9.521296725830542 3.757293541516641
Sb 4.328224368518417 10.587389019036882 2.6742392668531823
Sb 6.4021560330300025 12.400981771603625 3.718624798763688
Sb 5.100526206393893 5.7216098775537985 3.232332232363045
Sb 11.034374949143972 4.996211742271593 4.996730746940314
Sb 7.063717878908239 4.376727736641947 4.921635085963952
Sb 8.014792169323389 10.573388018097038 5.379320906920305
Sb 9.730209126408232 11.801564532995604 9.315384499013168
Sb 5.911589031889238 8.44638403600101 3.7804879036569954
Sb 3.4714697037207953 6.3001262569965375 6.344562053653372
Sb 14.452872854998567 8.501813802446168 6.139373299052215
Sb 11.64283440595712 8.974404854868707 6.55643678203659
Sb 12.310675308557224 4.443047346798745 7.55480137746914
Sb 2.637696837087422 11.376815202033848 4.892246382275437
Sb 8.7683459256238 6.360791004650186 6.178555005696705
Sb 4.484195642663079 13.393590736027743 5.646790140350807
Sb 5.427301880044497 3.078612410282612 6.925752627481443
Sb 8.80497337538047 13.007190179986186 6.7869034084129325
Sb 14.963143572716975 7.560691541862863 8.873636976519837
Sb 13.525568678188977 11.117795163688701 7.004792151448963
Sb 2.768823830869766 9.187872293022547 6.945385003680898
Sb 12.163926251078049 6.923525722261119 9.120846195198045
Sb 5.488352794962405 8.150917825223441 7.14612968232963
Sb 6.1961221576452346 12.294808269605092 7.903369153408172
Sb 4.38698091533692 5.82560857863226 10.951384779998895
Sb 7.722902738199898 2.2641642885769055 8.502812189998377
Sb 8.909231030006266 14.41721963331712 10.17203426642666
Sb 6.073121087521116 13.990991026515232 10.323452221966246
Sb 12.737743059870557 6.412559742881544 11.951096041947743
Sb 3.4132019494805403 4.418458226895235 8.552080236148255
Sb 4.095620987750696 8.705616475055088 9.63070295753586
Sb 7.008743881132263 6.073333196525206 9.721386913836104
Sb 15.015700207806127 10.384494930975327 9.388941972215497
Sb 9.517341065933048 4.558375694026335 8.421177422316484
Sb 12.112492719820846 13.093655488646984 10.588893510875643
Sb 8.372671312233106 7.619428502107896 11.758307177249947
Sb 7.8292350875001775 3.67117660582758 11.124295162986172
Sb 13.620185344411322 10.987045336631017 11.851241177103885
Sb 11.489189956502521 9.055853887666313 11.943009239916318
Sb 6.602727686443369 9.986030964994205 10.005526662444286
Sb 10.163346888242215 13.70876514863051 12.689658699432936
Sb 6.0190004275254605 11.755155607022019 12.187406056966125
Sb 10.153205257730862 5.4683636949680094 12.790204028541575
Sb 8.840169065164824 11.105569192068575 12.558625982168236
Sb 5.637289227505805 4.127142301563874 13.041040517480207
Sb 6.2806161713134765 6.947274193343108 13.606443687853552
Sb 11.611176088444005 9.267023343234115 14.829279619571027
Sb 7.954769282997178 7.61644192530575 15.898406546068205
Sb 8.945275265017107 10.331542808322451 15.368817155423056
Sb 10.612214803711733 6.578094970284283 15.399899295472807
