54
Energy = -210.25203463 eV
Sb 8.336996138258721 8.526954392577364 1.1237370864032303
Sb 10.994046820322906 9.55864196799853 0.7589847620038306
Sb 6.30746556909881 4.484893350971714 2.3354834943677663
Sb 8.611528308234336 3.199661823287565 3.6373382579760416
Sb 7.371911852313627 11.096989545791835 1.9915577966302804
Sb 4.447523581737007 2.4702292095925733 2.9748010065024095
Sb 10.483251528263185 5.245744231599672 4.403709256749774
Sb 5.500289886569644 9.876687548933187 3.9099672640136425
Sb 11.576806713541771 9.598015536610168 3.4474301493174564
Sb 9.273451656172513 7.896336304849767 3.8122258772851336
Sb 9.104031250309438 11.589504208959207 4.249666893404938
Sb 2.3085465029263843 8.408940378706331 5.9194152553049975
Sb 4.646265018121006 12.540740884987967 4.677140500391856
Sb 7.242778987530982 13.679897965465862 5.299034089909066
Sb 6.8953244078735585 3.809018648039883 5.850174055759362
Sb 3.303786205096359 6.082957191445256 4.500649918193492
Sb 4.568615454342723 2.152681594797998 5.80203697436259
Sb 12.795427653951668 8.567902988952351 6.7847803149691615
Sb 4.533374821943674 9.421022789347765 7.4660869141849036
Sb 7.729507637513903 9.493247629058244 5.752526119171017
Sb 3.3071631650151994 12.01346346587766 7.2468668413591795
Sb 10.538653036079006 5.292981662868034 7.28531029260056
Sb 10.184195385784502 8.126707043454045 8.013896832804791
Sb 6.16365447266083 6.331637213808331 4.651439703046283
Sb 5.106484345694095 13.642710466135805 8.826483985182952
Sb 12.64769808083996 7.4200466895474 9.43802412005154
Sb 7.376615381299345 12.241302274850772 7.765940157142941
Sb 13.937491487831013 9.34185406858916 11.178444529157517
Sb 10.80925804196053 11.179492129902723 9.316977701845513
Sb 6.532527584633883 6.69901329905386 8.090236153649652
Sb 8.076190119323474 4.27112174024944 8.455240564650213
Sb 2.4598596853552364 7.902872551104343 8.775323644853401
Sb 9.27242069319494 13.632317421964025 9.41796353293231
Sb 12.988685577476662 11.411200678233204 7.40416835582083
Sb 5.270488398024356 12.5517128408811 11.485841170571748
Sb 2.7884692281220875 4.308632697067988 6.662946922610445
Sb 11.460779714517804 2.2868912812832223 13.585515630704757
Sb 7.002682635199105 8.17375048872229 10.704548963776757
Sb 4.051718108325181 5.488142472653229 8.97598252452362
Sb 12.470206544240863 4.2324095751218 11.68409742031651
Sb 4.5981390165522535 9.716125353559951 11.40950320053737
Sb 8.102528019414391 11.684541695744164 11.22100895051865
Sb 9.646848899418076 3.919227975804121 12.054361085126967
Sb 14.958967669433324 11.3455891396284 9.430039217055413
Sb 10.127510175930793 8.348124214624201 12.217882773963847
Sb 12.992023751190045 4.534226208104006 14.502231189793534
Sb 6.074117055377767 6.607531295886791 12.891201342433558
Sb 12.499349752728417 11.829942381891955 11.53335944039001
Sb 9.91802734082139 12.330505050575521 13.318014185857804
Sb 9.013894483811585 6.158868806610635 13.727696313363207
Sb 5.9256345953492096 9.233441611101785 13.908889231905848
Sb 9.256177562459776 9.799362160151857 14.540314440711706
Sb 11.113409525928882 6.262918038156379 15.777774609133274
Sb 11.977249054831821 8.661316397766198 14.48577756765525
