51
Energy = -198.08893229 eV
Sb 12.06386081383071 3.029115371459001 4.82556249399191
Sb 9.882633096353814 1.2137461427180143 5.232092880815529
Sb 11.835548842383506 8.266546965047407 2.4857373689686346
Sb 12.961508206929262 6.947352072167789 6.750176066685134
Sb 5.961977641616542 1.3659919819273336 4.309399901019882
Sb 12.031268277304756 9.246671463751454 5.205462566411312
Sb 10.108974918728437 1.3705399300260508 8.367577435502703
Sb 9.354148530781703 3.923444865851147 4.684654933833545
Sb 10.875029087547587 3.992876365569058 7.304867074413364
Sb 3.1500749232488476 0.8515895425885773 1.5348372930316174
Sb 9.048178355696868 8.29814618124373 1.7484063595074892
Sb 10.15270224255439 7.5986478018561865 6.640525213459423
Sb 7.29484147288474 0.9068201332848054 7.899229991048136
Sb 12.498754201953584 4.544755927917506 9.867380929017134
Sb 4.995110968932934 3.0085765575002164 2.1150044850941914
Sb 10.60300709854072 10.721903585015333 1.5592886513445983
Sb 10.185764327000637 3.1985766528415787 10.82940275196842
Sb 11.797311861761568 8.777898724404517 8.680544807839913
Sb 9.609990193575785 11.652881239392201 4.149887503779171
Sb 6.146627818373997 3.1793400616797287 6.569787059032721
Sb 5.538640446944222 1.3245702693941788 10.136336063363418
Sb 3.6620465394313135 6.222587932648528 4.6324061172838285
Sb 8.876688299587851 5.612202719238547 9.942539863440485
Sb 2.2807141535205533 3.087121719768461 3.119668354882486
Sb 5.523710338604601 6.614195353687241 2.2436963920840873
Sb 8.000643159932743 9.25220505407566 4.28826882673299
Sb 7.360537197910084 5.841370313292694 12.394271442808412
Sb 3.1487096492077935 0.6635224315962631 4.446459269855964
Sb 11.280146932373372 6.921169406944184 10.874038384010866
Sb 6.6776721117166815 9.465687137237058 7.544600940897659
Sb 8.45185464776095 10.665663682836966 9.60775523504899
Sb 6.778544930556391 11.709554720082814 3.480214049283439
Sb 4.367289864144895 9.153632538802594 2.77610275907353
Sb 2.667443740698715 6.897202877352531 2.0506228985334967
Sb 1.4791929509817379 5.041385862649295 6.394961729668745
Sb 3.814060559989339 2.072310027261554 7.944731599110229
Sb 6.480540598971778 10.648739354186553 11.692848733182139
Sb 5.317804478603378 5.746451354102135 9.075557512205414
Sb 6.625866085576092 12.139463846520934 6.3817587762386525
Sb 3.847438526485928 8.986282282530837 5.782972355733178
Sb 5.257586763918597 4.096681555197223 11.43513833216245
Sb 4.889015320414825 7.130780658106332 11.583324354762063
Sb 6.774777583864572 12.97171881623966 10.145181059602535
Sb 4.540076981329519 9.864572454362362 9.525272784561176
Sb 3.9605853956726427 13.186149098415115 6.4196459475459005
Sb 2.035624683918701 11.23044959376123 5.437528866835787
Sb 1.1537191584071318 7.869038127276037 6.6131198183277515
Sb 2.6741029236816796 4.577373216609394 8.950271250123496
Sb 3.7431962860613908 12.616972999958438 9.2400873630028
Sb 1.6732645352222322 8.804088949086113 9.261190535072796
Sb 1.086949436118274 11.355462802906716 8.190767193573933
