6
Energy = -21.64965108 eV
Sb 9.442936745216349 7.021562357690309 9.1027837977589
Sb 7.462622898098219 7.74571241443898 11.030705292193025
Sb 8.022614895171849 7.575849025323489 6.6870470146980265
Sb 10.372337467593889 9.768964532353044 9.114613922447347
Sb 8.347318548559482 10.28333208459034 11.071699231209575
Sb 8.920194010659253 10.109470522637105 6.6716949902955545
