6
Energy = -22.06632431 eV
Sb 7.76626785617262 6.1718167481069015 8.754491340187
Sb 9.718685237547286 7.472785739976614 7.288486371027662
Sb 10.462210653035607 8.932866557189179 9.802379136160878
Sb 6.993435288752479 8.513644885190638 7.496960328865816
Sb 7.680510991386887 9.774666801854288 10.135353941088159
Sb 9.486827341872374 11.24952562475586 8.644040061370495
