6
Energy = -21.74471594 eV
Sb 9.201568821541704 6.825125691135721 8.349570617236097
Sb 7.087317289174301 10.396861217450205 7.7741567499056865
Sb 11.036185279028354 9.086114843345248 8.179175912101943
Sb 9.248523801598619 10.863843143728436 9.559888518184188
Sb 6.572552338512109 7.837428603306308 8.718697287002135
Sb 10.030219934969676 8.277675233504967 10.690888836506476
