6
Energy = -21.59334334 eV
Sb 3.810534720986877 8.115628582453548 8.611555766934549
Sb 6.246489043968523 8.715225286093865 8.31735514082086
Sb 5.596325141244908 4.9988586140014615 5.299362366258851
Sb 7.290152603523147 7.2754274293637415 5.274285100862283
Sb 7.760798104758606 5.159740840217585 7.136880451277285
Sb 8.295700385517907 4.7351192478696404 4.360561173846261
