6
Energy = -22.27850239 eV
Sb 8.420471534895345 5.9997110289256925 7.259293671517034
Sb 6.0009933649114675 6.347449975930418 8.774993398536628
Sb 5.717461178655059 8.153870908345423 4.576684296323455
Sb 8.29016134737816 7.886362522035286 5.108684135004584
Sb 4.375428824889907 6.394772722179775 6.403790380693466
Sb 6.195483749270512 4.217832842583606 6.876554117925036
