6
Energy = -22.63482619 eV
Sb 8.36736771807187 5.402733592796891 6.005924664500738
Sb 5.8070958227084395 5.4465723115586195 4.675850467739573
Sb 7.921871327004581 8.14602571652588 6.943295064701522
Sb 5.356050102971873 8.18537913589797 5.615025568434334
Sb 5.550083025648359 7.279814402867293 8.348503726285816
Sb 5.997532003594664 4.539474840353133 7.41140050833756
