6
Energy = -21.54455163 eV
Sb 10.821565302426706 7.267059456873231 7.532557530928062
Sb 11.083807551640495 9.061967114834097 9.608435214755673
Sb 8.70738996257382 11.0316002236351 9.711401240797251
Sb 7.080258302033292 10.634764147586763 7.532557530928062
Sb 6.818016052819385 8.83985648962578 9.608435214755673
Sb 9.19443364188618 6.870223380824779 9.711401240797251
