7
Energy = -25.41908039 eV
Sb 5.231023947086269 4.2509994469514325 5.86029764320671
Sb 7.352383017373581 6.220518281609589 6.0113650435932
Sb 7.937813534643057 8.292804693148433 3.894734624328193
Sb 7.29938965098523 3.7372035096639973 7.758139063456489
Sb 6.535562361657439 9.792844312844318 5.570980110428513
Sb 6.115407925612021 8.00294259550336 7.866994950720352
Sb 5.02841956264302 5.20268716027922 8.537488564266889
