7
Energy = -25.59989718 eV
Sb 6.895894979903812 7.797972095686386 4.838245134314236
Sb 6.313013467085639 8.13179938073296 7.657996033658489
Sb 4.017397250849255 7.5822602184645405 4.782976680430314
Sb 8.51827773256275 6.61166006484654 8.752113039722484
Sb 6.537712090158297 4.953655942887277 5.238065756459352
Sb 4.534613479207277 5.920674067683611 7.089178004129962
Sb 8.683091000233398 4.501978229698984 7.141425351285587
