7
Energy = -26.2670779 eV
Sb 7.890139674938289 6.488572454706552 6.265390102286331
Sb 8.628000726860673 10.04857982181107 10.07307377014193
Sb 8.569302846163227 10.284907672824426 7.20222509953947
Sb 10.237240714302684 7.894858229977148 7.0358401880266115
Sb 9.689782885274697 7.320124125943731 9.8267230035532
Sb 6.273097371634918 9.259174734424557 8.614878593041308
Sb 7.047149821083822 6.4696665244617275 8.980085417873774
