7
Energy = -25.51104737 eV
Sb 9.96313589907262 7.927482136643601 7.277621408293748
Sb 7.142557135751353 10.118161101211081 7.17077222391848
Sb 8.343892132490891 7.127330572579249 10.371183140895992
Sb 6.285330934954274 9.053931803619406 9.720443201774094
Sb 7.931666665015719 8.124257057540717 5.366052085338418
Sb 8.916897194392396 5.491884714537479 8.167909685491638
Sb 8.992769110951892 9.900562980540306 9.494641125014637
