7
Energy = -25.33731428 eV
Sb 6.678240177420569 6.585535413137137 4.771165988271301
Sb 7.62474607201484 7.103603868130978 8.460280030688391
Sb 6.006526821589752 6.500091410306333 1.9267911222310363
Sb 4.889424915501904 7.8129214413689185 8.840043901624872
Sb 8.560020764120607 6.282221460533437 2.779148287393045
Sb 5.57198927936593 5.165149390676688 8.031827053222525
Sb 6.173735153746211 6.05516019960647 10.695426800328637
