7
Energy = -25.52028252 eV
Sb 9.279871926633614 8.218014823062376 6.431538017233885
Sb 8.541346140258872 6.9552790869529035 4.0180334691165625
Sb 6.726850155158026 8.566701711440054 5.279930722119253
Sb 6.985989867624163 5.5733329361436805 7.085072627511322
Sb 4.4923477084159025 7.012781531303301 7.213210319998314
Sb 5.02931442759394 4.879027027988659 9.108310659240109
Sb 4.449838025982985 4.300421134776654 6.3694624364479235
