8
Energy = -30.48257595 eV
Sb 8.331917058742732 7.393115076657193 10.710082968280819
Sb 9.894084095886107 6.377869204646298 8.497104303540848
Sb 11.645564417403387 8.373409035060018 7.715699220198234
Sb 7.2422410770119585 7.109281366336204 7.614171797991931
Sb 10.076194102794219 10.602187565827554 8.057599870761658
Sb 6.294433578029791 9.31073083707998 9.49914540624351
Sb 8.833484859751977 10.147950174428312 10.650825840031745
Sb 7.519537719108269 9.803908672129415 6.9056611870122
