8
Energy = -29.90244739 eV
Sb 10.833835944456371 9.510461078971511 7.906971433354601
Sb 10.979071244901387 6.972415908399055 8.682438246923919
Sb 8.265379379799684 10.510917888215682 7.301768377354846
Sb 5.907683336311053 9.577664181938705 8.635456911900821
Sb 6.4440656078307565 8.795362007105282 5.9147539806058855
Sb 6.610524937721613 6.0155252796160426 6.749773037108047
Sb 8.547755900279217 5.546301251818778 8.802768514808694
Sb 6.062079332900846 6.806825291248322 9.465651387622705
