8
Energy = -30.40135719 eV
Sb 8.803483740758075 4.484617341892843 7.30248520479513
Sb 7.88256630798756 6.8837028017143 8.5849904948145
Sb 6.4089349652919125 4.4343106410023125 8.870921386613542
Sb 6.261549951359166 4.023856813257697 6.030410990506085
Sb 6.57107003649512 8.580216619919975 4.121923128674677
Sb 6.74667503490911 8.976592589438217 6.96160708284713
Sb 5.124185712647408 6.1161257326701275 4.408335112082226
Sb 4.201534250551507 8.500577460104253 5.719326599666307
