8
Energy = -30.10152931 eV
Sb 6.6874620727785725 8.432751988307633 6.926730097231744
Sb 7.330363728231885 5.9442332012884975 8.433878836133175
Sb 6.688880846551118 8.432688714435168 9.941745110282598
Sb 7.32796769415188 10.921820962540705 8.433986963128106
Sb 9.565045685395763 8.434074033668447 6.366661658095156
Sb 10.151604745992504 6.486529636549356 8.432677108985219
Sb 9.566953737640166 8.434059254279752 10.499260342183003
Sb 10.14971290224695 10.382175042128246 8.432709876741471
