8
Energy = -30.01800463 eV
Sb 7.631537779474755 8.322153781328732 7.23061353805211
Sb 6.154119600383553 7.846762254080956 4.81212557323586
Sb 5.433345517067724 4.8516608006481965 5.670726727623648
Sb 6.005069449144695 4.226846740637384 8.415257194342413
Sb 3.7892818149246947 5.883860152083779 7.788463693762638
Sb 6.051129261935913 7.024148138609095 9.222166727455399
Sb 8.505625143822233 7.729715859393233 3.291875898932299
Sb 8.429891433245807 6.1148522732178625 5.568770646595006
