8
Energy = -29.63561049 eV
Sb 9.737085778538455 8.052977801475464 6.750196151305603
Sb 7.923888435502474 5.655834779263042 5.9470382896157155
Sb 7.331921079220795 9.621492195511625 7.139852577029161
Sb 10.561805503119249 8.791181553027336 9.662778075981896
Sb 8.916667924971911 6.280833985569628 8.833476520800238
Sb 5.685929711585816 7.110653582493241 6.303082131182704
Sb 8.32800893498326 10.248834873180892 10.02954001260262
Sb 6.510651004574702 7.8487367189045685 9.220161280210837
