8
Energy = -29.06524169 eV
Sb 11.943051632618772 9.078760965317857 9.69045242938189
Sb 9.830755415999503 8.476852697854888 11.405040296591125
Sb 11.394978877026313 8.293232859500751 6.941594203991587
Sb 11.211474064326607 11.069464713470293 7.694528188661585
Sb 8.876189241865632 9.646826528191637 6.858393231957257
Sb 7.907761373226553 8.860145153594583 9.442758377810124
Sb 5.634558789407794 7.203042190488684 9.57151718535279
Sb 5.402483549151576 9.82129643870218 10.30049816090555
