8
Energy = -29.23376345 eV
Sb 9.906612954103405 7.291429400826911 7.6952976782682985
Sb 7.9342222437797085 5.260345969554595 7.022441275716712
Sb 9.826893713883544 8.51500942071806 10.732342670949173
Sb 10.90101177731446 10.477574963598736 9.011082779029886
Sb 7.682570486777633 8.778105064365143 6.793002018744043
Sb 7.298342768688509 7.196696529169411 9.098782191292052
Sb 8.32896540549483 11.360712447573727 8.198605799828371
Sb 7.670477204525239 10.33653924200328 10.763196103763827
