8
Energy = -30.83803069 eV
Sb 7.509188354581114 8.817921519945015 5.472402906132321
Sb 6.3810902476743 8.27597702991594 8.07623537105613
Sb 7.885881664385477 6.232416226166265 4.344432729086249
Sb 5.282668711171459 7.365595158889844 4.210588027848551
Sb 4.194482527239755 6.882848127609845 6.849214470250286
Sb 7.548012561330695 5.75880330798424 8.914482298685492
Sb 7.896208771432517 4.33181691926922 6.4823802904827375
Sb 5.3024671621848825 4.334621710219699 7.650263906458809
