9
Energy = -34.32550341 eV
Sb 7.754061847921228 4.441396851144236 4.895520842126801
Sb 7.151240753082115 7.042309783491986 3.8461122885165415
Sb 5.727630128101662 3.788112958889818 6.822890893524695
Sb 3.8822397507182855 5.959175860465995 6.990451268038715
Sb 9.200103466597287 6.725619211757686 5.833961154358863
Sb 5.958311274409704 5.616927334565755 9.004176377600555
Sb 4.871838331769247 8.036432192063787 5.277080310832584
Sb 7.982139699257953 7.530462541556034 8.304779063582567
Sb 5.972434748142192 9.359563266064235 7.52502780141835
