9
Energy = -33.82513426 eV
Sb 8.208967225737295 7.665817201972421 5.2803792284138105
Sb 8.526937326150264 6.445397117718068 7.826265978225331
Sb 6.323488211951082 9.764584157087876 5.727418052022897
Sb 7.370872663208266 3.819965678178187 7.338461140731002
Sb 5.8877674278988845 6.737549159399021 8.877617080324985
Sb 6.654558004592633 3.579811060827042 4.610609701308908
Sb 4.874745035138296 9.151989558115098 7.9134620498841395
Sb 5.871447785462316 6.3314143461958885 4.306150805463495
Sb 4.781216319860678 5.003471720505975 6.619635963625284
