9
Energy = -33.77890511 eV
Sb 5.370010760378363 5.513217425230266 8.396512164423608
Sb 6.142354207421253 4.193732255145872 6.0251794869080975
Sb 8.939179511484145 4.884119572815619 6.23899235685683
Sb 3.16590984150485 6.565744616335161 6.884340069767558
Sb 4.569823297261764 6.002909232815265 4.399577611283357
Sb 8.953957484784247 6.777416655641814 8.417007750437115
Sb 9.574562276816875 7.659589061307212 5.77911596782591
Sb 4.910839287779698 8.527688219826791 5.68472577403486
Sb 7.3593008762495575 8.861520504563162 7.160486362143708
