9
Energy = -34.44739398 eV
Sb 3.941637500843291 5.17238716795368 8.041137982592446
Sb 5.62524994535659 8.462756856621212 6.906151431319867
Sb 7.850603650334878 8.845996193283403 5.124837206725616
Sb 7.44519006683118 4.517124534905091 6.524046104499722
Sb 9.049868870311823 6.250326082905032 4.885070112372569
Sb 9.410016706591103 7.784678824420979 7.2683001064305985
Sb 4.782483570590226 4.214187685616465 5.484327084430871
Sb 6.810294880130898 6.440187354915251 8.538600753407948
Sb 3.584654809009982 6.812355299378724 5.727529218220201
