9
Energy = -33.95149287 eV
Sb 9.316248022754426 7.439819847019407 3.2456026716592454
Sb 6.9422713321824014 5.973269590703983 2.668240153441536
Sb 8.330223850764941 5.540811487263091 5.13651816844357
Sb 6.696407365849967 7.857143396782565 4.815421067641593
Sb 4.279746442629946 6.985743864946694 6.499338324818348
Sb 5.219244912899036 4.597027166992862 7.820487613075286
Sb 5.506147055549746 8.209824588808393 8.809921582133596
Sb 7.375775682087002 6.02334052629628 9.113144010612
Sb 4.836555800026553 5.875639995930589 10.393946872918546
