9
Energy = -33.88773277 eV
Sb 12.095356627950006 7.72872912233693 7.526984165485984
Sb 11.087701004396612 10.348046764882165 8.250349685038012
Sb 11.944857490188646 8.57934461206842 10.288086357802596
Sb 9.461896919465143 6.573968528191033 7.8123997585261
Sb 9.09471013865325 8.740201781644913 9.626930254433857
Sb 6.112421557011785 6.694633592893465 6.794826830888192
Sb 4.935225298996247 9.272435310364132 6.45567600653723
Sb 5.255161034220033 8.206007309295858 9.075504088839509
Sb 3.2970641033694346 7.102055265710101 7.307239253413781
