9
Energy = -33.98927095 eV
Sb 5.308023576243025 6.8215545334411765 6.954658800788449
Sb 5.757218741928489 4.033994429283086 7.593282530387117
Sb 5.5511614126412425 5.936761012538602 9.6996610518163
Sb 8.169677399250325 7.122986091372091 6.60475965751491
Sb 8.166395557327704 5.1605490507785445 8.736994114521906
Sb 8.437140650637913 9.499681602495238 8.408797983888777
Sb 11.246030383038816 9.98657137390043 8.087747450106551
Sb 9.880741127198577 12.235669652554023 9.191765447733527
Sb 9.373299805783299 11.42888671604765 6.503649557115965
