9
Energy = -34.08448176 eV
Sb 6.539270619114711 9.493080601654524 5.726808215290518
Sb 6.005052065482067 10.076488086664988 8.477802900424326
Sb 5.00836973986268 6.812298860753725 5.9270218436006985
Sb 7.774582294246012 3.533455951474062 6.559058664329178
Sb 8.40280802641808 8.7099347708068 7.759585766507073
Sb 6.097056653332935 7.179711805684797 8.589496158439188
Sb 4.9239717637090274 3.77480317931557 6.568514179807555
Sb 7.440542650391377 5.760301430275157 4.751728882056052
Sb 6.308346187442567 3.159925313370253 4.139983389545576
