9
Energy = -34.15871476 eV
Sb 8.336232431829877 5.468978395149492 5.906984021656363
Sb 7.93834384658107 5.967966043762969 8.7579502820047
Sb 5.975492577380188 3.8717814968478224 5.937679386388993
Sb 9.551549455385612 8.30406757492537 8.77447165976137
Sb 6.787357059896679 8.551082416061165 8.17413917423933
Sb 7.3202089496462674 8.112626540358807 5.3492843546862225
Sb 4.227911785022459 4.975802146173238 3.9502703215596955
Sb 3.811858844060262 5.57503965548458 6.7344070305808845
Sb 4.541551303960466 7.663161984999438 4.905320022885196
