15
Energy = -71.9191556 eV
Sc 6.090170817446356 6.772383846510605 3.5680338152553484
Sc 9.041083711132734 6.603303491102283 3.141970886384712
Sc 7.882642889088103 8.821865219722712 4.898682073007487
Sc 4.523673752422375 4.8358088286950665 5.229916503728852
Sc 7.65656304390835 4.5516892854963995 4.9550237068440826
Sc 3.937820102760648 7.799246927703338 5.517051434243933
Sc 9.570714167095252 6.640125614700937 6.067527429767031
Sc 6.5539000050504095 6.800599884897101 6.630847596494766
Sc 5.691574006427977 9.630587750757055 7.0354082766560975
Sc 6.111353225062343 3.8421884875002124 7.611370293963343
Sc 8.43065570932512 8.740340682571253 7.959162799064658
Sc 3.969506101819578 5.960286118860747 8.03850747462194
Sc 8.192424855518373 5.702351497440577 8.83072971134915
Sc 5.997327923798201 7.7197135428061365 9.454254585782136
Sc 5.652298932594027 4.881218064686036 10.363222656286291
