15
Energy = -72.35377899
Sc 9.417773352563579 9.580400593462162 9.292562210025583
Sc 9.417773352563579 7.328252779310776 8.209553723717441
Sc 7.731663633999482 11.946173830312953 9.650047518069144
Sc 8.8876493505478 11.284884492449503 7.223832292675783
Sc 9.615363923878798 11.045533542551984 11.77114494147299
Sc 10.218271870848412 8.381559061981402 11.682057815650555
Sc 7.430796233623351 8.721371986803456 10.87492259060284
Sc 11.066119109377825 9.291713202417034 7.449343068052787
Sc 6.980353655476812 7.025035266703886 8.638372671332473
Sc 6.669935667806703 9.62590658785078 8.302195511210996
Sc 11.941145266587384 9.909563651692192 10.138169389773505
Sc 11.763719582003208 7.3253558884114485 9.43817466550594
Sc 8.400832301155766 8.818755534916495 6.2347009984030555
Sc 9.109627325622553 6.158070608547976 10.357985747969598
Sc 10.364030269720768 12.246191076812037 9.099409168208545
