17
Energy = -82.16948091 eV
Sc 8.159678280235678 10.769601140774018 8.296282285029907
Sc 9.237265906490933 6.040272855149699 9.87861908976706
Sc 10.871161307362296 9.438517609199868 6.065727994631094
Sc 10.645444688226316 6.712905537130884 7.093980359258616
Sc 6.192627467890297 6.807780866908784 10.750032230998155
Sc 8.128194406097146 9.514079899985992 5.558234293146855
Sc 5.538890501052862 9.53094446608536 9.841477258736136
Sc 6.1306344157451464 4.948800357095378 6.015681623072002
Sc 5.534982501756181 9.918271263044424 6.988205998361532
Sc 4.588991252870731 7.057034854467594 7.949715815446518
Sc 8.243215607801375 8.903556187020532 10.83447755192567
Sc 5.82572954829874 7.662220553079627 5.098835279506433
Sc 8.689135239549726 6.6402448486395205 4.848834418432082
Sc 10.370720121425492 8.853306115303177 8.879952162328243
Sc 7.639539427901716 7.531596795542511 7.849020019425117
Sc 8.811763203868074 4.489470941399528 7.145311624877942
Sc 6.475942146987762 4.613339385075524 8.90707647743498
