18
Energy = -87.62446437 eV
Sc 5.106770628094891 3.7704368415040026 6.682657198052815
Sc 3.727672281298087 5.503601717126813 8.743141445308831
Sc 8.052302583327425 3.436966888554414 6.484621747608814
Sc 6.666672515903753 4.582570983440598 9.20897111717089
Sc 6.675743885867066 4.986963399961475 4.418132365039216
Sc 4.429851118319857 6.686546031940413 6.047742118520929
Sc 2.6510045768809842 8.167004891244497 7.900759029193817
Sc 9.575971496809084 6.0063822619210105 5.197639284394829
Sc 9.686686581775614 4.9795784856603795 8.432693690990089
Sc 7.373932723746974 6.363604580845687 7.064232366381834
Sc 6.957455137419644 8.123500221886035 4.576979064425551
Sc 10.270225668425839 7.760407336923287 7.59603254971804
Sc 8.300045982420569 7.198003258926444 9.834729846525843
Sc 5.412634965264947 7.898979217277207 8.84434789135564
Sc 4.941581731995437 9.659245961864194 6.359848579091889
Sc 7.786241856028802 9.47189055780152 7.343827712828203
Sc 9.659212090281747 9.140206349119147 5.01479950442814
Sc 7.342915832349253 11.024315096439997 4.858009484401358
