11
Energy = -50.76509403 eV
Sc 3.843859865786638 5.106763848877901 4.3848020964992624
Sc 6.815894804898291 5.797602539172886 4.746621918433754
Sc 6.55552431365139 5.134942823914813 7.72872033327998
Sc 4.9545620736678675 7.7532130679939 3.271223814499228
Sc 8.70580407965848 6.838745795491375 6.93710478842501
Sc 8.677158680398225 3.843516409317337 6.224575568907716
Sc 5.6984191464137135 3.1585158798183075 5.855433104732721
Sc 6.223667992493421 7.958040388528741 8.352773561574486
Sc 4.503944386331784 7.2890982632249495 6.102652828486497
Sc 6.850892502984414 8.78572425974997 5.465496981896531
Sc 3.6765778630590042 4.840142634285928 7.436900511575778
