14
Energy = -66.27811952 eV
Sc 5.842935613431065 9.000636036195218 10.198943202479526
Sc 8.555677639116263 9.289761764794166 8.925685296349004
Sc 7.780427958341936 6.669401690367619 10.343896752026485
Sc 6.250491611587102 10.304359827439937 7.250601002928889
Sc 8.752681077811092 9.20021497481358 5.909816352283004
Sc 9.314994789064203 6.617564258361595 7.33221658825994
Sc 9.006376113339282 6.872501816853475 3.897774268868789
Sc 7.695385004043252 4.904696175515756 5.524747844765033
Sc 6.538908563195563 7.435988556008742 7.824473172862702
Sc 4.849660451888755 6.076675491867565 9.74099794647738
Sc 6.404178397680428 7.711187596928509 4.9270228580657385
Sc 6.933316363984809 4.476018020921984 8.361705089143342
Sc 6.238043042690884 5.46445077104577 3.20561510834819
Sc 4.916333151375613 5.305200092161973 6.2095891538221695
