15
Energy = -69.85074546 eV
Sc 8.780991896601632 8.808912765479112 6.105124512741227
Sc 5.566079172102311 8.17366559837096 5.953188154131672
Sc 8.076960659548156 7.399948983276661 11.360783476502437
Sc 2.836792357962375 6.800746797561479 5.710652463753321
Sc 4.239049329475533 6.80572333758331 8.35580936508225
Sc 6.727681280495261 8.553715719200763 8.905983075232148
Sc 5.503955177948477 5.373456067915208 5.890459325232184
Sc 11.426368869034148 7.357231710349936 6.620462993745966
Sc 7.0070588103039455 5.7244909306196226 9.003026673427046
Sc 9.603665940016818 7.624538565113854 8.865344650064879
Sc 8.629387402773023 6.065737167727471 6.348150626376316
Sc 4.442312578107277 6.8163760981084485 3.4188672275032213
Sc 5.264976062156049 6.957310732731082 11.085838043249375
Sc 10.266813105650499 7.167179789058134 4.007401806068355
Sc 7.3739632071577805 7.09304561858864 3.8200959468406985
