16
Energy = -76.24382709 eV
Sc 9.203991794928355 6.657911342621321 7.530974686727882
Sc 11.36875524523459 11.541103224433288 8.794265083458459
Sc 6.100074975138903 8.507219327861996 8.81902592197909
Sc 7.659094910529283 8.843055497466677 6.091315135156238
Sc 10.252019802308663 7.740488830350509 5.153936926747117
Sc 5.06722183106632 7.1148539965640145 6.337969841354922
Sc 7.701880577166341 6.011397921053352 5.227244159114578
Sc 8.741180323848813 7.401486159107043 10.279090520968026
Sc 7.419835240956312 9.4976043622021 11.66915958956031
Sc 11.196017800243292 8.655463453698056 8.20817559077733
Sc 5.947208985063201 6.7975247523872 11.228400311576058
Sc 10.266691018430237 10.634491108997608 6.191761613588638
Sc 3.885934195768784 6.525403910269653 9.018179891832782
Sc 6.620661757061489 5.622265618302899 8.37612179915365
Sc 8.708362024606886 10.171386611944376 8.74639582328176
Sc 10.46806643455104 9.731633879282318 11.067905732931777
