15
Energy = -70.84504847 eV
Sc 4.746460767413203 8.514347227220705 6.444134242467423
Sc 4.692630140756517 2.2457821422922595 6.447140304887779
Sc 4.611182190277891 5.306667689415716 6.512896917079506
Sc 7.054729705013671 3.7120159880009296 5.57224532454753
Sc 7.1619259549527365 6.950642286994582 5.579600884084167
Sc 2.9759269652711757 3.765621862477827 4.437165509265816
Sc 3.002572082176369 6.8690118396426385 4.4598421746446455
Sc 6.428738250309003 3.8382053739811135 8.470761675354227
Sc 6.518510645011026 6.953889176398974 8.515599641674125
Sc 5.305894390743144 5.255482170362541 3.536161149078286
Sc 5.359302675778624 8.572456881860367 3.6348734624368144
Sc 5.320899339522341 2.1690004698585974 3.5382326646290556
Sc 8.862014797222075 5.474453833333711 7.7279339550117045
Sc 8.844012237525085 8.447695991585574 7.563303844345907
Sc 7.140046635289455 9.949573282763453 5.584954653705887
