12
Energy = -50.31927003 eV
Sc 4.614427630728836 4.617863059598164 3.1180714186828054
Sc 4.4918164713935695 4.488793778825601 6.003107255666333
Sc 4.629728395899983 4.620045457434248 8.887190460654438
Sc 7.371576831851278 4.621465522453049 3.112563371991019
Sc 7.5106899449553195 4.4917882237530335 5.996464493505071
Sc 7.386900693058871 4.622807477965883 8.881140975114938
Sc 4.611854711336823 7.375076725786615 3.118914455427938
Sc 4.4885509864833315 7.507632038964968 6.003356706359995
Sc 4.62638982392349 7.377206432799367 8.887457391090319
Sc 7.369057426508827 7.378638479676689 3.1106455511125173
Sc 7.507412952251695 7.5106264191569085 5.994423914289048
Sc 7.383627091741422 7.3800893437187804 8.878696564173742
