14
Energy = -65.99053655 eV
Sc 10.56290561384807 5.553276842209284 7.720685404435765
Sc 10.423408072569693 7.668318270479296 5.425806025975168
Sc 7.816882746845855 5.790651489836426 5.952684469124212
Sc 7.857569211508673 5.188276882153948 8.933652407744294
Sc 9.019553378738573 7.907594799200709 7.821794057991026
Sc 7.615292143299634 8.763567276756351 5.2121875491307526
Sc 5.131581556634535 5.232249552771958 7.759271674022788
Sc 4.987275607463717 7.341781137019795 5.4158608392084915
Sc 6.2043170479540315 6.917803596955426 10.611319349657489
Sc 9.199446146375012 7.197885017392618 10.579390862758004
Sc 7.5024256089954715 9.772350918704047 9.656316147916629
Sc 6.18312516162467 7.807421510452543 7.895656386655167
Sc 9.015430904828797 10.684051716845865 6.98737389692461
Sc 6.024229404484254 10.49900502181339 6.935164602063816
