15
Energy = -71.71754471 eV
Sc 4.237302276317895 5.404985646615225 4.161973896692571
Sc 2.439812721539019 7.6409638029154054 5.020270453030841
Sc 8.874344784760572 6.033555152399634 6.309509703523024
Sc 4.157614231677672 3.5982865994873223 6.622258181905001
Sc 6.533033386939162 4.734638011475035 8.134869925542143
Sc 3.8682886322305556 6.518319201909419 7.381046372546714
Sc 6.812564918039804 7.968332000337933 8.095839701283337
Sc 7.308585183032503 6.2822002857373365 3.294580978481995
Sc 8.967948608548383 3.1543040389020516 7.379806920292631
Sc 6.206977494389758 6.630492659981402 5.780334556963554
Sc 7.619504741541366 8.970614661211963 5.138938060840837
Sc 6.87892789562421 3.726409164651788 5.2617207726345026
Sc 4.6947829585258045 9.217243154233135 6.311787093700861
Sc 4.998729865227484 8.247305190312172 3.5184600849824634
Sc 6.325578704876435 1.7963468331007861 7.512599700851028
