19
Energy = -92.12290654 eV
Sc 11.255854732680222 5.949551975360888 5.9461016739348596
Sc 10.380634709478745 4.397740756484923 8.744276683705555
Sc 7.722769382048094 2.7851050755571642 8.609444995238961
Sc 8.75616994321967 7.671191620943226 5.137979615537509
Sc 8.45218711842224 4.8837500251900545 6.5773025545546195
Sc 11.338936611678902 8.967588572114046 6.120764165650765
Sc 9.75206489164348 7.376361802628337 8.123786040651297
Sc 6.08056769500623 5.918844866648931 4.659538346493574
Sc 7.678566315298074 5.581687985741227 9.538029318538392
Sc 5.4952068348240815 4.592450192195214 7.366378295109243
Sc 8.706799324689795 10.011421139721687 7.077893063593837
Sc 6.545274406709501 7.541705930718262 7.282031317635316
Sc 3.7330772480723473 7.064191016646941 6.3458090035384975
Sc 4.748688186332984 6.415078817332155 9.582279357456756
Sc 5.699710445187393 8.914351252552127 4.695943642426055
Sc 6.988338662280583 8.889327476884887 9.616161386166276
Sc 3.983180485192533 9.030624093727052 8.5728941594326
Sc 5.850898741601368 10.682258824754257 7.177298443313113
Sc 3.202873931459616 10.09328567394138 5.930271399907351
