11
Energy = -50.47731769 eV
Sc 7.179088023572819 7.626869145366774 3.2656012417367357
Sc 2.3352980110375627 5.379829782868839 6.220065370400646
Sc 4.194675397944539 3.5824830653808775 4.602029099088728
Sc 6.5438067365635035 5.393651304270309 4.937650692606684
Sc 9.1410193942838 6.342595605769357 5.449872204879481
Sc 6.778356757436011 8.173050403222511 6.076380847547966
Sc 4.29704274646883 7.0529219003593315 4.740465059442684
Sc 7.397840271231366 3.1971534658905 6.268982486258454
Sc 4.876500119864741 4.4773816637900135 7.205515033146683
Sc 7.274416273068937 5.906569927405248 7.868698244163356
Sc 4.376943475845324 7.262480942993514 7.759726928046
