17
Energy = -82.40750192 eV
Sc 11.866133095255147 5.359355030234954 5.434864881505268
Sc 9.24653751284813 4.399554815405312 4.404904006217893
Sc 9.791719718893596 7.207893241562437 4.510240150870279
Sc 10.035841740151666 3.97512853519785 7.3459149594129585
Sc 8.18982482428495 5.841258681210666 9.55164926309926
Sc 8.721551763274986 8.975673842883209 9.397920133666215
Sc 6.062908038283042 8.0678208023182 10.577990310081047
Sc 6.607150861845099 7.6809423721085075 7.6927826793745435
Sc 9.882474553131567 6.928799597960782 7.307083554595908
Sc 8.334909140733032 9.452421696539268 6.178675525067164
Sc 7.360354836116456 5.112451009650867 6.57330627873064
Sc 5.1425192544493425 5.513148410352132 8.955158343093293
Sc 6.213147909784806 10.45602946463939 8.468836576861756
Sc 6.9069660912699815 7.203285723712869 4.449863132144961
Sc 3.8483389575982927 8.362110582849862 8.407103699047418
Sc 4.394673312569856 6.430322795863364 6.048286257617079
Sc 5.139817144468917 9.41339929371619 5.740512588372285
