12
Energy = -56.50558346 eV
Sc 6.692903604112121 6.5949736131227725 6.352139082317622
Sc 7.692416633645534 5.18362500673641 8.766381573105992
Sc 9.224868183578208 7.512044125234942 7.633669710318959
Sc 9.017871846078059 4.742742305252759 6.100708227904813
Sc 6.214596018115131 3.6734990998197996 6.425460169230802
Sc 6.547423890691936 8.119254992834506 8.886285461660455
Sc 4.37921045266891 8.399138489051438 6.636954614280286
Sc 7.156665014895342 9.549140926086285 6.3084977922622185
Sc 4.627024297651426 5.708713850212312 8.230159671584135
Sc 6.816989076425429 5.028684703611181 3.8056266272127974
Sc 5.654914012869598 8.01502553111355 3.9242333614271576
Sc 4.174018011669523 5.672058399325671 5.128784751095314
