18
Energy = -87.82166712 eV
Sc 7.859315249708992 10.792077962356048 7.117305320627295
Sc 11.36021522951605 6.848727922792588 6.762292322290522
Sc 10.301970529729015 11.551524310374205 8.688012306205858
Sc 8.582364512177572 7.596676196077615 5.336147511828096
Sc 10.789350542107483 9.721535679469778 6.320677861974836
Sc 10.213964408136496 6.012943023666629 9.595665268461094
Sc 7.437266929707872 6.884863508404282 10.434485576984462
Sc 5.747232226973632 8.633088276047237 6.8483102522309744
Sc 8.755601605212505 8.071564503283392 8.007558715216348
Sc 11.743620782816969 8.850197470916012 8.971754283861664
Sc 9.197674720405553 9.525076908138617 10.509825184611975
Sc 4.799959844574212 6.686646556781362 9.174517666362926
Sc 6.7306037481747945 5.969893539108385 7.225886691717878
Sc 7.48097071323962 4.231236597220044 9.40721703494198
Sc 9.271189286779983 4.800023561149931 7.013711561109369
Sc 6.254813780993838 9.4275223282723 9.707052970881788
Sc 7.493123713855291 12.139713286431949 9.726107482136403
Sc 5.01177672251313 11.362361581316964 7.980730803593801
