11
Energy = -50.10923973 eV
Sc 10.81631589511232 12.44476127113356 8.846923354230729
Sc 8.359596997345504 8.080308639579748 5.438774625062531
Sc 9.696240244624208 7.420222060849373 7.960101568687799
Sc 8.378113457923064 11.213848922190122 9.772783625210055
Sc 10.922640362468599 9.7406523424619 9.83372589202214
Sc 8.494687016043901 5.404065437703849 9.985159070471946
Sc 9.630863443504346 10.357926501020682 7.197727681276663
Sc 5.882001914561027 6.840924863456613 9.921225796205377
Sc 7.1887715601235715 6.04640025201822 7.324519619057669
Sc 7.02898054869567 8.926190011262333 7.9113246635401
Sc 8.362625302073527 8.285536440799463 10.568570846710722
