13
Energy = -60.53858539 eV
Sc 7.018940157003088 6.395043192193481 6.087633784064877
Sc 9.814999984732404 7.68568110109545 5.564819626252703
Sc 9.391463175025585 5.38041871267624 7.6272927241843185
Sc 7.53760334088465 9.066443224259462 6.814762602444972
Sc 9.840055000975191 10.677059288036949 7.50703580091493
Sc 5.007303341873062 7.873572269735844 7.855823377922855
Sc 7.1998911018060445 11.010934002229673 9.01333839107629
Sc 10.117414472427884 7.953635070902227 8.44526692242937
Sc 9.754432035737876 12.640131511267816 9.587596689661252
Sc 6.669625954351934 5.476029216155227 8.944664216927713
Sc 7.246972338784604 8.127065244921384 9.73973171791823
Sc 9.470019279067188 9.861916625950125 10.531663465818536
Sc 9.253397224213732 6.174187947459353 10.60248808726706
