12
Energy = -55.45406599 eV
Sc 9.481618211167797 9.492728060363412 9.054360241152297
Sc 6.76460205279103 10.063347533901926 8.029129612674806
Sc 11.087558120265033 7.526270542178322 7.382118715444939
Sc 8.330507853423615 6.78216752951329 8.38004736420987
Sc 8.65382686470671 8.736623096936816 6.124895501824962
Sc 6.839880451104996 8.36327118400197 10.463649498906179
Sc 5.587761104568643 9.561971023437625 5.446667450572759
Sc 9.309661356511931 5.716644164999646 5.732442665666636
Sc 6.1748752010150545 5.443826159076075 10.016486155666401
Sc 6.605834498191818 6.837489931573287 5.191175660397158
Sc 5.436618108969339 7.375910607052616 7.838364095841798
Sc 6.672693278779338 4.597302004800499 7.154241077688337
