10
Energy = -45.67475774
Sc 6.6986148451558 4.336104996844634 7.1700444350540335
Sc 7.653615779417205 4.252632823068109 4.403039435826209
Sc 5.292833396555838 5.827126757815268 4.778864870934022
Sc 7.65361977941719 7.401616692562573 4.403039435826209
Sc 6.698618845155784 7.318144518786045 7.1700444350540335
Sc 4.064224832766875 5.827124757815342 7.513159019650691
Sc 2.4268050672981625 5.827128757815456 5.1523834366310295
Sc 4.286315840359445 8.298365022073817 5.624549387665892
Sc 9.210298351667507 5.827123757815377 6.431586733845304
Sc 4.286311840359459 3.3558904935566427 5.624547387665703
