12
Energy = -55.20659998 eV
Sc 6.887737278602402 5.644620854362533 8.046140937859715
Sc 9.295106454327913 8.844514097999465 9.485377252453869
Sc 5.039882235821138 6.845683521739006 6.001439763107287
Sc 7.606095314503967 5.671558938999089 5.103193423673574
Sc 7.303218323676666 8.611384550987948 4.923326016446909
Sc 9.22097868392566 7.466258674231869 6.93534711096521
Sc 8.909026433674828 10.388661713417454 6.9374427751506635
Sc 5.773660417924564 6.823570259656542 3.1366727892586668
Sc 9.541662736208735 5.861087212127521 9.475404093560561
Sc 6.62150760314787 8.720166498410501 8.033561646049796
Sc 4.431768965635413 6.890043725053272 9.068423997569921
Sc 7.03113772333215 7.076545448374686 10.563003451962405
