16
Energy = -76.94842771 eV
Sc 8.984629551839797 7.684759083833289 9.133016625783222
Sc 10.125596112252518 4.7127798983957305 7.1714985795115656
Sc 3.796937821473965 6.505665729484169 8.630771410202659
Sc 7.644389962556288 4.365237662916434 5.303318066581754
Sc 6.806925741565235 5.0842702043303145 8.417695397975354
Sc 6.117229818868263 7.611925946127392 10.283990549826438
Sc 11.147766307111535 7.600403817447673 6.859092954880052
Sc 7.195889174184339 10.125333453252544 9.086933682291033
Sc 4.072698840511809 9.48159316269579 8.982211483559633
Sc 8.702504846636645 9.39548977566677 6.218921251041162
Sc 8.404165677715076 6.720932943596461 6.644927522607573
Sc 4.840974497825947 5.440586939022019 6.0420597036846395
Sc 9.885798615213293 6.333280496102308 4.437356622561566
Sc 6.005201557842079 7.991416867345581 7.391950817799049
Sc 3.5002917911451594 8.101232799771779 6.0145728507989675
Sc 6.600778610670979 7.224830793863699 4.44110603019156
