18
Energy = -86.15658201 eV
Sc 12.307920437883581 5.330902521477491 9.158508167410963
Sc 11.329591748529499 5.292409152277543 6.419577592396815
Sc 8.08131067560773 11.823768053747548 9.763643143537845
Sc 6.554987680654399 6.488868908909572 4.54518582304785
Sc 7.003724052270294 11.956827441100568 7.013303710968036
Sc 6.835588231318258 9.339607574882187 5.590295298876451
Sc 7.462551194756725 6.947231118649978 7.366254800097407
Sc 9.568179220715542 9.273941272053937 10.657061680697531
Sc 10.298611104452554 7.333389734348076 8.34862698238108
Sc 7.562190993399936 7.073902895507287 10.421250423534266
Sc 8.582439680227214 7.769825573427641 13.095711610013431
Sc 9.351851371689497 7.523641775124007 5.215854836993084
Sc 10.266588429096814 6.144993749094708 11.214800633145197
Sc 8.53027714010399 4.678559577750388 5.641544964602755
Sc 9.407737354211946 4.640037503736256 8.686211343312452
Sc 9.085474881735145 9.953051829975859 7.503341712797517
Sc 6.892528614141876 9.784213707606249 11.777428178582747
Sc 6.404548346427182 9.561210996936492 8.753208409728638
