19
Energy = -92.35149362 eV
Sc 7.270746051763597 5.102059686137845 1.9596437684647978
Sc 7.598601306068724 7.998978543824807 2.563448953478238
Sc 5.117120775400485 6.59080596828555 3.6717635319322346
Sc 10.021240005292542 6.268098345642462 2.648933100195604
Sc 3.500710309618329 4.8619768717929865 5.4417835376486385
Sc 5.979660496607033 3.578665271968898 4.573443986195332
Sc 6.503530645977834 8.764678965725327 5.369244757042642
Sc 7.8732020528410205 5.958735844090874 4.748907249854784
Sc 9.581295148033435 8.48943197044608 4.718419232614151
Sc 4.429366730243349 2.6288520820331396 6.998587659293428
Sc 7.271802113339714 3.873942065952877 7.4799089671490435
Sc 5.5689443392174125 6.064242289902366 7.165760694145267
Sc 8.380714396467775 7.283355024503934 7.437943455992582
Sc 3.465577233463955 7.848415674284322 6.464026238067899
Sc 2.3855099414170273 5.031897638020432 8.031248233941119
Sc 5.9630103831106345 8.839841995325633 8.355686735908193
Sc 4.812103038540106 4.13382940191034 9.485837010893869
Sc 6.893467765207542 6.2032561725832 9.845284458624
Sc 3.917426580061414 7.01296550024023 9.57415774122979
