11
Energy = -50.12948207 eV
Sc 8.253692348850421 11.238057814698724 9.460659804349897
Sc 10.094570541725197 8.838372412706809 9.248082669453563
Sc 10.975356947145897 11.727048035547725 8.35013227093226
Sc 10.417473606810606 9.509314685963995 6.419362349683293
Sc 8.686613370523514 11.949728055698172 6.5958060682862305
Sc 9.478607391776492 6.712541174701055 7.2948897811486075
Sc 8.99511274988487 5.870245332458797 10.157548923190447
Sc 7.268033138872707 8.289806478948279 10.363012249733488
Sc 7.707060054285812 9.073769285951085 7.410631693742601
Sc 6.736535293491608 6.096487275941556 8.410505966498121
Sc 6.325101577271803 5.632786468023489 11.227525243621043
