18
Energy = -87.95137073 eV
Sc 10.27888138650991 6.471357188537896 7.572927463088987
Sc 8.460852578730503 5.79479778755167 9.791717059245624
Sc 8.046583530043364 4.531172227525286 7.024960409890544
Sc 9.936559596534323 5.408687455486277 4.672627980934678
Sc 9.502187332842128 8.286044747391855 5.268413311632031
Sc 8.79849483724879 8.817623538165106 9.035976184862843
Sc 5.600478725530341 6.811089871558745 9.984989678497667
Sc 5.982896929515726 3.94110367822923 9.389292970276761
Sc 7.3218378660501555 7.338601798421949 7.369378927701055
Sc 7.119856563481151 6.347145847831437 4.512433003398421
Sc 7.586567756834976 10.287851362299449 6.544856512944005
Sc 5.763259818580127 9.598585380227178 8.747290956887335
Sc 3.2201617686589117 5.060119718927053 9.650379285438072
Sc 9.142285178595625 7.282261727620626 2.4617859949755534
Sc 3.292177551941908 7.788889010085053 8.433408441258745
Sc 4.8760429343147385 5.589299409730285 7.192285225418814
Sc 7.228168086115823 9.213048216270954 3.684549925175688
Sc 5.107430676346549 8.585954053275008 5.957759867485757
