14
Energy = -65.91840579 eV
Sc 10.736201137286203 5.0102171672644555 6.78986953859095
Sc 10.338711857556566 6.879830015155257 9.081295055808841
Sc 8.476418101927438 5.071638305861027 4.800030574792612
Sc 9.243510466575882 7.497299040804116 6.228928258307895
Sc 7.671216606220737 6.6588854597807705 10.773313604747349
Sc 8.061919266269694 5.396985821190748 7.986035503920865
Sc 6.901417843897701 7.699337444638164 3.7699863209679307
Sc 6.08030652447948 6.230623261326113 5.974951588810444
Sc 5.91762044419589 9.063815302478451 10.984751038408884
Sc 8.021756215762922 8.901812803843816 8.915243282595913
Sc 5.506139570155041 7.327796617066062 8.630393434959695
Sc 6.932205949291783 9.292309040568021 6.211107739425891
Sc 4.316063572922897 8.531541342745902 5.66925177438798
Sc 5.133490392788826 10.207814535642893 8.309680240198281
