15
Energy = -71.15442172 eV
Sc 7.598736499584839 4.1033748483877766 3.809134899100288
Sc 3.713588285472411 4.130994196565566 5.667888223357367
Sc 7.48379908558366 4.10148941819803 7.7487779375976675
Sc 5.02257729564438 5.73707626552754 3.129151382989272
Sc 6.218361765730978 5.722011597918453 5.739993829945143
Sc 4.870769507099189 5.73429298038189 8.279625620512537
Sc 7.518149906032983 7.31001667287239 7.7527285049581005
Sc 3.7498996490454064 7.367005341680189 5.669751206914229
Sc 7.63535805268568 7.311551661967554 3.8128653740250296
Sc 5.053125534042163 8.746831784492658 3.1264164093796887
Sc 6.19862655917769 9.05985208887617 5.742218596088821
Sc 4.899527510461474 8.744492980057451 8.286234388940798
Sc 4.834334717058865 2.7243782591555914 8.281874608441202
Sc 6.123569363680926 2.383965459321804 5.736485333035907
Sc 4.984189047041611 2.727279222939051 3.1214664630564406
