16
Energy = -75.06711283 eV
Sc 10.486588907922862 7.522192388638201 8.560317572701473
Sc 8.732642867032975 7.593793860381445 5.8195263613564245
Sc 7.5039441099858895 8.19511815592721 8.501535295519055
Sc 9.49640861961953 10.235707344743172 7.397931288532332
Sc 6.809637851722188 11.133812943822914 9.035988389088264
Sc 4.818113959875904 9.147277498700488 7.892294403595554
Sc 11.705180297798737 8.682998459092499 6.099642870192914
Sc 9.233203576795363 9.674444696484189 10.410408544789144
Sc 5.923649892789576 8.98916345484884 10.830273451415145
Sc 8.467654581587539 5.272178438739246 7.867934019194465
Sc 6.0243942121581835 6.290472524377929 6.498373585128965
Sc 10.86559872782931 5.550613687102834 6.110448053143394
Sc 8.07644881296717 4.7971400933666795 4.937799243003083
Sc 3.8907612219319025 11.022838302760329 9.808696288259007
Sc 8.459683088067544 6.804515320868582 10.855137278565973
Sc 12.042414780383378 10.05539416000831 8.835137847156812
