16
Energy = -76.68088822 eV
Sc 5.8191528153619805 8.967457255353638 11.263467502939777
Sc 8.927584829819878 8.471150273726451 11.306946426730017
Sc 4.941212044124878 8.462421562846886 8.300645783823068
Sc 6.4399994916643575 10.020044907213222 5.912149022067115
Sc 7.693320035889607 5.413951360334399 4.3462851875166555
Sc 7.050283110840449 6.716834561364655 9.803175378554863
Sc 8.248624965508935 8.332854244399055 4.061137752082376
Sc 5.154413345772317 6.826133073169712 5.204371761402399
Sc 7.422095293565305 7.457802911086225 6.828043049037448
Sc 5.727992779478845 3.864009626879595 5.757814650167063
Sc 10.107011907135082 6.627281353396947 5.672950688437015
Sc 4.998004376214446 5.506688555368761 8.024591557111187
Sc 8.17573254543238 4.686260446542088 7.305935103781825
Sc 7.570012702990391 9.72018918665821 8.907020313692835
Sc 9.575557104835053 9.559306438532772 6.490803066896394
Sc 9.806458987287765 7.16589062106155 8.578991863729733
