18
Energy = -86.68783279 eV
Sc 8.432275908019603 9.02307720314033 8.282860717344002
Sc 3.9127476320510652 6.909799924566311 8.119362577720592
Sc 6.4003684782310515 11.28979015552659 8.29637969977997
Sc 10.926363357044716 9.229428451173053 9.904266853282719
Sc 8.37109268967499 7.091030626632266 10.587996356215273
Sc 5.816684691762321 5.524253096348058 10.382305705791662
Sc 9.444119219761918 4.683413195461076 6.377954686999182
Sc 8.41380315910219 10.851884016229862 6.003275541938635
Sc 9.624275014803358 11.696269581542449 8.618465361327686
Sc 11.04659971436072 9.47678945156308 6.927855493228867
Sc 5.628500124605826 8.564431336424024 9.784365336302734
Sc 6.996931994540343 6.173651339917256 7.819563004488312
Sc 3.57247822750367 9.951236599195038 8.095042174640971
Sc 10.519905936844143 6.640717127088344 8.320322184336693
Sc 11.636521104011797 6.645837106397607 5.5774992473521525
Sc 8.914162293124145 7.591461991098259 5.648242330377749
Sc 8.688394557076899 4.421481640064622 9.52210361928274
Sc 5.85378766330103 8.825265614730235 6.6668611309684875
