16
Energy = -76.76386638 eV
Sc 6.2044259135052 8.92893399825563 10.213498325636987
Sc 6.561989559984252 6.8992033796205074 5.320478583104413
Sc 7.973534595160418 7.982243997757402 7.821943093121903
Sc 6.285948931004088 9.830390115395769 6.88909643257875
Sc 8.137293463209136 5.2513612519725905 7.415548349344608
Sc 10.053553901756672 7.107385726662927 9.833382305797704
Sc 5.373092736951228 6.776505663207782 7.895182205783554
Sc 7.905544682027 10.811995183336379 12.473142811574924
Sc 8.325862276642628 8.029771362109134 12.110485873516012
Sc 11.605980754543209 9.460817242751817 8.949638705986464
Sc 8.477830306203295 8.938917844508685 4.803656552416166
Sc 9.607730073600578 10.359117608648077 6.830037572247843
Sc 8.866309269701933 10.118216502928142 9.800506454217143
Sc 7.209823228831848 6.035114141986789 10.19861173018206
Sc 10.514009687201511 7.507396958761592 6.6576071235656755
Sc 10.765499140947862 9.631765499632944 11.931346872814613
