17
Energy = -82.03282303 eV
Sc 8.296224205406821 5.395687435777339 3.897666322772906
Sc 5.66763589220918 4.700300072721225 5.879292266492036
Sc 5.800986198338184 7.1219168326581395 4.295681689316284
Sc 8.382979874318185 8.593875692515452 4.279603121235832
Sc 8.981404577794532 3.8947900910956816 6.508311715946411
Sc 10.49678439283253 7.819614417187079 6.775197498410302
Sc 3.396064894359659 7.366694483780823 6.229952074739584
Sc 8.094288061446038 6.571370825469185 6.429689290728873
Sc 6.762016012333297 4.4702917403691576 8.568465962010297
Sc 5.891815549759247 7.318959121350055 7.553358307392734
Sc 3.9352664244801243 5.7246159501475695 8.812019165605504
Sc 5.456191521583638 9.630921005744849 5.675731889049436
Sc 9.324169167139761 5.774378790543904 9.03679070818181
Sc 8.040411541494816 9.856895459472646 6.889308709515605
Sc 6.451335202256774 6.800257502118156 10.393400039973786
Sc 8.492232066748478 8.526507658095069 9.223065167567327
Sc 5.474089362742677 9.643736291594458 8.90494704389709
