14
Energy = -66.91059252 eV
Sc 6.528065107198433 4.980752785833231 9.086277039827483
Sc 6.979510955842635 3.980499515433182 6.184531923916722
Sc 4.357194939820193 5.4010217726528005 6.871172455934386
Sc 9.322481882466873 5.1814210873766635 7.7428888654259715
Sc 8.867283690560727 5.891646159261302 4.708923855169947
Sc 4.480027300415064 7.22388806833777 9.177230084625961
Sc 7.0416917990318035 7.00720726324683 7.000530716033015
Sc 5.854464296177022 6.2707237397973286 4.338957069010706
Sc 8.383895189308836 7.708129225233525 9.405267311954844
Sc 10.006992395417951 7.9649514248211855 6.6520253040731605
Sc 5.998299427636562 9.481924160784281 8.851793120308502
Sc 7.679069778389376 8.757842730305187 4.7210348361797125
Sc 4.758118503248219 8.522738777219379 6.268428695081147
Sc 8.194246219132056 10.165027542502314 7.36079040865661
