19
Energy = -93.91625085 eV
Sc 8.309999519508425 9.0906189054745 9.140187915064503
Sc 5.387213623705262 9.887115406749848 9.046527513753816
Sc 6.205766770564513 7.093734842670335 10.190658834041697
Sc 8.943158398821142 6.069761788867001 10.544480485895532
Sc 7.108391263221393 11.267821312406 6.830471225983483
Sc 4.362854570098086 7.223269315340631 7.870897769872085
Sc 9.352613282728324 8.751753264876148 5.943857973592394
Sc 6.830673710460076 4.091772321778085 9.201180161239241
Sc 7.882460538600189 6.269572876027726 7.6879287428201
Sc 10.688219458113297 7.2913385890497455 8.327398229526942
Sc 9.955925367579828 4.233638275497904 8.446661268637454
Sc 6.58453568054973 8.58779117453399 6.619764226917379
Sc 6.524809946232623 9.679329071893799 4.106199813579238
Sc 5.367683885465285 4.863460119281192 6.448956871115754
Sc 4.32355353799811 10.160345493503431 6.115388172995997
Sc 8.051341300298875 3.6706917306624565 6.18405787853026
Sc 10.235721462608867 5.775132874963352 5.733846900838473
Sc 7.389344602180441 6.356585828583556 4.567951159663774
Sc 4.514045422143679 7.428539358651185 4.805074860505363
