11
Energy = -48.05332622 eV
Sc 9.006959406226796 7.123877560446542 6.234205337966528
Sc 8.846801329361822 10.126772915640863 6.2528689051818835
Sc 7.319468680451262 8.697613352252855 8.188184093287445
Sc 11.307718563620831 8.796002480905805 7.199775615713812
Sc 10.507824186138928 11.449438506046372 8.443287084573774
Sc 11.931189089064098 9.343358085706592 10.093130476610222
Sc 7.489415668121616 11.7479592689871 8.403387523293366
Sc 9.806234520307042 7.365548495160119 9.138743792369025
Sc 7.342234896653189 7.46971840830647 11.056349583192315
Sc 8.972373617078162 10.01849550516778 10.448206695507267
Sc 5.926060834015195 6.317496212419088 12.998141683343572
