13
Energy = -62.96407733
Sc 4.328813436197738 3.733423415709814 6.142291569084759
Sc 5.861932909922256 4.777628282632358 8.847445894089162
Sc 3.7598617487396315 6.294248473170262 4.485499433325511
Sc 4.786762687924431 8.904459416873983 5.88726220996843
Sc 6.121419840776 7.794506187503383 8.365927254972071
Sc 7.587214664388572 3.4898449554667343 6.372782673437615
Sc 8.569216851879562 5.96985436376126 7.9337491113689085
Sc 6.211677221763242 4.52671721888639 3.641114808683267
Sc 6.441421099346658 7.606186390131021 3.658022791614292
Sc 7.9415083928685535 8.669491988547298 6.111280633966845
Sc 8.756433828103676 5.919994320419259 4.8384709569923094
Sc 6.142540702153903 5.990444099881791 6.166168830829714
Sc 3.516541616788667 6.348545887869325 7.575328832519887
