18
Energy = -84.78736186 eV
Sc 8.200687373394993 11.202166434101072 4.855226045815091
Sc 9.083369524059194 4.835454397635782 9.004917534378967
Sc 9.743324215626414 4.5916041277379644 6.108031372425142
Sc 8.235617694891777 9.442426578821484 7.270238129750883
Sc 5.603010684414018 8.698173550473193 8.319693302705755
Sc 9.067271707696278 12.277316957690056 7.816557935159527
Sc 5.585605374313958 11.916482132112431 4.040350575751696
Sc 10.358433230200424 7.093089349120664 7.451784913699365
Sc 7.535555606094794 10.646564485020434 9.889562926633515
Sc 8.324850571248565 7.63877843225754 9.666715090333014
Sc 10.919360120238085 6.731181916473369 13.740558979566732
Sc 6.14505700471067 11.535775529209829 7.0726607051242505
Sc 10.418851853885203 9.821590732489275 9.426333660928169
Sc 5.976215426389031 9.22605250091502 5.237888002818342
Sc 7.511581064820009 6.4380623494952465 6.846262701675421
Sc 9.440487218845131 8.775692969897682 12.22688944816421
Sc 11.0251347851813 6.7979297789439705 10.673492801713065
Sc 8.698907758253819 5.885614478384429 12.159652037586454
