15
Energy = -71.10644466 eV
Sc 5.484300643972959 5.937779418864205 8.029514127839752
Sc 8.468749610081272 6.664078516803785 8.55745477515861
Sc 3.8994666148492905 3.2614237478014076 8.226800190732874
Sc 7.220210364976038 3.6046257322823196 8.054423192430187
Sc 2.711985028075716 5.390930080349085 6.53967081928974
Sc 5.206792842411064 3.9298788164655907 5.707683130409505
Sc 7.695281401063985 5.783183629274257 5.888110910538321
Sc 4.8822150789807175 7.044454444314784 4.95618082172219
Sc 9.643171116293479 7.9565061045770085 6.021275898600902
Sc 6.926951012249241 8.529684742174826 6.84505125606172
Sc 7.409532720736211 8.087739275662232 3.7300468590353915
Sc 4.834007307640373 7.393503965434508 2.021023851444039
Sc 3.2870564252787364 5.017108251433717 3.431018186621729
Sc 6.332843558199476 5.2821564965004635 3.05438221623875
Sc 2.5688988259924352 2.6884096008038965 5.508826314677807
