16
Energy = -76.97403485 eV
Sc 9.790359700485324 9.565997842046114 7.270188826608815
Sc 6.947254703153369 9.881687131789105 6.411777428277147
Sc 4.517052427523917 9.158065839226696 8.031795864332768
Sc 8.776966178533238 7.339517535719009 5.377500249945194
Sc 7.306660378255452 8.668650108485668 9.111735426529618
Sc 4.398954925476276 8.701223138005806 5.062110999969864
Sc 11.579813378850375 7.362672315305918 6.220935887502465
Sc 9.474426415078037 6.888002773629834 8.244642660970179
Sc 6.115952076426528 6.922517049099908 6.8454096831620985
Sc 10.07646865903905 4.738960300000466 6.436098960054195
Sc 3.0952503765445303 6.727197535428897 6.957176512078651
Sc 5.006700019474915 6.413882220577634 9.465428498058007
Sc 4.558465688673617 5.608497079201179 4.5583605426969935
Sc 7.551660473807464 4.681195981992416 8.430779868632206
Sc 7.268954999052009 4.3964268084965115 5.467412474272913
Sc 4.80979727770751 4.2391944748068155 7.216938821771505
