16
Energy = -75.78550887 eV
Sc 7.417591665204863 8.344240835805765 12.457197099345207
Sc 6.073773500324783 10.611014136450338 10.311405118816575
Sc 6.930736354601221 9.78683920290095 7.477453469982865
Sc 8.617902822416767 11.863836837548469 9.013752169503165
Sc 4.129468053849884 9.289234374099303 8.20554354627766
Sc 11.025735099652488 6.901969492337683 6.091670163124992
Sc 5.681851424639438 7.138158776244195 6.716992284487388
Sc 8.584470174885196 7.021852653236318 7.677361435748477
Sc 8.702788497756334 9.139559033655921 10.009760995729387
Sc 8.789545126498115 6.2586522656444 10.675126381641554
Sc 6.035981884997303 7.645973695367466 9.749462305087901
Sc 10.028295236208484 9.649642554788441 7.138171462979546
Sc 10.456802820501391 8.134967890353035 12.206068482092604
Sc 11.188744485339235 7.513849579341422 9.093924567318908
Sc 10.474547692541543 4.803146572833871 8.303004885709475
Sc 8.294688561031087 8.290190349251258 5.04457505019264
