16
Energy = -77.3370259 eV
Sc 6.520445339625575 7.231141886322547 3.484405306909129
Sc 7.730931789925937 4.554277192426837 3.9996155162272053
Sc 4.902777028534331 4.802526944191253 2.835617624273777
Sc 3.4914932020611995 7.433679257594917 3.564797080588654
Sc 5.179107193975634 9.137854375356332 5.350803637238218
Sc 5.594623669921522 3.037693495927168 5.327358443100857
Sc 6.007054543523371 6.214321612333067 6.256198160723653
Sc 3.4819758564712497 5.122793516756675 5.419832682826227
Sc 6.819009369487662 3.739584622947571 7.9832463106773
Sc 2.963215336510679 7.754279600077058 6.69787660183125
Sc 8.453866566756222 2.3666512125696904 5.8642349209664015
Sc 8.055140830593166 8.180408148642716 6.17489967335833
Sc 8.961553463309349 5.242372061689308 6.66060170445751
Sc 5.49282999372453 8.48515871675627 8.24197939659159
Sc 4.347349867576146 5.669459950263555 8.577268462575276
Sc 7.411322944205329 6.440494402346931 8.973961473856969
