15
Energy = -71.10815497 eV
Sc 3.402314188130439 7.6895273237043025 8.816508409510028
Sc 4.585367345100634 9.700475322756633 6.872673550653631
Sc 6.315740106302719 8.743177136700373 4.525123774202692
Sc 5.553087726115957 9.554379210839201 9.76306006425266
Sc 5.086745607877215 6.917463747373382 6.479279297160628
Sc 7.435600858061085 8.677298766605816 7.428420974036768
Sc 9.460831034821625 8.711572744493468 5.107927754873338
Sc 10.48129961669805 8.511677218056347 7.893688147455028
Sc 7.919783172441955 6.181946640860456 5.457560284677983
Sc 8.433824235309517 8.450879351879413 10.293339020255681
Sc 6.187314550924108 6.712454477627454 9.47281277411162
Sc 10.884934708716106 6.21536834963131 5.938980335927705
Sc 8.953785390468814 6.011436313121556 8.36336164066686
Sc 6.541300680232962 4.450247987762938 7.494248917611551
Sc 9.288438559745572 3.701745650691797 6.43819171688334
