12
Energy = -54.86431137 eV
Sc 6.461969425295228 8.375490899944316 3.9821451581159453
Sc 5.8055835337814345 6.097368665685561 5.602384341882079
Sc 7.722214826778389 5.1670790703784 7.538768738491351
Sc 8.873404834413606 7.217538399425902 5.513086128810187
Sc 8.427738479322528 10.195420100013582 4.919656724576094
Sc 6.892210250799312 8.530622502577653 7.0496053588025465
Sc 9.673908098342837 9.699425603665597 7.443600140118287
Sc 9.714449567059658 7.015188413285655 8.48924766843568
Sc 5.579596476395307 6.497266616616687 8.920860176303737
Sc 7.781721615093339 5.773260826165423 10.628988783445392
Sc 7.813101548931354 8.591576474756014 9.969669648952875
Sc 5.537509030452253 7.773219485164052 11.405970477419933
