13
Energy = -60.97813309 eV
Sc 11.05279320024252 8.753895126100405 8.099294820038304
Sc 11.06232568088985 6.902748923276218 5.7897809604862545
Sc 8.765829201176976 8.746739715784626 6.1995870784526925
Sc 8.248244179304445 8.967373158555574 9.31401198155323
Sc 9.235106682742838 6.318448334092176 8.151336599101423
Sc 8.25684839690589 5.7630647883716914 5.322559731955942
Sc 6.606495697428524 7.32565343938284 7.369421081516673
Sc 6.302534159555549 4.579993415164561 7.393867554404528
Sc 6.331827357775847 6.641505073808418 10.02917824458082
Sc 5.168606153990423 9.297924266290247 9.004164761575439
Sc 5.192922349670126 6.2538609215819045 5.051025916074694
Sc 4.987903191666806 9.15817043102764 5.964797623242732
Sc 3.8986746582976677 6.8719494756852155 7.720410098260007
