19
Energy = -92.29361364 eV
Sc 10.341141248141842 9.894313514031644 7.2294145102439735
Sc 7.856494645729166 9.333250149049576 5.472517936413435
Sc 7.894097484812611 11.579774645416835 7.710622774833288
Sc 9.784964535080046 6.906887525236428 6.641997789926901
Sc 8.028909792308266 8.78360470062881 8.70270881219786
Sc 7.930742607673075 6.479130465231806 4.063645994117883
Sc 3.6743331089624904 6.670381602325733 6.8828887910032535
Sc 8.110554829366183 4.202908872707806 6.2478733692070465
Sc 5.209641683581947 7.995819464527745 4.470127232462802
Sc 10.756491663398778 7.936878245861961 9.482136400752799
Sc 3.072883254408332 3.575623011008435 6.354471516039015
Sc 5.664410078305469 2.0994330973672697 6.016815347620925
Sc 6.709490308508806 6.8109112659390805 6.772394594802026
Sc 5.329275654328196 4.8352884174313076 4.858665286408205
Sc 9.810752336690603 10.84698125336004 9.949506381711384
Sc 8.309525289273234 5.639366128056673 9.082326107773325
Sc 5.450014268207994 4.293504681713761 8.00437336102716
Sc 5.255089849920866 9.454617589296497 7.249452109260171
Sc 5.391215826577296 7.129524154643314 9.43594170582285
