12
Energy = -54.80890101 eV
Sc 9.640388893742438 8.93598973355173 9.022608670829493
Sc 8.391082024550911 7.6010665287442745 11.296618232446301
Sc 8.60575567991509 6.091191470236817 8.668584777914015
Sc 6.729065445490306 8.228379994985033 8.86161559629285
Sc 6.264271248472598 5.723097231374645 10.532134620956125
Sc 5.638649758902313 5.58655128975216 7.679043307409039
Sc 7.76363062628024 5.49179297908406 5.629455679858812
Sc 8.666131325551895 8.171746954782682 6.351426623584899
Sc 5.712166826568365 7.871407354972647 5.756182438322427
Sc 7.267558605417238 7.349065554749487 3.382920056867667
Sc 5.152534479204674 5.415705211335635 4.284070789963832
Sc 4.454040865110138 7.866557495048785 2.951250184626767
