12
Energy = -55.09995863 eV
Sc 10.471597169187211 9.728867567059703 7.8524804201487655
Sc 10.37097167263948 6.790232565218328 7.30460630861995
Sc 7.925183025718384 8.419346717488658 6.805331162509619
Sc 8.368016908425727 11.424226247799536 6.394340083617932
Sc 6.363178889015133 10.402105453116675 8.39090774098509
Sc 7.031060892277177 7.772778101461724 9.650262820150937
Sc 7.683787949763368 5.495798351273196 7.697232961283147
Sc 12.102337064725857 7.765359288791517 9.55867164912114
Sc 8.708744674395657 11.607751477025277 9.37115673760587
Sc 6.848568420393708 10.319820955323587 11.353027794840935
Sc 9.559600652666802 6.200822207362394 9.934454751964232
Sc 9.576937133559827 9.082875520847866 10.697512021920218
