18
Energy = -86.07465703 eV
Sc 5.974263576885684 6.379051059462661 11.519775192120198
Sc 4.8247931036299585 4.011678215389935 10.725455273840787
Sc 7.4224492793050505 8.347263191012036 9.955760166610467
Sc 5.472216844149221 9.556878500369615 7.910883670348985
Sc 4.7623563078377 6.376988626874072 8.624964633372043
Sc 4.866225653243695 3.248035483770506 8.10519466528954
Sc 7.354384813110387 4.947557453400875 9.070292880572335
Sc 8.687956150362469 10.013420330392805 7.837918155743009
Sc 9.873089111126706 7.086040536012855 8.600256884350278
Sc 7.332647494654782 7.397190857531341 7.074845928625978
Sc 6.088723309891494 4.8710791456687215 5.978268965508831
Sc 9.912711992832616 8.154010452869883 5.546437738354952
Sc 4.7667055228952036 7.625984358558992 5.584276763433339
Sc 9.733869690543928 11.08101654281687 5.081160593256664
Sc 9.134492829334272 5.151087870553881 6.296983002582027
Sc 7.07684296263926 9.754873986236987 5.089861147611765
Sc 7.468859771750508 6.769688130411368 4.055241659666292
Sc 9.038348271321954 9.207793030778653 2.8628160753899103
