18
Energy = -87.8457755 eV
Sc 11.419326609758281 6.7987282161216145 9.083715899531471
Sc 6.271926855119148 7.697096236064653 6.864062944960643
Sc 10.081268135630213 8.299013810684931 11.336934803645823
Sc 8.171159983650318 10.608189834094109 11.392483102434596
Sc 8.66214761456696 8.949939582289327 5.455075338214326
Sc 8.864360436412136 5.527477619580694 10.346154981377115
Sc 7.916122241939305 10.888804795681496 8.56849108020083
Sc 7.711825736085107 5.113609367093887 7.606642458015897
Sc 8.818450891177742 8.087090945433134 8.428475570993344
Sc 10.69289094029785 10.579385338053402 9.423797076101197
Sc 7.24346982686815 7.9327252706139975 10.943657306176513
Sc 5.5884737377358125 6.283258589750645 9.361580399117015
Sc 6.406078254176381 10.618408101293094 6.245741370045478
Sc 5.475050422595308 9.479450207087462 9.17453274384303
Sc 10.092420426335467 6.326921853115933 6.325032886833257
Sc 10.41507492236332 4.023718795413542 8.226958581536058
Sc 11.319315705170059 9.043532603247598 6.955190462770813
Sc 9.639497419521142 11.508001339260058 6.481601006158475
