14
Energy = -65.96408928 eV
Sc 7.120363651770176 10.074882671142374 5.2737182538636125
Sc 4.76645305539808 7.965835873880353 4.699758900705165
Sc 7.456052868085535 7.338800001829513 4.246539974419992
Sc 8.025453066323243 7.682609630712257 7.30942388767663
Sc 5.265002591305753 9.316929289860878 7.255284186298983
Sc 7.840641688781772 10.449883253976894 8.382947068329308
Sc 8.60646387954396 5.079132101463486 5.678683428217647
Sc 9.167081871511288 7.8330622335009785 10.047953555198548
Sc 5.923010001225332 4.870668083965102 4.55038859226648
Sc 9.638091702754503 5.08877476864663 8.438053212328343
Sc 6.296025080138686 8.41677231585568 9.836807532197666
Sc 5.473724650289448 6.2259940848504005 7.058847836832019
Sc 7.1296788855077615 5.62303086693488 9.61066507152944
Sc 6.967677278226813 3.6456923642419685 7.436155546630072
