15
Energy = -71.4767014 eV
Sc 9.240752019470266 9.495226684121178 8.469401773263593
Sc 7.551664004568507 7.344281056598757 9.8248066706044
Sc 5.913142392303287 9.253861015956803 8.073135109615967
Sc 4.42337160901 7.9388895515740865 10.209848892823883
Sc 10.401408775686146 6.682639055376382 8.420940016561625
Sc 8.017657871676612 7.35070733667846 6.845994478230294
Sc 10.748939209354512 8.263373886497574 5.93998028960072
Sc 5.291043887513607 6.207119999727355 7.911618796227968
Sc 8.037479193939353 4.675740877160907 8.092125670259817
Sc 3.1570526114373894 8.115972694098925 7.3636083681793805
Sc 9.907577023877655 5.434519968969051 5.680425874832875
Sc 5.3722217900564875 7.900142719652703 5.279738118826796
Sc 8.387279724199013 7.409552045770948 3.9258549390298136
Sc 6.717704727893708 5.19075958375987 5.178944992008542
Sc 3.570339152511322 5.6116886365374 5.523031683316516
