12
Energy = -55.65849646 eV
Sc 6.958167314234831 8.357046884523095 9.265086075318166
Sc 9.4316972452765 7.277604904764444 7.975750208131052
Sc 8.134168346673562 5.7114636436609825 10.260140558107928
Sc 7.260579845061937 8.709631655192272 6.106403040570118
Sc 5.06633868344798 6.2810740275410435 10.005810768600377
Sc 4.5640320649181145 7.977305430189097 7.424187314337481
Sc 6.839493098078346 5.855670738423218 7.669515187619257
Sc 4.811675620223677 9.118962275753276 4.413387227294434
Sc 9.415090151252672 4.378541275577868 7.72911265992999
Sc 8.746691948174957 6.138345869527546 5.2161403045801435
Sc 5.65925262376853 6.460097351942691 4.926714595187454
Sc 7.163044313791586 8.078299231458233 3.1631683873110683
