16
Energy = -77.47616614 eV
Sc 7.17997503460225 3.409317807015456 7.050092278900558
Sc 5.838768977171492 5.097936670421163 4.820548082795055
Sc 8.944079176097997 5.515924926067433 5.364166714351052
Sc 9.284686711236947 5.256318951364959 8.484187879560453
Sc 7.158898283586911 7.761963593019571 4.441464770515872
Sc 6.735858832234196 6.303994050510502 7.388163460410749
Sc 4.3177369853709955 4.748210224443052 7.491768609052714
Sc 6.49985632913624 4.65120001046501 9.819406002707845
Sc 4.714272018643028 7.151813672264214 9.398842606726886
Sc 4.566099415188994 7.8145294143783826 6.176191735141498
Sc 8.811530759019762 8.133902641005363 7.075141560690255
Sc 9.7795466793154 9.431780527757208 4.879894158914373
Sc 7.808500676476475 7.592591814042477 9.990639232708636
Sc 7.0829243856588695 10.384733070950855 5.642111918138467
Sc 9.058810955622063 10.746645074629704 7.818936491420551
Sc 6.225072008376562 9.464196711934138 8.237200943507652
