14
Energy = -66.90730017 eV
Sc 7.733379572432432 9.796448398254558 5.4526729432455605
Sc 7.447743941958409 7.635396180864873 7.433921097388068
Sc 6.049977742449491 7.286500628952725 4.6134474729988035
Sc 4.897293127202114 9.192342457202459 6.4894931740476185
Sc 9.016272502307935 6.5684290135839065 5.427690060104986
Sc 7.0411780457683 10.26644539257672 8.426560700872727
Sc 3.6010625864511017 6.549871618702641 6.252521273025005
Sc 9.803847925705808 9.277064136138918 7.705300993541316
Sc 5.133862333065487 7.1959114601381495 8.846883345890488
Sc 8.432709842634114 8.07153327709655 10.160962582543824
Sc 6.282336933561397 5.124296916241057 6.619193419155071
Sc 9.06469481820637 3.879981350048534 6.934431324915845
Sc 10.120377987721685 6.293883833527991 8.28225239713266
Sc 7.62012857429576 5.1631496199559415 9.26776102876239
