11
Energy = -50.2976667 eV
Sc 4.525537766221525 10.205300161172406 6.677215971218756
Sc 6.740532756536485 8.285548816776071 5.800828468667222
Sc 7.325205471235003 10.903496771727296 7.186933881118761
Sc 9.229463104701042 8.68419676320924 7.72873846031916
Sc 4.04976704604183 7.315593089971416 6.762847718429579
Sc 9.017593754803235 6.135863288140795 6.297793387362715
Sc 6.180961802194641 8.472942635913133 8.572046655632105
Sc 6.347404249195714 5.544321080827858 7.352964276657344
Sc 8.40874318080797 6.3299383945211805 9.276435931128011
Sc 9.03293898994474 3.835214369406531 8.013192074377443
Sc 11.08076171759646 6.032718959862592 8.28392646555688
