19
Energy = -93.1505356 eV
Sc 7.404289415147421 4.883816468403071 10.561869824174929
Sc 8.744884577243624 3.667960325235036 8.041258576392613
Sc 10.014053792500233 6.1693660494768405 9.562440318873676
Sc 7.673441113640993 4.705599060369668 5.124421262275113
Sc 7.635243517223994 8.012491273232778 10.337477699015887
Sc 5.526713223629409 4.348156169569315 7.513027115056096
Sc 10.212965440304329 5.835514657376445 6.575309351927273
Sc 5.040426999085552 6.587536919461137 9.76655397251361
Sc 7.600873024549989 6.287452730792018 8.055729884751266
Sc 3.5375583194052473 6.651809139752487 7.220413806623723
Sc 8.869497659017128 8.760291302871872 7.375625745795312
Sc 5.68079758479878 8.947430348089263 7.913488885115585
Sc 6.214773008134471 7.1194401458992225 5.755571031269421
Sc 4.187810957200587 5.829112916901682 4.295656121907724
Sc 8.941460568890044 7.582015755502615 4.563789399163174
Sc 3.7393632498977003 8.749728772668345 5.254978447140462
Sc 6.604381887412779 9.62939031362417 4.512577783419919
Sc 6.69994617739225 6.944242869765732 2.8433433805629598
Sc 4.328171048366577 8.522591955249428 2.471998576174885
