10
Energy = -43.3208852 eV
Sc 7.526249367385852 11.424079439878303 8.314859677750428
Sc 6.918007375417561 8.911038326691656 9.67216197780087
Sc 7.0477041946106365 9.047761952332106 6.541647192722828
Sc 6.3256744864063 6.389675221128951 11.004368094897973
Sc 6.394944407601616 6.309352836060284 8.008010890224627
Sc 6.4693004836875945 6.540559172949131 5.030430642802465
Sc 9.600700834541804 9.266240219990964 8.086481524720492
Sc 8.944406909819302 6.5271671085927645 9.553884263239684
Sc 8.977511655978482 6.761184130751244 6.566634473020771
Sc 11.50813008538089 6.965050054509549 8.078010244902906
