16
Energy = -77.28266867 eV
Sc 8.328913296694138 10.097480213209547 6.71452952339083
Sc 9.202886539465702 8.359375803483191 8.879711212958806
Sc 9.697273258023229 7.40984864421929 5.783188725483491
Sc 7.118989514720341 8.85460728280893 4.3775792693063655
Sc 6.58693905159752 9.615199866031801 9.182857987950714
Sc 9.449208707569609 5.5282478517548075 8.453087624460387
Sc 5.293055463391352 9.922893147856595 6.386960754683837
Sc 7.362208385612107 6.0221443315932115 3.9527409161772447
Sc 8.826993026592987 4.378577029657366 5.854098703312632
Sc 7.002898452454859 6.993763156385003 6.9875703061796
Sc 4.287371065183059 8.00832012892771 8.356648334830489
Sc 7.093819352402102 3.8162492201004663 8.308791332079869
Sc 6.73652126448853 6.52373566097137 9.95640236443451
Sc 4.54751293361229 7.042946737696051 5.233770875202408
Sc 5.799266644827398 4.123097548834724 5.51710974636767
Sc 4.534281029153381 5.177178562731105 7.932804265341753
