16
Energy = -77.13192745 eV
Sc 7.0033776678885244 5.0407413474877 3.0313506805754846
Sc 5.72158400317996 7.4346640391437155 2.090944012007386
Sc 4.237094469319554 5.487291834375207 4.058846198410759
Sc 7.985136710432721 7.510241342312971 4.1942770462726395
Sc 6.400110108151799 2.790696662335188 4.747353921743306
Sc 5.106692178410702 8.359717318026997 4.8990326367382835
Sc 8.751173459637238 4.531470553860187 5.506900144750181
Sc 4.565681457321327 3.9542579761571677 6.688250958035272
Sc 6.405809824415805 6.005742385454642 6.213715869577579
Sc 4.458024348601157 9.745332313618453 7.494578174065368
Sc 7.181972302843675 3.0519247159063627 7.668566700701549
Sc 3.5095371564498596 6.785174892278816 7.059988345887401
Sc 7.3351695280600655 8.714502911789243 7.001880369372026
Sc 5.324141665843632 4.7538694500544025 9.371656956852819
Sc 8.041628041452356 5.839531388176425 8.550295628877098
Sc 5.580479590106485 7.6024533811374235 9.029974868246677
