13
Energy = -60.63319586 eV
Sc 4.9425876706168825 8.84491055717932 6.509788787292595
Sc 4.942579824674756 2.7318262033904754 6.509790094949406
Sc 4.858224606491853 5.78837164942749 6.615903399628427
Sc 7.318541929181685 4.2565920679263405 5.637032421759728
Sc 7.318545852152747 7.3201342313872 5.637024575817351
Sc 3.2489920570820305 4.216026407054056 4.453300713926011
Sc 3.2489985953672202 7.360711661172549 4.453308559868261
Sc 6.714491898736431 4.23840200977974 8.518605516421529
Sc 6.714497129364555 7.338298136393181 8.518598978136342
Sc 5.670342053058181 5.788372957084427 3.55683678424671
Sc 5.583982620131467 8.892069961362035 3.5735436962188145
Sc 5.583978697160151 2.684670722178697 3.5735358502766896
Sc 9.102967203633376 5.788344188629805 7.6914616820806865
