17
Energy = -81.66709605 eV
Sc 7.076777994512551 3.329523882483283 9.335580454834044
Sc 9.246344435649357 5.453388471945273 8.360118542186408
Sc 10.524401410648496 8.104945185182885 7.346659013447398
Sc 6.215898540803692 6.152307037925106 9.385000188123145
Sc 4.3204275557079495 4.093707464139746 8.118576396461021
Sc 8.726108817813502 7.995483266833433 9.931266805304793
Sc 9.378526992091176 6.063243256393234 5.318680019882616
Sc 6.784991279278083 4.717832292493936 6.638726741934288
Sc 9.073509660244811 10.524599292953749 8.579138291873761
Sc 7.604328918741363 7.87499318915187 7.1254201271609645
Sc 6.109389387482028 9.677202486440112 8.70525920919092
Sc 4.171556947082744 4.778960716741773 5.0830109753139885
Sc 8.688519925466911 9.051994704648086 4.724588839532414
Sc 7.481009183508907 11.279027794584826 6.481201239984045
Sc 4.586479582084672 6.93668871258131 7.043968842332528
Sc 5.599086985998935 9.436334609396445 5.434336231807671
Sc 6.541525925739931 6.789852341758489 4.363565715785222
