17
Energy = -81.72219451 eV
Sc 8.049656830933298 6.918250867143238 4.679158312327038
Sc 8.220042129642762 4.129110992222042 5.9115984735191995
Sc 4.806099508684774 7.227982184100184 4.040888784712898
Sc 6.54216506609482 4.532029106463065 3.3750858596019184
Sc 3.5246615202591705 4.202270040424444 4.08310101933282
Sc 6.598492293501294 9.483752289618772 5.4792271868797515
Sc 7.403922172437682 6.880391332736713 7.54124058350588
Sc 2.6328919128428865 6.108813014613381 6.331385792252898
Sc 5.669460004905736 2.3504219289398014 5.220036313386412
Sc 3.372520534421025 3.3683106535828995 7.0586098928015675
Sc 10.311841483362539 6.382517529165916 6.865433114339265
Sc 4.514841400347519 5.853079010669676 8.80820458916481
Sc 6.957491335863838 9.51494526423182 8.66810835518659
Sc 9.251735850525746 9.076776268822783 6.802583136384453
Sc 4.633503640618974 8.197672005381738 7.018469262866042
Sc 9.431120525995926 7.870560303441273 9.458897301774726
Sc 5.422645655072445 5.246209073952348 6.001063887473499
