17
Energy = -82.61427487 eV
Sc 6.106152272472533 5.479714521008078 10.059008575440595
Sc 8.684009457917144 6.106610075928588 8.052750917609295
Sc 6.617737567843286 3.657633602164843 7.755969487000768
Sc 3.9323928236496966 7.376954528122672 9.135735002362821
Sc 6.72973267903102 8.339212567144452 9.281118166349703
Sc 3.845358767225156 4.510466446133719 8.258263239329917
Sc 8.204019395836024 8.77398641182079 6.810155693308108
Sc 2.8488085399321905 6.746559992742024 6.396260286066746
Sc 6.360902686924682 5.270227832885997 2.6257230915016185
Sc 9.353476833415847 5.784043107405753 2.6912707558146622
Sc 7.963224724118021 4.808611332539192 5.118098893953103
Sc 4.552964046118895 7.19110842693993 4.11027964260045
Sc 7.485955866780284 7.619845894053949 4.153100092892978
Sc 5.9592918606747105 6.469457406036256 6.919523464189999
Sc 10.112907929733097 6.90692802453745 5.384304557357694
Sc 4.708448326358417 4.404556942533831 5.1544866169056585
Sc 5.047400328271091 9.066866994304265 6.606735623617669
