18
Energy = -87.67309929 eV
Sc 7.353883136568416 4.852674559385135 7.892383638229084
Sc 5.11763009936135 6.673511702958521 7.1184582424978435
Sc 10.199147579991314 5.476467852779128 8.754036485621485
Sc 6.63726986093547 5.065064260169601 4.976932816430978
Sc 5.2124683621361 5.419144730165266 9.897740158995665
Sc 11.01349805166879 7.188801276204283 11.052597031071159
Sc 9.235090203860523 6.2898074262371 5.963597913158911
Sc 8.060703900686622 6.4795972184031445 10.471630091669716
Sc 7.77285924864958 8.107454246263453 7.845561107146303
Sc 9.024986282172376 9.367137506071629 10.436074656756674
Sc 5.678406006378279 8.402225800121162 9.833840092808618
Sc 6.867449353298372 8.116866322843736 4.9058264425118265
Sc 7.0911036903544975 10.958909154627479 8.741107903275791
Sc 5.2398267387824395 9.708403165113932 6.943513445907244
Sc 10.895462812409022 8.256211236094268 8.215317120685706
Sc 9.49229516762477 9.385260951970114 5.769597294115455
Sc 9.89488734936644 11.17026290634079 7.977292797747475
Sc 7.44656077071645 11.369988144037512 5.826577841746539
