10
Energy = -45.23938799 eV
Sc 7.7429926886942395 4.631129195798786 8.252964626985603
Sc 9.30040445036212 7.448832177890971 8.461404882390656
Sc 7.655291129565519 6.82201096635428 6.055972321943954
Sc 9.949525778603155 8.726465996838938 5.7179759579099745
Sc 5.2370454283294166 4.413407482155767 9.635306583402258
Sc 5.2029954202644815 5.092453671434271 6.824902798824155
Sc 6.231523261370194 7.1250722490076575 8.69259221960221
Sc 7.383749753883831 9.225264044769196 4.281253522912141
Sc 5.050186528047425 8.239649339058081 6.070261802775379
Sc 7.524717694582876 9.545982854743121 7.225610178396229
