17
Energy = -82.13725285 eV
Sc 5.798201083823179 9.772984515106778 9.488094725944633
Sc 4.067387344283432 7.180461161058788 10.374990589124048
Sc 7.013483131399841 7.289302961858172 10.550749091664889
Sc 8.468366648602009 8.827311321866151 8.073589539432122
Sc 6.262488929415713 9.728778910032629 6.268091794785141
Sc 3.3374603150399698 5.533629043854069 7.670754078727816
Sc 5.556916951975219 4.792518163599466 9.477648343376064
Sc 5.665326039817571 7.28853185328235 7.949456295286526
Sc 9.329867221859313 9.562894455287255 5.17714350686467
Sc 8.394977818292347 5.644595613463275 8.089065417579825
Sc 7.716147576681753 7.149323822475196 5.489582977676993
Sc 4.688207834672208 7.005942583218709 5.103082177679635
Sc 10.557901214941861 7.066920339997178 6.293059368838956
Sc 6.013275706867636 4.5901103044567035 6.25577940450893
Sc 9.676323752586784 6.923000581548863 3.38803205355592
Sc 9.103066290388835 4.557832369161506 5.209689576244998
Sc 6.880515459719737 5.33161770392391 3.360160251886163
