10
Energy = -42.33972686 eV
Sc 3.5883805514280582 5.267574064221765 7.284611120370924
Sc 6.075823851984193 3.460390093968385 7.285077962802383
Sc 8.563267152540327 5.267574064221765 7.284611120370924
Sc 7.6130814399448195 8.192047076585386 7.284777135456012
Sc 4.538566264023565 8.192047076585386 7.284777135456012
Sc 3.5883805514280582 6.884073639746621 4.867036583597462
Sc 4.538566264023565 3.959600627383 4.8668705685123745
Sc 7.6130814399448195 3.959600627383 4.8668705685123745
Sc 8.563267152540327 6.884073639746621 4.867036583597462
Sc 6.075823851984193 8.691257609999996 4.866569741166001
