18
Energy = -87.24761977 eV
Sc 8.290542472253096 8.742702564941789 3.450847847142187
Sc 9.328446486756778 8.469174762370056 6.300012320028724
Sc 5.308522486623283 9.541600560566785 3.44651251259352
Sc 7.05416984083099 10.256300719219537 5.714681550944862
Sc 6.322750931706486 7.252038631059268 4.961880230990423
Sc 8.939777700369461 5.684907259770947 5.194315850838107
Sc 9.225760200371006 8.421094102446709 9.355703791214056
Sc 10.23469187971273 6.043230554113828 7.814233618253497
Sc 7.0433800735867225 6.872107016094487 7.77433853568391
Sc 6.83658437833699 7.136901894660826 10.727914930886254
Sc 4.438853790841359 9.066810029457871 6.486845839869581
Sc 9.626106442572777 3.2741399295291713 6.97696677350865
Sc 6.489766775992584 9.61827344381785 8.692734284091218
Sc 6.718909202022851 4.137955604486669 6.647691512744666
Sc 8.221392057788746 4.507602123745099 9.375457341262088
Sc 4.221137781286249 7.680595192498358 9.317499963695207
Sc 4.111655680443015 6.046517574786504 6.7717147775445525
Sc 5.241446106440031 4.85748278231589 9.309902216503392
