13
Energy = -61.08767282 eV
Sc 9.429106356786344 7.0577779547388015 5.033393921846993
Sc 11.33155648946124 6.503859149524098 7.305457343485654
Sc 7.520254020167828 7.583677561965829 7.235733650554411
Sc 6.515967598328982 6.340975049844052 5.04581733427539
Sc 7.389079131730806 9.486721218675733 5.315878424347636
Sc 10.018121058013868 9.236020561118849 7.069943349604097
Sc 5.389650976898799 5.353315318788843 7.738885773960625
Sc 8.626812557631704 5.033754837876187 7.238294299937991
Sc 9.375831367259357 7.416095659537635 9.375955663549185
Sc 7.378777115372421 9.886975419301415 8.574872553627246
Sc 6.21924181863731 7.288062481911893 9.902935474523458
Sc 3.4331765121621647 6.788204476639382 9.387267698222725
Sc 4.8290982024791145 8.318462007037686 7.287261163087995
