19
Energy = -92.07943261 eV
Sc 9.231284807443172 8.622519540745023 8.641410603757535
Sc 4.100962379449041 10.03187720029437 7.839278395348777
Sc 8.353689913026484 10.706325160594535 6.721418934030867
Sc 7.343341520504167 6.823296943564517 10.272879416819812
Sc 5.467085367531915 10.639258529084666 5.512463263838311
Sc 4.55981096941032 7.6556032423818206 9.411655492435985
Sc 5.108167767109673 4.943799288687758 10.76388922148007
Sc 7.685316256295283 3.7449587954126065 9.813669340537565
Sc 7.948503299568739 3.2484910257393724 6.703618495817859
Sc 4.528434420109969 7.657094523714196 5.880958346685773
Sc 7.512902312317412 5.953214496736368 5.264697670498713
Sc 6.01708111814176 5.321579790803508 7.966079613829919
Sc 6.760327171630812 10.104786842787364 9.475818734698278
Sc 9.238965772954073 5.572650362319383 7.944926864407047
Sc 6.692643640417303 8.421311749666527 7.220353806841794
Sc 10.239915930949392 4.779778591130527 5.179821042361522
Sc 9.351692903092339 6.717381384312474 3.0692025903711304
Sc 7.446497287842482 8.873750757552765 4.236949624219544
Sc 9.874154231258425 7.861685470134828 5.739081220708822
