12
Energy = -56.23215995 eV
Sc 4.94692731594684 9.390697058481965 6.633724572104424
Sc 7.88558071113208 10.27180581950445 8.216115016137246
Sc 6.068225296184449 8.218675914402388 9.24549893203396
Sc 4.875694203864965 6.434097449137338 7.267467392775243
Sc 5.702421357998698 6.920443685694477 4.4520402596436615
Sc 7.372746580406685 7.926535508717371 6.575622050516623
Sc 10.19363023858639 8.366442171498212 7.0661958796492215
Sc 6.823263759162015 4.613419122191117 6.1886371969542555
Sc 8.921284518535774 6.271146711040603 4.820143037573145
Sc 8.853816321520053 7.8289064945057145 9.778227278197534
Sc 8.910794411418342 5.7703873552105005 7.774113429096003
Sc 6.651061815628317 5.29182448115788 9.431171714975395
