11
Energy = -50.63685523 eV
Sc 8.690295177657744 6.916641174346648 6.784440853226984
Sc 3.3184207474953458 5.449593034830545 4.455812737316293
Sc 3.77017210402698 8.429066202931267 5.144433506948255
Sc 4.810612609906891 3.802004749271951 6.459356429620665
Sc 6.158677736755597 3.7863930307305016 3.7902041602566627
Sc 7.80426082226865 4.068105418134546 6.302006307236966
Sc 8.69507369970112 5.550672276158406 4.001155228376852
Sc 6.410107490304833 5.780440096705739 8.349489669598054
Sc 5.854808124471775 8.578192418485473 7.437816523413234
Sc 3.6873074548938356 6.484554723705998 7.260190210370328
Sc 6.077129855308043 6.431202817334808 5.291960196426532
