17
Energy = -81.36227584 eV
Sc 7.589708337345096 2.8716471354755564 6.63099454088529
Sc 8.93136226180828 7.8193298981308 4.8783652209675115
Sc 6.69748376722004 5.504637655907135 5.462545894097682
Sc 9.384648351311798 5.650320031645942 7.198488907371192
Sc 5.960048826462979 2.715899372490117 4.260684061285727
Sc 5.840884605258334 8.621086707145517 4.901332705439074
Sc 10.15896034254044 8.672329474359145 7.6239875769699506
Sc 8.016220285646353 10.459458965380799 6.271478552098897
Sc 4.6807650428871295 3.6091934908639205 6.665835628861966
Sc 10.093345446376299 11.56344353464821 8.256078049407634
Sc 7.260494337328133 7.819802858490571 7.390334090872787
Sc 5.1294715286017905 9.893631817035471 7.610936239123711
Sc 8.742013459226051 7.105615934699383 9.90132934405887
Sc 4.4078081680567065 6.914785834294713 7.185622805473809
Sc 6.590349109308681 5.044446932753089 8.602547758638577
Sc 7.869180189551964 10.029469680256994 9.357215661705231
Sc 5.689478782146519 7.846022622802524 9.912343991104775
