13
Energy = -61.4533223 eV
Sc 5.175753566637024 4.037238201581627 3.6075870628136744
Sc 3.099777867836944 5.25369843248243 5.8802450516014
Sc 5.1648290749080035 4.015141711262321 8.140409048596876
Sc 8.253520939862524 3.9623855532064383 4.358666798193898
Sc 6.1757735985247795 5.473493332067664 5.881259524595333
Sc 8.238418479990024 3.961279276509983 7.409815238472488
Sc 4.254288886940267 6.911092472989553 3.8057120174939945
Sc 2.783999079149322 8.344148644222217 5.879084288918293
Sc 4.244808920747458 6.896332540585863 7.966751700860979
Sc 7.120624394432613 6.435853792117981 3.2702434493943686
Sc 5.933763981027112 8.32207401704326 5.895093398913204
Sc 7.116303942628168 6.4233961354155005 8.51667814703398
Sc 8.935979357846852 6.461707780013789 5.886295961577588
