18
Energy = -87.07262903 eV
Sc 7.307064536849707 2.9261491404091493 5.613039058200724
Sc 8.935710962189026 5.527214305139299 5.594250929867843
Sc 9.050979464019171 5.2316756260565365 8.455523839703716
Sc 4.317159281320547 3.7168326052687886 5.3696027550657535
Sc 6.378540965284627 5.45000632277472 4.2271238376330835
Sc 6.128122211230294 4.991274449683484 7.29597623095893
Sc 6.735235414746971 6.075276411284207 10.155145110114017
Sc 10.282076368726356 7.846826901157889 7.013795552159286
Sc 8.992096874492379 7.9641665856790365 9.902710649224332
Sc 4.317333145514933 6.983627947266525 5.939065849022751
Sc 6.5123806489593195 8.67357279094641 11.527729297430325
Sc 9.270149956432384 8.043765955966945 4.1725059224135
Sc 7.306946033077036 7.6284598768662555 7.2324531932371405
Sc 4.811574730061753 8.033854035104305 9.008187207752718
Sc 6.417652190462048 8.489377224677808 4.388865606174437
Sc 5.25937684900669 9.931104696943315 6.6842266870113205
Sc 8.315819774152853 10.199525152366242 6.060453048719748
Sc 7.0860907799919275 10.13748665931254 9.01665062976019
