13
Energy = -57.51920901 eV
Sc 3.84578806645251 4.511126624851081 2.4755504036821985
Sc 4.2212368691624755 4.3646973514545815 5.40039224378766
Sc 4.802482575841488 4.456153848331803 8.367174873284835
Sc 6.582472303322046 4.461853359887351 3.560448971689105
Sc 6.985601345168075 4.384039081759103 6.520018161986367
Sc 7.42007756941013 4.529314134600767 9.543046558963347
Sc 3.832723772329557 7.256158084103079 2.476910703884957
Sc 4.202803855629673 7.39304383883017 5.408434772661282
Sc 4.785260276863133 7.30018055817264 8.373145633795671
Sc 6.563607451248393 7.334379667390727 3.567191965450646
Sc 6.967398626270776 7.408408365756356 6.5262435997378665
Sc 7.403325338118076 7.254546238544597 9.547968216574507
Sc 8.951607386495638 5.910484502741934 4.797858670477116
