14
Energy = -66.28019384 eV
Sc 4.077524358503468 6.828892946824479 6.9283413075712454
Sc 3.5251906448062997 4.100918755712943 7.322248522113593
Sc 6.300992938279373 3.913849891887176 6.911355253040885
Sc 8.936294793654843 4.808000792793283 7.303122151908684
Sc 7.709693635690613 7.305938343905028 6.916742458193131
Sc 5.622229342693068 9.145283290222103 7.332609848089582
Sc 2.8942594138764894 5.612836363257124 4.676170021979415
Sc 7.934119035332422 3.5433188436343754 4.641120680771454
Sc 6.019645177682849 6.026321725708565 4.754169315413399
Sc 7.207701234880042 8.927153380565425 4.660996078679085
Sc 4.800041415451262 3.1440847215893966 4.648205618563358
Sc 9.13978482451931 6.425011685633854 4.651803894048388
Sc 4.115473528060919 8.531975001074617 4.67876227294448
Sc 6.038787782069045 6.008152382692159 8.896090702183699
