14
Energy = -66.14578891 eV
Sc 5.599327362554107 7.307713081816433 9.306859647286664
Sc 6.323431093855899 9.947299882090569 10.141533057741517
Sc 9.326772367262286 5.729572543504567 7.669072400675448
Sc 7.328937505071239 4.858342292569035 9.694933339676039
Sc 7.743031162734839 8.22889937528993 7.324096831644055
Sc 9.582977441645717 7.892689377318012 5.154088059746614
Sc 8.04160599139377 3.162585582399274 7.219891034365919
Sc 8.310954840023475 5.145657510423747 4.908474621604437
Sc 5.4714394417389105 9.853040467839286 7.1550098434623095
Sc 8.453796098982876 7.741725509395352 10.120503011638789
Sc 8.233673903530304 10.892327788072821 8.199215649147199
Sc 6.302884986088301 5.499572018148582 6.989910939926229
Sc 7.758260872855934 10.356059030543602 5.248300083771382
Sc 6.547578152639721 7.697561986045835 4.73134133187002
