16
Energy = -76.700441 eV
Sc 8.919967325092118 9.79615792641707 5.1460361329099324
Sc 8.64530159772132 8.365191287013193 7.802230240402593
Sc 6.120308688728212 8.884983628357164 9.832296693440384
Sc 5.979600055254055 9.42776695840437 6.825988712747293
Sc 10.416605769222416 7.1756489435395965 5.5902845226165825
Sc 9.448300832888034 7.67755890888424 2.909571010925541
Sc 7.5314079710810695 7.192174076875126 5.1324495193831865
Sc 3.58684608713752 8.030270684197085 8.502393746498361
Sc 9.047045861767764 4.84860904277933 4.174823867723151
Sc 6.043891536115087 6.597242416643112 7.964762468206636
Sc 4.350496859060238 7.019815672124619 5.599956246528948
Sc 8.727181036101173 5.154749065948031 7.17325752901158
Sc 3.664490930954672 4.950340504307999 7.897565961334181
Sc 4.782341500051453 6.061956760023816 10.525493334169417
Sc 6.248136636658622 3.7780172514829156 8.828772594241395
Sc 6.108545859846519 4.408251505827605 5.839552867325605
