10
Energy = -45.30042269 eV
Sc 8.78431049143629 6.6062051369260635 7.03774318997396
Sc 7.339703984448339 6.430386006283915 9.54180768994576
Sc 6.824722499975597 4.43102495967133 7.156221691330914
Sc 8.622740114537683 5.092380067907992 4.571018731608643
Sc 8.502341899006916 8.314573559074915 4.718940511884891
Sc 6.219558510539931 6.591933991054218 5.2525731757630165
Sc 3.9497739106531657 4.853113009075128 5.775743067112872
Sc 6.658001151514091 8.60232572858275 7.356718453074334
Sc 4.846848152068047 6.404643385296327 8.060159933484917
Sc 3.8022399702563874 8.07332301506166 5.93631985342678
