18
Energy = -86.89709018 eV
Sc 7.613072417574112 6.693444482417589 8.203469198631739
Sc 7.852551635697506 7.616723156612506 11.460033335046992
Sc 10.48464682751342 10.384438251195395 8.239288360938406
Sc 9.778535295665097 5.1946671729781135 4.483415309480806
Sc 9.619828937223016 10.2705394664429 11.210227127139728
Sc 7.785344091422057 7.50642812900824 4.528048673482838
Sc 7.146580580315134 4.89239150466617 5.837123865217021
Sc 6.353863908489205 10.512031697880587 11.1735940259098
Sc 7.943274396386482 9.32819262311868 9.202512234421006
Sc 9.089948956509922 2.6226936919522124 5.51069823963516
Sc 8.079573835689677 12.149563024579047 9.10562023740298
Sc 5.430757875169233 10.61877584508756 8.191652396485974
Sc 9.752449262017606 4.745091617544182 7.382609958595076
Sc 9.904158879181148 7.713684305777895 6.483073985461872
Sc 7.863370561589958 9.99477964190441 6.391764334116883
Sc 10.300767927103893 7.58746888176768 9.564388952001941
Sc 5.244120365136601 8.017912611094891 9.585810709638316
Sc 5.586117402936993 7.999662356456313 6.471882016577729
