11
Energy = -50.53590364 eV
Sc 7.477295896092663 3.553151827215412 5.815226291363603
Sc 6.3363051893491535 5.332812271084634 7.871209691009853
Sc 9.223166827027924 5.4255125935695645 7.200947672242468
Sc 8.688558144455133 7.509826800116609 9.458290506894445
Sc 4.680544540484849 4.393335515354244 5.48265092176349
Sc 4.186837363001348 7.227370841845354 6.38569987275012
Sc 8.752747113772452 8.24072492051004 6.64335544083324
Sc 8.012459048762375 10.366566664886259 8.389390389591401
Sc 6.797898411135134 6.504598144928326 5.23796413705929
Sc 6.172009852424325 8.212585460531614 8.261881703691598
Sc 6.257241990890726 9.648366190294425 5.788847916938868
