18
Energy = -88.71680222 eV
Sc 8.55881247245536 10.490155015956532 7.1475259451455075
Sc 3.4057143949708193 4.833444495653593 7.9932230764860925
Sc 8.647292911684158 8.95889230511256 4.401748334802132
Sc 6.556350251772178 6.473233832956096 4.109323381613768
Sc 6.193760963914424 3.376399841385793 8.071703072057606
Sc 8.83946361631592 5.304554140264951 7.843768152565383
Sc 3.8271945839985295 7.880617751425258 8.08558750419711
Sc 9.504170310346321 6.075496483884256 4.819806523821704
Sc 6.342362388924276 6.481731025968468 9.47158208817488
Sc 10.63812913548842 8.246640531678697 6.674468702501417
Sc 7.838667025975827 7.75356032440849 6.83919488104796
Sc 4.605918189155593 3.6296015556922936 5.42832552638041
Sc 5.516694701322188 8.992105183275626 5.7914547818355455
Sc 5.7624246574347096 5.856127024625164 6.758986635199918
Sc 9.00897335702714 8.36223381810782 9.357676245073534
Sc 3.373351248660137 6.531184134476431 5.404365437385578
Sc 6.226217935100376 9.471689035534762 8.865442954402056
Sc 7.67527715949717 3.8031088036365936 5.456592061352618
