19
Energy = -92.87093129 eV
Sc 7.481585119089636 6.712653438035594 2.6630437726778213
Sc 7.294947735040128 9.671766814815488 4.190312214699375
Sc 8.952599455717397 7.279880658765683 5.007322219774745
Sc 5.208654404090569 7.5987929843645 4.147650258128957
Sc 8.693843703251053 4.3667361950601835 4.29370150239207
Sc 5.602574715087845 4.632033878604448 3.975856256688856
Sc 4.113102981593676 9.60945262142304 6.0200569371626145
Sc 6.528524391636603 8.463656669096103 6.682529664455381
Sc 6.943769739140559 5.345902795543525 6.3966253665054005
Sc 4.096727549589254 6.480458378901809 6.515460557279698
Sc 7.437708679779816 6.936287346244411 8.7949443220195
Sc 9.36939824162192 8.910519817349863 7.4790344127510915
Sc 9.845302127589694 5.846026320523623 7.45796704997506
Sc 5.206107401435609 5.080538856037732 9.133543992469498
Sc 4.637143012029299 8.080451438736285 9.06593337931108
Sc 7.312739806423909 9.574828393160312 9.723641039455202
Sc 8.263001039127285 4.538415644324263 9.943634638955537
Sc 9.644663159995893 7.288942917863415 10.327523222070079
Sc 6.551507652479691 6.766555745869553 11.365120107948574
