11
Energy = -50.11006835 eV
Sc 8.953485420343865 7.642768554946576 6.665514325093038
Sc 5.880188185555858 8.15163173704176 6.602237512688454
Sc 5.28352534435286 5.302659689646433 6.912593791908923
Sc 6.920444112735857 6.239598610654936 4.6225376845541994
Sc 9.063959136114391 8.938279710896433 9.369836291447152
Sc 6.0434888749505875 9.341167167249376 9.347088976560833
Sc 8.33540017966642 4.755247390395571 6.909041963785882
Sc 7.2916505900927895 6.602016347685747 8.957120912191625
Sc 4.066440251755508 6.7555112805161475 4.703494513608179
Sc 7.740051674599115 10.444481367780968 7.1354208439549005
Sc 10.184359052839605 6.130177640029116 8.857706790487498
