17
Energy = -82.83515331 eV
Sc 11.40406763228745 8.422425091209718 8.271689061525548
Sc 9.783769006879451 7.449103237497997 5.657218315850289
Sc 9.88422325054522 6.029092377485211 8.247151276371888
Sc 9.8643241013657 6.506005946806142 11.001400582720136
Sc 8.051058292752256 4.902541451038259 6.227584631325662
Sc 6.767441757375289 7.35331660554449 4.705923277751431
Sc 9.009407084395267 8.96469737039874 9.735715426254854
Sc 8.756584662530093 9.728108631394774 4.035959961313659
Sc 9.117895800479456 10.091333459659712 7.04819632945246
Sc 5.169851850378409 5.299768298094446 6.847150902186982
Sc 7.305119593233703 4.9886350919915 9.368655877843484
Sc 6.432194062462051 10.122708608747848 5.810911653378111
Sc 6.992540573252478 7.464286785217983 11.056311203544185
Sc 6.071930855965581 9.743253247636552 8.90533892413314
Sc 7.301782936862562 7.510328718586358 7.64367614996775
Sc 4.71828920113293 6.888828180090582 9.301511090912195
Sc 4.392340971288909 8.209012830841303 6.661524574253978
