12
Energy = -56.32512032 eV
Sc 5.791824538735035 5.478174604510515 5.461248893962589
Sc 4.210203339619846 7.9754912235807405 6.751561763053715
Sc 8.673466257010706 6.25217113757252 4.967755663159335
Sc 5.3254355321512525 7.924394472659136 9.538644985949123
Sc 9.265524261822668 8.836247623377306 6.585053980072309
Sc 9.3488261798984 5.889300764274903 7.885621109737318
Sc 8.281098363789189 8.4150478629092 9.570713142717354
Sc 6.569786961888662 8.518809048588036 4.720639800470785
Sc 6.417162549997867 4.977931803217535 8.507608736250647
Sc 8.009076587764579 3.6165537147457916 6.387679778031252
Sc 6.369672822949757 10.060939483676654 7.676417246125491
Sc 6.9913633882743795 7.4210192978153575 7.211630957721638
