17
Energy = -81.91890217 eV
Sc 10.133125590081926 6.582404791226839 6.681082305020114
Sc 9.05847667262821 9.535981269350003 6.786713887116216
Sc 8.194708787669292 7.682160570032684 4.402040157122259
Sc 11.153850336928866 5.580837017829387 9.514733519951687
Sc 5.5752687363486615 8.74091240363296 2.9542886608763985
Sc 9.203393439662113 7.847759349327183 9.465325625079839
Sc 7.795336779906547 4.795400909575523 5.572321908315865
Sc 6.05566586344682 9.627252838417089 5.768734130137547
Sc 5.244772000262811 6.586394761373834 4.997032156766739
Sc 7.225467446445834 7.216442803163391 7.230709071497823
Sc 6.65330878150803 9.641590721357579 8.882038834772162
Sc 8.390945058404789 4.80255280442706 8.684484204016828
Sc 3.292445463213065 8.8478024595135 4.936343415464266
Sc 8.873493515692234 5.683397121224537 11.498630860543244
Sc 4.316232840824817 7.851980115119817 7.777288188020752
Sc 6.256761470386382 6.752929156679782 10.057478907456256
Sc 5.389886023320482 4.898220858533053 7.671453570070188
