17
Energy = -83.38025141 eV
Sc 10.077215563486098 6.874759791389207 7.198311042847565
Sc 8.881830675131551 4.508676817293136 5.671689475913124
Sc 8.239000646299793 7.469971616433711 4.649229257391544
Sc 9.152946115882648 9.921012483318263 7.057936097053531
Sc 8.85736229928623 8.309978677377714 9.76639389244866
Sc 7.822557728944747 5.115236516090265 8.630224406410463
Sc 6.451452956672406 4.62131210558771 3.629046153463939
Sc 7.349553152453061 7.859815699583619 7.490611499969988
Sc 6.160816283403514 2.993522111893799 6.350167228275765
Sc 6.318105636554362 9.832383307408277 5.612369884785203
Sc 6.284540161734181 5.74695783730746 6.147464166210845
Sc 6.508257176078098 10.1721428288824 8.768832564126448
Sc 5.848530905679568 7.270527016749543 9.918260222715558
Sc 5.114028850297326 7.470628241842545 4.086208758010802
Sc 4.6378371741034305 4.900688962019246 8.404118694897114
Sc 3.7941894199963144 4.863023462221578 5.338742166430646
Sc 4.363581224641859 7.82875820837283 7.14971898556082
