18
Energy = -87.45273303 eV
Sc 10.143303081866433 7.0867959340110644 5.205572840125516
Sc 7.706018453267297 7.1170453573519055 3.712577989669757
Sc 7.964074029193473 9.0907855655478 5.967415651717767
Sc 7.900152475175141 4.570895404032636 5.235797406245144
Sc 4.96372087370034 7.5840469498149305 4.607677723471142
Sc 10.224573641131423 8.381874512071347 8.00921040010221
Sc 9.520036812174588 5.559207217548749 7.594084074026648
Sc 5.812391914717683 5.024472238822875 2.9577367123073923
Sc 6.835869473020867 6.702275964213658 7.07229065314834
Sc 2.949008590043815 5.7170812084787626 3.408732748248699
Sc 7.519031841395695 8.963823914002973 8.996149680205514
Sc 6.916385536406888 4.268501873846409 8.5622061850336
Sc 4.758748880274939 4.67335524610068 5.646525537626466
Sc 4.731169481466172 8.655823254633361 7.601983059757942
Sc 8.767802533876282 6.536490757263306 10.166681954215896
Sc 4.164430785047655 5.732189099161986 8.31480018482747
Sc 2.5880411513352253 6.841715124113149 6.097846105139321
Sc 5.85010359882453 6.903333467348903 10.22816268038164
