15
Energy = -70.81701362 eV
Sc 9.783038824306827 4.384979725722169 5.365794348694798
Sc 10.890264781286346 6.985047936843978 6.394375080813565
Sc 10.350004949961589 7.550680726567175 9.473648349804444
Sc 8.48318001961265 5.699276188482076 7.688411255375736
Sc 6.8843198627884465 4.135107903572492 5.575364228408419
Sc 8.998176553709499 10.073240307537613 10.23861714305685
Sc 8.110423740367082 6.82685106871411 5.023160723052457
Sc 5.2753187074715 5.866603511516184 7.618342739739785
Sc 4.944325939510448 6.325581517249994 4.670316119437753
Sc 7.279563478311582 7.802107617620315 9.538206152179415
Sc 8.901057385530612 9.054094926151228 7.384337731577484
Sc 6.521209517098934 10.587056743510349 8.732263299522286
Sc 5.976457687406976 8.478295241395651 6.532512402384406
Sc 3.1477330322688166 7.731501192140583 6.496555194280092
Sc 4.370424291495847 8.431944922552477 9.107232205552286
