17
Energy = -80.98832519 eV
Sc 9.126340659329106 9.372580856339386 7.220672883756761
Sc 7.288413060960598 11.641329665407978 7.212821943893752
Sc 5.970084888227226 9.138214399275808 5.8349916710718785
Sc 4.552248388326571 11.481335786383356 7.405210213506401
Sc 8.74246030399968 7.711800285722895 4.629842651202978
Sc 9.008794170898293 7.592726180800902 9.760427102392406
Sc 10.581522413428686 6.750772402140118 7.082053226671158
Sc 6.164281889275828 9.145862891845622 8.84310824554912
Sc 7.492972718752562 6.839584388428867 7.238404150015987
Sc 3.3121420909790484 9.019097759521804 7.533236757743652
Sc 11.304034083893152 3.8512516880139165 6.983255031246066
Sc 8.846981926504782 4.699401840363371 5.5438299372675806
Sc 9.004800156398332 4.642014524800888 8.70988817772728
Sc 6.123289558511336 6.012611440188701 4.707402243206003
Sc 6.369500277398428 5.935596191852463 9.859723057366944
Sc 4.536023242072651 6.39215384768462 7.369948792774452
Sc 6.335976844781795 4.056685203077019 7.254671377732224
