10
Energy = -45.50892383 eV
Sc 8.321428870921114 5.6599382049107145 5.797550890181506
Sc 6.156655010567523 6.621226314690392 3.3088958489100886
Sc 9.628592116006985 5.469951210461579 8.967976036031256
Sc 7.706204674439141 7.216358369780352 10.553316645204225
Sc 6.848980668947721 5.492434407321946 8.444648406254824
Sc 8.53011741313669 7.8450163355106755 7.891190145718915
Sc 4.193687228465353 8.381798372079048 4.823801113576438
Sc 5.308871391259663 6.003975092599598 5.935701827224569
Sc 6.991206503300861 8.355580778283198 5.383564318241502
Sc 5.538386711569518 8.170499640009233 8.013940276769736
