14
Energy = -65.20572368 eV
Sc 8.188441976940831 10.696501317931858 7.631822648428154
Sc 9.774248739793155 8.475929542620115 6.101993647383977
Sc 8.290555501355882 7.910490678508104 8.705583411058202
Sc 6.739197623858657 8.648348795535318 5.993406351338049
Sc 5.58600371675464 9.310306017506829 8.721041331804665
Sc 10.636605874664806 6.174713384078459 8.047539076818028
Sc 6.2816647844744855 7.0374979280596905 10.749547598837822
Sc 8.10958173377595 7.3622817778138865 3.672944453285696
Sc 8.274689797202164 5.837577518768287 6.245861312190944
Sc 7.975261079555738 4.925637281126732 9.144280494697101
Sc 5.588946172392832 6.363195424448629 7.9246354586143015
Sc 3.807704345144213 8.2097049219942 6.3860338957383505
Sc 5.549141412171027 6.0558762729689555 4.90725417134476
Sc 6.301782263139615 3.670415617304968 6.82359871494496
