12
Energy = -55.7706897 eV
Sc 8.911660914891542 6.191775035940457 4.607089446090523
Sc 8.823579448366353 5.0143420331779245 7.264976842792149
Sc 4.943030691327653 8.806252979551417 6.49056185253367
Sc 8.116312032561419 8.099759927168515 7.063703768264077
Sc 7.06313569091646 8.838671342781037 4.455943326281157
Sc 7.040571759239063 10.858942940410813 6.681131304773845
Sc 6.2288632409635305 3.8298499754201774 8.004872434770574
Sc 4.660106920530623 6.466956530300822 8.487575233419154
Sc 7.564202758510333 3.436352219383793 5.197743734205035
Sc 7.303751213792308 6.381890595327614 9.48260164079282
Sc 6.255319539117176 6.013761801305348 5.9582342373445885
Sc 6.166060654089917 9.150968483888336 9.097135553313326
