11
Energy = -50.4858904 eV
Sc 9.430089994118598 4.371370454934723 7.922067311503285
Sc 8.823680793651064 7.528615308748328 8.236799639607002
Sc 7.55009268704903 5.841147442682334 6.054199888992521
Sc 6.842071005203416 5.3147974463363035 8.886084111415522
Sc 6.946988709323584 3.0579691162917384 7.012996472052959
Sc 4.7589458966801725 5.240310377639041 6.742059176601037
Sc 7.984200912125396 8.955064080306757 5.685622658298464
Sc 7.579372766761519 10.506479926423227 8.124426594001829
Sc 5.900032315465767 8.041465396650251 7.588384122740499
Sc 5.437367650452367 7.734164975265697 4.704797432702202
Sc 5.543345049110769 10.558291018685047 5.986044793796829
