10
Energy = -45.11512859 eV
Sc 4.691504234083855 5.79345403110447 7.320480059747241
Sc 4.69374055129168 5.79335799239227 4.269771322952705
Sc 3.7883326161490816 8.202144304813736 5.7954932098607275
Sc 6.897703090904906 4.271041915887948 5.793517449129907
Sc 6.896169767256349 7.322367538176298 5.793220299139245
Sc 2.0885548347830842 5.787268591565013 5.795106942796132
Sc 3.794291571733388 3.384727248538982 5.795548308608081
Sc 7.79863560912799 5.798085586558562 8.205360756418756
Sc 7.798567769576416 5.797574927392226 3.3874346229532453
Sc 9.50179147617795 5.79926992853702 5.793358005597244
