16
Energy = -75.67728013 eV
Sc 12.047397169566292 8.443747761620967 8.569722927407089
Sc 7.826924639001298 10.80758793135039 7.0849041128832555
Sc 10.807779294480264 10.84951590368585 6.366691848842437
Sc 9.427237619137358 8.388320596960156 7.096710855043726
Sc 7.177001646614117 5.251861540450665 8.635163901340228
Sc 9.97435379479859 6.088798918426125 9.037971759584153
Sc 8.341860423167937 5.807897917873145 6.05515665646639
Sc 9.586912137365827 13.13930727810859 7.65083216112278
Sc 7.432657413688276 8.312522429514821 4.741344914810593
Sc 5.3286647617654905 5.755500686163733 6.2445148920875635
Sc 6.5005728627517945 7.931330120517169 7.398540172627824
Sc 7.862059667164449 8.212359043014583 9.851967304951529
Sc 8.045722618527314 5.858451354500941 11.448144823610386
Sc 9.964025085981374 10.45753875774005 9.23180348964917
Sc 5.090994934541794 6.7018446681226616 9.829481735630859
Sc 10.454215031499139 8.024763730996877 11.21461330447014
