19
Energy = -93.16718529 eV
Sc 7.301793350802033 5.4039609000895386 5.371975472942646
Sc 6.253247344415597 6.531449214247218 2.8943247468730835
Sc 4.091758947797072 6.533378064689487 4.8690715099102615
Sc 5.024048642088883 3.74549092850077 5.190360087120664
Sc 8.553120820420263 6.589443246162396 7.752137534933963
Sc 5.201721374864665 9.124223957718527 4.105474997681886
Sc 6.989259485846974 3.9652903160392756 7.940806677937549
Sc 6.336218231802565 6.485556952721562 9.72732067125675
Sc 9.30484419934598 5.044785766028376 9.976363728161173
Sc 11.165944585903555 6.974951518889919 8.608015699792205
Sc 8.864664244525317 8.078798382971629 10.369470038364428
Sc 6.2967363454970515 9.550879323118444 9.156993377659228
Sc 10.0257062623284 4.260665707812388 7.175492965399227
Sc 3.8085513078700206 8.909470240373295 7.082068476641049
Sc 4.436746727451721 5.517127231345746 7.555342358259501
Sc 6.371017171373519 10.682127609349186 6.383560787200187
Sc 6.179302272647104 7.788344189400718 6.703612734635027
Sc 8.860629093040505 9.513493352603506 7.732011681459709
Sc 8.187308681000856 8.327677243742501 4.75035300148286
