10
Energy = -44.84473993 eV
Sc 7.1396212998714885 6.3505924687636925 9.189424222495346
Sc 8.615088888508613 8.938193409231829 9.624528928980487
Sc 6.876467513457074 7.9344942779814795 11.733384260960204
Sc 7.508755486664148 5.0667247754798215 5.9622375707500765
Sc 9.000993666528968 7.33723612560482 6.96930677966914
Sc 9.831971813838193 5.841700568951836 4.353003511853563
Sc 5.831088245482366 7.444313566350979 6.746239680452326
Sc 5.784521755516484 9.019492411751713 9.318190501654788
Sc 7.526415092513458 9.874326013521431 6.890662830536723
Sc 7.624027998983672 7.596423202748032 4.440538049816618
