14
Energy = -65.89334547 eV
Sc 8.148577600376113 7.389714241195559 10.710665237111803
Sc 9.883469658239365 8.208227433768823 7.84294243005221
Sc 6.905758517351387 8.12392388983798 8.39974448969387
Sc 8.75136460789577 5.657938013864851 8.22865414997995
Sc 4.941208702709394 7.790438614955941 10.34445878039899
Sc 9.776528607446037 5.719316431078705 5.520233155936524
Sc 7.452720510971547 7.452747175001639 5.753487904332914
Sc 6.222569383175183 5.2740254173785726 9.601680364950797
Sc 4.6667241803882 6.478823141468154 7.4251126377166035
Sc 4.904954484243305 9.149257166411031 6.067431552432548
Sc 6.34395281097476 8.793913098773418 3.311380074521532
Sc 7.515010266841614 5.854826657579674 3.316261484401748
Sc 6.8158680278216925 4.656310248423598 6.143755578464753
Sc 4.839601779004938 6.586234917788556 4.471920996486021
