11
Energy = -50.05473701 eV
Sc 6.177814068347996 6.140993118949318 2.273727186630881
Sc 4.64384135119636 6.721431941456909 4.505432828051722
Sc 7.638132123169146 5.967863680645519 4.629020582149604
Sc 5.4950407976508995 3.8804583220881037 5.076484026727801
Sc 6.749170185014211 8.741887202262427 4.423247057050043
Sc 7.859748040545119 7.5414469909219735 7.067492391493042
Sc 7.638216010242534 4.32067777744185 7.122027075731641
Sc 4.988977507345588 8.264871827562368 6.9425682169246885
Sc 3.6556724136860814 5.321104132156023 6.951503274473472
Sc 5.156297469973612 3.03790283779773 8.103964491396935
Sc 5.84860842415082 5.912880560040143 8.756051260692402
