12
Energy = -54.88106533 eV
Sc 4.1573034763361125 5.8325374426107635 4.298048399646907
Sc 2.3109062379085445 6.892103805541112 6.281415694634062
Sc 5.0493710779604815 8.131619127454936 6.014495876751096
Sc 7.0551520269106565 5.933558693068597 5.098619639421204
Sc 3.6295918371659455 7.917257355745951 8.66553910558583
Sc 4.870878812838594 5.614547191622868 7.22553804155941
Sc 8.833178733383145 8.039253964201077 6.437414321615002
Sc 8.597413476624212 5.599814862547079 7.784186163235352
Sc 10.041263550695177 5.584075878852736 5.154380209072558
Sc 6.6246085857707575 7.776781917758452 8.599934541417198
Sc 9.519609101511689 8.002476949013102 9.344896683835204
Sc 11.359783364776245 6.7561141074128495 7.4670061306727105
