17
Energy = -82.10405347 eV
Sc 9.382864759484479 10.156909038408822 5.931109664991162
Sc 9.677625474400653 9.62716002595607 9.097879871967061
Sc 9.877906130153564 6.155090582696433 8.338495282514057
Sc 7.244678495054592 7.4185008015492375 10.387628770477706
Sc 7.25088457503869 11.143424733020288 7.655499202107339
Sc 11.289385124387968 8.111080374262938 6.746235714590922
Sc 7.186205676545629 4.932782654875282 8.763389983645375
Sc 11.34199892342214 5.313442390658799 5.75948441743189
Sc 8.958375201048533 7.154920419075532 5.041381717859817
Sc 7.847230702489314 8.146474941563737 7.58394140838301
Sc 8.549786563948485 4.462007292952857 6.219216740877957
Sc 6.764589222682444 10.254717589987962 10.398795224956464
Sc 4.6454012863111664 6.2545857986556435 9.334004843022896
Sc 5.95340474772623 6.276717369620414 6.403098935024364
Sc 6.470020838853552 9.253327325720035 5.302109072561947
Sc 5.070026135562143 8.960917559768705 8.254935792392834
Sc 4.526575617553636 8.52407465729995 11.253174137372666
