17
Energy = -79.47149646 eV
Sc 9.894291916796393 5.4004831136782405 4.160276372226068
Sc 4.1654697646012036 7.023673201143716 5.543143645990527
Sc 7.296884770470975 3.7178351997848638 3.196392145022385
Sc 1.3949648849225411 6.939733939176865 4.314836926310823
Sc 7.166607092964393 6.434390256208851 4.233623762489238
Sc 11.369989993453206 3.8586489610340777 6.218153394027499
Sc 9.085120897921632 8.31283917953506 5.348756796792021
Sc 2.390536463181638 9.485076720613884 5.549366743131443
Sc 5.702212558938434 4.36580502199864 5.920861689015871
Sc 8.503217058049927 3.4010995917545235 5.890540218884717
Sc 1.5778701719680497 7.18871146094943 7.299683115191079
Sc 4.06254203287288 8.798135951666529 7.962177639186792
Sc 2.423999131939716 4.613282916785214 5.93759580128034
Sc 9.490828382702256 5.927787927854777 7.07207163642946
Sc 6.761044771149956 7.065773156088263 7.194821040344013
Sc 7.198744434209081 4.393273328723549 8.561594592866465
Sc 4.163878793224916 5.7216531923707175 8.244307600178647
