17
Energy = -82.42987292 eV
Sc 6.756214090147675 4.073692668159276 6.9721313610324005
Sc 8.137820963839205 4.425691407677516 4.240554624877134
Sc 9.665813145541762 4.273516904748307 6.907079749613392
Sc 5.401354379291118 5.529036541304121 4.638148659484443
Sc 8.16498505901496 4.36023200614209 9.648696105785387
Sc 3.73733955496067 6.814275452741721 6.928192408113523
Sc 9.159234377541411 6.9508949736033845 5.363258971271218
Sc 5.4377947915594556 5.544357499788465 9.338975792033994
Sc 7.2334763607052475 7.086150258287038 2.9765987031483596
Sc 9.199065108748643 6.744346311487564 8.385012455086638
Sc 6.590001226922641 7.072495958703972 6.898353056898841
Sc 7.466601554454107 7.337127796080836 10.596594612022287
Sc 7.21508239460574 9.32345651639361 4.9220314652031565
Sc 4.526498560993593 8.249666121069975 4.114468233567438
Sc 7.714833935874469 9.44060948812256 8.078753389179434
Sc 4.991080192886114 8.457941529829618 9.314175997279293
Sc 4.879784536562521 9.73651881846049 6.6962287762123385
