18
Energy = -87.6071342 eV
Sc 5.693497664859001 6.8905052319958955 3.9324510965866017
Sc 4.999754522240906 4.214999659066814 4.153636879645071
Sc 7.949645431685754 5.31509301951091 3.4205770097784627
Sc 7.958260376223743 8.511869202947691 3.7161258647354467
Sc 3.0666024057495913 6.848253108818198 4.929125684232086
Sc 8.198989627107071 9.487295209129377 6.427184000864939
Sc 5.237368319191404 9.207711596075956 5.614245661405749
Sc 7.371308272508972 3.8733842499340536 5.8689698372382075
Sc 9.641517303181177 6.833076022301683 5.498084827969455
Sc 3.41911883436121 7.9050517241340765 7.677567134896646
Sc 9.372874574603678 7.741312729058001 8.43999033757884
Sc 4.387690598706087 5.181613724978744 6.950435220089179
Sc 9.322260953890625 4.766318459863515 7.881994195720485
Sc 6.186339864022987 8.727363899681396 8.77526679033638
Sc 6.969239773279588 6.725692448224959 6.7029646757755215
Sc 6.341905041753746 3.6415357687490864 8.587842562422042
Sc 4.551382375236788 6.15289725295141 9.781026603843044
Sc 7.407532963452149 6.051315594632728 9.71780051893618
