15
Energy = -69.69062308 eV
Sc 4.70988245514816 5.010675277602663 2.285074489258995
Sc 6.032803970914215 7.730392605537406 2.477873502163657
Sc 3.414121230652715 7.133663367166696 3.8700577237800733
Sc 7.152149164223337 5.309718940731086 3.8939833215019464
Sc 5.3323712309959514 2.8371335278003653 4.44645843417606
Sc 2.6881376642785777 4.15656013251533 4.5189493648069865
Sc 5.879237902438033 7.523225063188467 5.528623671770239
Sc 8.546661342970332 6.695208440038283 6.67304895356007
Sc 3.7739859004199716 2.8917348423519766 7.049647728744367
Sc 6.314874937914847 4.543789593290993 6.702119220580851
Sc 3.603721397292921 5.892298086004163 6.713761569100158
Sc 7.630434824074706 9.426542628144544 7.466481195951816
Sc 8.40229506144984 4.910709461319513 9.138793602099419
Sc 8.990510589839344 7.754915885767038 9.419200264350302
Sc 6.267427088204438 6.922046909358283 8.554541718972153
