12
Energy = -55.17024343 eV
Sc 4.896379070120833 8.584216204469348 2.187365123658184
Sc 4.8475464031728865 5.673335079272408 2.5281551960407675
Sc 7.246984812476209 7.300427702649843 3.306226043437098
Sc 4.697100657158863 7.371792337943166 4.866751147276932
Sc 3.6172721799447705 4.5291283475610635 5.245483042637835
Sc 6.474374226449468 4.965413318881056 4.990213644729659
Sc 7.952481445469357 4.970874298976913 7.57259210011942
Sc 5.682346742797495 2.958576328332237 7.217582749729172
Sc 7.295691991093233 7.717599957890293 6.415364087223737
Sc 5.140318677700686 5.8693895399603315 7.663389242298738
Sc 6.287222642532932 4.2422489797748755 9.892363097153634
Sc 7.151471510668725 7.1061882638742375 9.40370488528013
