27
Energy = -135.22659625 eV
Sc 10.768198218157826 3.7605306115796235 7.543474576985088
Sc 9.053737700031947 5.3115250937570915 9.623007134652966
Sc 9.053112745094271 8.408001697125101 9.210288279443215
Sc 11.37925351020995 6.611477039691953 8.002603700321995
Sc 11.23944678607835 5.505940218261753 5.067397588933425
Sc 7.106243316432522 7.221540379283607 11.293676391423785
Sc 8.660198488820907 5.905824026871675 6.682720961531231
Sc 7.787408835574192 3.133808702855026 7.760359569511464
Sc 6.632447945036532 9.979026408862506 10.426846793853127
Sc 6.026834069193777 4.897519313302002 9.67609910924204
Sc 9.832682376077358 8.746020612618214 6.292200317388256
Sc 4.278251205227339 8.060281951806836 10.63238653852618
Sc 9.173468087709495 3.2593260125137937 5.009216700334031
Sc 7.423754628334786 10.372377642066407 7.277171525779321
Sc 3.4582956251694954 5.957438187070095 8.617504903283882
Sc 6.2193543463611665 7.64761919926266 8.37824198397105
Sc 9.80864780875609 4.652292116966922 2.4624752960706253
Sc 4.39959713442026 10.223182541571383 8.225444387242183
Sc 7.214852206072948 5.2518498931624675 3.932806646444445
Sc 5.631940661385429 4.995086530544599 6.656768801587893
Sc 8.222148739290553 10.37511314023229 4.285606721494139
Sc 2.0189064722884416 8.570068123731255 8.569264538130886
Sc 9.284771827054163 7.346562224199767 3.6967696888499297
Sc 5.0433980648405585 10.506656058215263 5.274314367189915
Sc 6.808224996327134 8.045555651244523 5.31603948965412
Sc 2.128797082139577 10.337852453728635 6.1873188774472165
Sc 3.8018887052313697 7.841017915289087 6.258108736217925
