24
Energy = -120.13389724 eV
Sc 6.931264178160262 8.351460742464889 3.9583417505911855
Sc 7.4256090134529185 4.685355939639101 2.165031502084267
Sc 6.667066251808524 10.473645681677127 6.411557840320501
Sc 9.153334755673 8.565710242235273 6.093579538281705
Sc 4.740569402641333 8.104942017173054 5.97247913155132
Sc 4.212094553936224 10.137559061257315 8.287189075581631
Sc 9.197379635314181 10.752246395751893 8.26841313358229
Sc 5.140891908852844 6.0207175528817185 3.637625260697457
Sc 8.959567040547983 6.212010830191194 3.9931449067235865
Sc 6.6319209939334405 11.501394757535001 9.502223799173036
Sc 6.508509108741287 3.716839065201468 4.835341611858854
Sc 7.117005291462581 6.244134787255033 6.435889491056017
Sc 4.168253499007428 5.092392771861525 6.373740803377864
Sc 7.158503956552418 8.49355857298155 8.612284403295892
Sc 10.27277150586771 8.045782083815276 8.852754785103789
Sc 10.118872608839997 5.598098569292039 6.694718090353355
Sc 9.359132530989283 3.4172322201471435 4.349424406859647
Sc 5.265598842582404 9.337937398011906 10.975905471189161
Sc 4.475304108505061 7.1177321055601634 8.874647086413841
Sc 8.273416462948067 3.310307656053559 7.224579618552987
Sc 6.002113518309766 4.598784456881339 8.694121617594591
Sc 8.429017158865305 9.379690935207488 11.082644723196161
Sc 8.669467583615578 5.624202211939989 9.300637134952725
Sc 6.587363418199298 6.688645657650878 11.069702589107445
