27
Energy = -136.80869725 eV
Sc 6.409603635195624 10.053944370755257 3.947545289135158
Sc 8.890991047760721 11.085714828367028 5.521804604122002
Sc 11.225178123239472 9.211274882221598 6.641078404993618
Sc 9.17028606644618 8.404272263701342 4.437884087364948
Sc 6.673018960816078 6.711230880635755 4.060169588265587
Sc 6.947975239136275 9.008314695836118 6.3947276472095185
Sc 6.232936587214953 11.738099781583596 6.872135553943232
Sc 8.839316325769651 10.588725404846091 8.490937191278249
Sc 9.370364329870423 5.43166664961943 5.526046629123852
Sc 9.161145186361535 7.561473283042918 7.6593423132857055
Sc 6.576383828587565 5.917735854813394 6.934171398493177
Sc 4.252631950810768 9.614594169877654 8.160711206955389
Sc 4.327054180701807 7.875031549166399 5.606532119164567
Sc 6.982823357275468 3.6793157856927126 4.831638327299263
Sc 10.961751049225294 8.704785895669671 9.69697479504024
Sc 11.391563949175811 5.983526838847739 8.109138677750744
Sc 4.898160238262589 8.35032477376467 11.117775851485248
Sc 6.158584502019565 10.946513127334311 9.941513520983248
Sc 4.022688348997714 6.599802798088032 8.40022259455673
Sc 9.153790713330025 2.4330047686445604 6.411817515851744
Sc 6.739381326288904 8.131759435449226 9.154608099501614
Sc 4.298462752495108 4.767294895977855 5.649535320325586
Sc 8.256384526521073 9.282588736272455 11.3545222080943
Sc 8.743953399113261 4.411491957700591 8.499239131311267
Sc 6.269946601777092 5.329307385312312 10.070835087524529
Sc 9.211901094125878 6.486606924818943 10.542680703477833
Sc 6.187532010090191 3.092398208134099 7.592035247464977
