22
Energy = -109.00006643 eV
Sc 6.248711660707414 6.683701017768607 7.405884904564502
Sc 6.570865340326014 4.535029499743485 9.288251700522212
Sc 10.719994645023421 8.470792679716105 6.553862448037451
Sc 6.985913055837009 6.928206394111459 11.161364815455283
Sc 4.4219849735560945 7.007036035627094 9.631701728588029
Sc 8.53978547518856 7.719447782164894 8.617825568084644
Sc 6.260677415019463 9.42253477802598 9.739604940247757
Sc 6.578260117731998 9.735287532201191 6.824147413854168
Sc 11.37137965242087 11.413978940706189 6.439276135058917
Sc 9.627662593902446 8.729133560879186 10.983442420718069
Sc 8.104138299725824 7.271838595212453 5.195391847637941
Sc 11.798065633626987 9.901982096666861 8.986614435212307
Sc 11.423868744804592 6.952672218947788 9.17218100354252
Sc 9.090239266287583 10.654691760845429 8.218472051744738
Sc 3.9067511090416684 8.259409640225917 6.697707050551588
Sc 5.078056513706074 6.225820803971894 4.69061693693154
Sc 8.858032493389452 10.282381419195591 5.083519650406546
Sc 6.675534462954604 4.109152509572225 6.1678157671325
Sc 9.387846452975563 5.460817133816894 10.602899383329888
Sc 5.775174920994645 9.065264876399294 4.207146094120125
Sc 3.970089380877844 5.014294933060628 7.288861684787814
Sc 9.277710396130944 5.230809407200056 7.493711488911378
