21
Energy = -104.16612232 eV
Sc 7.683405512047346 5.419032784891134 3.092849692566265
Sc 6.250805767720186 8.119791872332245 4.494744930016169
Sc 9.471257091833273 7.7538891500786855 4.135527891938892
Sc 3.246664247101011 7.695139917798866 4.318684942609847
Sc 5.068100064874802 5.293292767374272 4.916144882603775
Sc 8.219646297725545 9.520751758522803 6.439441549072783
Sc 7.5013504622459815 3.273084087901024 5.330803912160627
Sc 10.193636692169452 4.866263231549244 4.817522164628016
Sc 9.318149123865872 9.736411157485355 9.241236842909812
Sc 10.25909530233237 7.373874908417689 7.08746524925274
Sc 7.897502953073071 6.026338753930868 5.819819029824533
Sc 4.423943572471421 9.358165937008746 6.6540212938352505
Sc 6.463439873609287 7.464074373838468 7.815326231540105
Sc 3.5899984174681197 6.569803009484097 7.131990414759595
Sc 5.680964048045758 4.390779876375845 7.722520278331874
Sc 6.372679203802777 10.265480610409687 8.882572329890086
Sc 8.640656673566463 4.433244802578439 8.098751385088164
Sc 7.014887911024878 8.514477545634481 11.120391812961607
Sc 8.764390377835523 6.940993654473557 9.55297254134844
Sc 4.348156249431452 8.091131120468487 9.683044093892212
Sc 6.3190842140031425 5.621792735693049 10.371982587016456
