23
Energy = -113.23271266 eV
Sc 8.598600457434072 2.368669252633768 7.39498520425374
Sc 9.955055934199525 4.914014588387563 6.242693714118864
Sc 11.250770690625401 7.488748193155228 4.859321986969455
Sc 8.495732907484369 5.0122696536563165 8.7463672910878
Sc 9.49750576230359 7.897703986195567 7.315395828500005
Sc 9.617381859891148 7.266652613506612 10.346600871258842
Sc 6.7590364673777295 4.485889888873704 6.4077902231989015
Sc 11.433579702801294 10.153167614428051 6.543057729019927
Sc 6.299028612438261 3.1843192066618067 9.117572384762441
Sc 8.143051707669237 6.857497636075779 4.779576158728967
Sc 10.368159738651734 10.019875240539568 9.43598668475
Sc 6.438481803006691 7.354863433614596 7.707657891890293
Sc 8.386207211367175 10.695682523587639 7.315174871510605
Sc 4.783085469535359 6.865888523910744 5.1661595344396165
Sc 6.562703254091356 6.133957402295793 10.582612759826022
Sc 4.372267152123497 5.394270953242659 8.37433708148798
Sc 9.349855994748538 9.664182004277642 4.535789480974216
Sc 7.403359164495755 9.183080504573548 9.85990092513746
Sc 6.490487980952104 9.322535794132941 5.434383335365031
Sc 4.400016033536435 8.026073231801966 10.055889741525856
Sc 3.1803454773584883 8.024834363769079 7.371914102314827
Sc 5.109435000896658 10.257325338155828 7.879486299346156
Sc 3.6069316914988128 9.77563851707561 5.122796557522436
