29
Energy = -147.07886642 eV
Sc 10.996595432527451 7.7247977896583455 9.946022402278993
Sc 9.936474282173496 10.15446839551849 8.421014089609416
Sc 10.895802055372254 7.67224779185785 6.741185273256813
Sc 10.459219715076381 10.265896603735897 5.015080070757902
Sc 10.581299615773233 5.116262618223012 8.67245717072119
Sc 8.557186906385358 9.049938447200137 10.944104473029457
Sc 8.575365472603401 5.8792974630461226 11.076127518268615
Sc 6.6547457267337 9.982298402258145 8.837070064761809
Sc 9.377520910454988 7.538170093402844 3.8821230052330775
Sc 8.26526734506165 7.190722989685962 8.481403044290454
Sc 8.947650179547328 5.264163437698961 6.052077037697296
Sc 7.35519881789904 9.928102589944352 3.557719106141765
Sc 8.242354998265816 9.204896566229973 6.2416291512142825
Sc 7.724845719644017 3.983187458252876 8.639462413624635
Sc 6.480998668010695 7.0342970026308915 5.1218296167785295
Sc 5.8849725475051535 7.546696912855378 10.663810466744271
Sc 6.171207471677109 3.8471141226438337 5.714449250961791
Sc 4.636134762895764 3.053108696172114 8.444515806478686
Sc 7.702244723835515 4.862597076259736 3.251528083063958
Sc 5.496267803959196 5.91634395488465 7.854341720643919
Sc 5.592405139920111 4.638804223540695 10.716744906294611
Sc 5.175646982738757 9.853283813281518 6.050734437638059
Sc 4.025103498652065 8.501517843615078 8.51335759849978
Sc 6.782691028895101 7.353783851735535 2.0079562083047002
Sc 3.2322431574679227 4.4326294702658675 6.272428111946827
Sc 4.537776623426366 8.696902856511088 3.3708892339907965
Sc 3.013987781620167 5.600911366658012 9.187721981877472
Sc 4.559601859818443 5.5267853548163 3.514398505958029
Sc 3.3274810720716608 7.3228949942112065 5.846111864857173
