20
Energy = -98.31555283 eV
Sc 8.12666932317837 9.23062173530704 4.507431425640509
Sc 6.373012030331648 6.767856600484846 5.365980305886777
Sc 9.350431569214699 6.458262440375288 5.283462734850086
Sc 9.525545104212215 11.76254687397991 5.5287151795372065
Sc 10.684420671455582 9.071025962482357 6.0759322872876655
Sc 8.092552002440275 8.212074765844237 7.304707834976956
Sc 10.603878453779146 6.790398585112147 8.262285253354914
Sc 5.03394531528156 8.749474403983458 7.3658971749520905
Sc 6.791393818817036 11.092774980392528 6.569388730194531
Sc 7.7446967041932915 5.175929628608702 7.908276580821371
Sc 4.864034967620811 5.924664387582728 7.925419156187536
Sc 6.310185783895126 10.260404608664327 9.578453195559932
Sc 9.120092203078865 10.842965062102442 8.341905337626663
Sc 11.77239880800969 9.478996375526902 8.897976679378731
Sc 9.155359519976528 5.68122753539008 10.668891754364813
Sc 3.999609427255549 7.700987832062494 10.151657532985487
Sc 5.7198491148451875 4.910951586922184 10.506263446757362
Sc 9.417344189258984 8.71300629459488 10.45982207622098
Sc 6.783651151089943 7.39545693620147 9.776070369567577
Sc 11.885971915801656 7.135415478117607 10.876505017585236
