24
Energy = -118.21680084 eV
Sc 3.23579321481956 3.7756660040192065 4.848478466363699
Sc 3.948072171741611 6.951422239868127 4.951420308539965
Sc 5.3911327864995835 9.815848618988241 5.528461855672739
Sc 3.8561585240095604 8.25989568102064 7.925825403574731
Sc 6.08329377674877 4.663729817156744 4.910965448071695
Sc 4.1838941573775035 5.057399128358107 7.335917914723051
Sc 4.620877736796534 9.232054090499528 10.870788697157435
Sc 5.8160453515727415 6.723864607609654 9.85560416890885
Sc 6.9030164814207735 7.791046450124656 3.7358047767769835
Sc 6.413729661857232 7.160584849465257 6.72504034099031
Sc 5.369922872260526 2.2993215426079616 6.5246646646797055
Sc 6.513171703251493 9.742723690607512 8.645338750458798
Sc 9.578528176059367 10.028202510880169 8.877804493208085
Sc 7.167221142950455 4.366339549395316 8.059767909042279
Sc 7.579404646435527 10.693735259612252 3.385028117064316
Sc 7.6828562039500845 8.628882208357428 11.198433010199501
Sc 8.336522375306854 9.505279565921626 5.988497816097381
Sc 8.475262258027696 2.9776410463303824 5.855140632275972
Sc 8.95556378271684 5.999746879288634 5.335070075899599
Sc 8.455145998363907 5.393751465721402 10.760003187676276
Sc 8.683991184963139 7.3269145315712 8.709796700502922
Sc 9.783508011702718 8.616675466803029 3.626571302179039
Sc 10.112406216391799 4.931090382244251 7.841314289793726
Sc 10.737770223393113 7.984887767174398 6.710225889151707
