22
Energy = -107.85214103 eV
Sc 11.690881178967299 9.442246317099572 10.551072302679144
Sc 10.03883052653639 7.279318359581707 6.049609055239168
Sc 3.426441997072826 4.411774674913453 7.7562018376389625
Sc 6.234812850410342 4.830383950745712 6.348764082683062
Sc 7.2227506741406415 6.61412604546148 10.52816188088787
Sc 7.064089487750627 7.305418850453196 4.662519257147376
Sc 12.556310591826993 8.325398897198383 7.83358121869014
Sc 8.809132784068378 4.953261152564041 8.119459946757612
Sc 8.475943534521663 9.850659792356334 5.543997898056346
Sc 11.542965986460484 9.738094115234716 5.199376421701428
Sc 9.677971457169537 8.446899241303218 3.2783262189419533
Sc 5.400854136133378 8.942012660125823 10.036820384161963
Sc 7.374886197030388 10.309003427870099 8.319464041663123
Sc 7.437741520084299 7.515150350019857 7.647606487835058
Sc 10.342141902016785 10.283554200064392 8.022096686916699
Sc 8.474513990157675 9.511805375453475 10.847287399834123
Sc 4.115071424992297 5.829321032704314 10.73328803393454
Sc 4.063443854258456 6.521729756664634 5.2638791852946305
Sc 4.6285311210430296 6.908949261896441 8.098060933109256
Sc 6.035836525375244 4.327768937935439 9.164905596301628
Sc 5.262685607375529 9.242554112674705 6.308166911181932
Sc 9.952177059399377 7.597836687538385 9.165441224933435
