22
Energy = -109.53325577 eV
Sc 10.062789567842394 12.823151882500003 10.068144239509328
Sc 11.717799774173676 10.383345375069002 6.088204653354395
Sc 12.55803020035561 11.78013702964218 8.662527927287833
Sc 10.243835841755633 12.910408276196986 7.005901677468788
Sc 8.48284059350064 10.466175070419355 5.698690052339303
Sc 7.369362800007323 12.11585019628728 8.376006288372135
Sc 5.505237874170398 10.311292658390018 6.636823193174286
Sc 7.086535077984059 7.794791213555701 5.594225726738243
Sc 5.335312904819775 10.37814841627428 9.778643386057079
Sc 7.268892398122602 8.894218831757756 8.249116536571472
Sc 8.158338196229007 10.472546121966626 11.140751893116036
Sc 10.043185963390478 7.695228132014888 6.611870717446153
Sc 9.938271042142542 10.4299726550814 8.400067882739632
Sc 11.431337644310576 10.163175141833566 11.244480325707432
Sc 12.53838501971171 8.534373185060026 8.586728894765132
Sc 9.779577261686992 7.897131257984643 9.887858920858406
Sc 11.184930497159161 5.610575253635366 8.72088500638216
Sc 12.070522507750722 6.984973872365429 11.399945586845497
Sc 9.490052662757382 8.10368179953431 12.79403785987825
Sc 8.093285812575587 5.923399845487452 8.380880140769097
Sc 7.008910677705272 7.520237649732567 10.993254245000916
Sc 9.373428489105063 5.3890462805838135 11.256670259001524
