28
Energy = -142.49676435 eV
Sc 5.219097255264128 8.67543953758946 3.2730403674213537
Sc 4.232055200155246 9.359622110602569 6.254570008065148
Sc 6.366107239017465 11.370623904021592 6.166757727527359
Sc 6.555145448294772 5.504037979844908 3.6735540841129866
Sc 5.049169282636449 10.935613884204598 8.79393721713702
Sc 7.907780008041349 10.387178024450975 3.8284271127452545
Sc 8.168187194175864 7.763006717235228 2.5472303073403357
Sc 8.988315006688943 10.173253855062308 6.724247043977521
Sc 6.937097836128565 8.107215169049624 5.351564245186858
Sc 3.8007651103241704 7.679542004842936 8.736576439346916
Sc 8.078064570555622 10.387213878619722 9.801632431130495
Sc 4.353878649764603 6.397097022528893 5.845128914933361
Sc 5.469984863136196 9.01574037010249 10.970530137141699
Sc 6.70910364688418 8.62907912733356 8.17789687240928
Sc 9.633328195355649 5.306461397953245 3.5572855997152644
Sc 8.253766919330532 5.64920229291797 6.2809560171031205
Sc 6.201039079269491 5.737299563142487 8.300478252428158
Sc 5.694605101916256 3.72319735553834 5.965931937021931
Sc 9.695082446241386 7.670865901544242 8.208628032277655
Sc 8.564278741550822 3.028025773367976 5.058192282588074
Sc 3.9328056165112657 4.2119866634784655 8.608520388685273
Sc 4.821642849985683 6.052913062297193 11.029921182710991
Sc 10.021190094992411 7.887273701958951 5.021177709380058
Sc 7.719499785975545 7.058143434626677 10.677403445759872
Sc 10.877888613550967 4.8378243131435275 6.43313948581455
Sc 9.181557114682166 4.8805344714193195 9.162100944443562
Sc 7.677384457636812 2.7098680677559877 7.8794894382746525
Sc 6.5818140947421675 3.788062687089173 10.426696873553794
