26
Energy = -130.19269345 eV
Sc 3.628686724356512 6.5012139548131875 9.36431611874682
Sc 4.74461795647583 4.543464694340268 7.1447995796629415
Sc 6.584297952724137 5.670833543436875 9.382845312090277
Sc 2.762335659023482 7.234292898368133 6.614293647348258
Sc 2.7893347964258774 9.35760950916094 9.190824678055977
Sc 5.796196893619958 7.447064752562079 6.801847887841937
Sc 7.420852362827443 3.24781369299814 7.7250872312414955
Sc 4.590837310937906 5.517358866161808 4.3396104543889615
Sc 3.927287576058445 9.873938666679182 6.708400442611543
Sc 5.628203468121048 8.625724654515658 9.61724882215236
Sc 5.476451142507651 11.326946140739501 8.513385231622182
Sc 4.109931652646062 8.609939783442998 4.159426764986398
Sc 5.706920429067488 2.5980773796387284 5.102425966390041
Sc 6.463551030164929 10.453936051867052 5.451739170878054
Sc 8.902339848990357 7.648411473363656 10.111509325619771
Sc 9.361713909767543 4.514768221908682 9.640061558769649
Sc 7.921922326045015 9.608690742692547 7.92132759969681
Sc 7.31880953579737 4.937447606669403 5.35483694902899
Sc 8.927371695768086 6.599211440742003 7.313375343079051
Sc 7.000426002336056 7.7155133987429645 4.097208766701857
Sc 11.567838397411503 6.226806751649378 8.926962676650538
Sc 10.898150665608597 9.001794746939517 8.090713741965487
Sc 9.380562871313604 8.927900082024234 5.385993662253427
Sc 10.448871911371233 4.157517593344934 6.666923687870905
Sc 9.759401422458929 6.14991495572684 4.164733588144813
Sc 11.844191493368507 6.946693739795878 6.0567984980801794
