23
Energy = -114.53722363 eV
Sc 9.751590131136087 5.031842714256551 4.082679662669701
Sc 6.987244529072218 6.110607608163589 3.354558186590276
Sc 7.4628635985681155 3.1645034843955893 4.884407017068585
Sc 9.810996006347755 3.6247970190811167 6.79232116691963
Sc 10.801339095599667 6.434908045542409 6.5522060865711715
Sc 8.980741036511194 8.142382330137476 4.892973160803023
Sc 7.754639236049698 5.656537079792353 6.180762762054813
Sc 4.723574642741701 7.003742028458173 5.08141834094267
Sc 4.871605676230918 4.379050095961884 6.380155536750499
Sc 6.34260686942368 9.155899783478024 4.240321333257802
Sc 7.216499846807086 3.5670244320747955 8.358617537970433
Sc 8.811103689463083 6.186853614494325 8.94628244982044
Sc 6.540976086963698 8.114851954738299 7.398041917047032
Sc 5.353545077023354 5.635886782673139 8.910177883158347
Sc 4.371208197081619 9.74788585470972 6.481836761534941
Sc 7.4938740473420715 10.917129541658843 6.441048356964223
Sc 3.2806695937593022 7.052303950371049 7.5828772727082505
Sc 6.874469926964391 5.934895393753329 11.242711487954342
Sc 9.507297345571866 8.998523733877844 7.780704158600123
Sc 5.8875228719187165 10.765438737056916 8.963327806321622
Sc 4.806259961532212 8.1504930390596 10.09822274090073
Sc 8.727721108891378 11.562139651670222 9.164969964777969
Sc 7.78028719211397 8.791264806880248 10.26107545601246
