27
Energy = -134.01987397 eV
Sc 0.5414829261398361 5.1800418899342535 8.302404610904722
Sc 3.5156636427413135 5.074513796143727 8.363924675869008
Sc 6.89954186368262 4.9761101955591895 8.308193036568795
Sc 9.871151758228848 4.910704833396998 8.15022081348162
Sc 1.969590715254165 5.422716137775411 5.7242118484564255
Sc 5.172356433585726 5.364307353913487 5.583965753327131
Sc 8.376439113794815 5.238331708887153 5.618871265097473
Sc 3.5939774548362835 5.774320115768788 2.8804860406502857
Sc 6.681975374818286 5.686068096256685 2.829834694628768
Sc 2.180975294464327 7.6440485056776515 7.700546489383335
Sc 1.9882070019234064 2.7884784192133836 7.134642429444133
Sc 5.275685187690088 7.719001725596998 7.763349948428917
Sc 5.115740539764036 2.617856592054628 6.981559072579177
Sc 8.357194824163072 7.465758508416441 7.600246928007844
Sc 8.251893285652711 2.6077134645454665 7.030873880888105
Sc 3.6561881026032497 8.140900004585506 4.948052439197062
Sc 3.516206077674427 2.9752159717944773 4.31360511624376
Sc 6.82491816020344 8.0499410532718 4.896136463096133
Sc 6.645622959371451 2.885234278800591 4.2622587635868365
Sc 5.203192831195415 8.257978371666534 2.3901312562054877
Sc 5.052925428955457 3.3694664392911178 1.7680118461951855
Sc 3.8991784255781465 10.364705698471171 7.067788488365081
Sc 3.5759229170458857 0.21990273680180045 5.770426757575696
Sc 6.778723609418833 10.281782377824694 7.020892445504865
Sc 6.473476172409439 0.13591927465649972 5.723382535140102
Sc 5.304544718817464 10.612572789985323 4.413057810655431
Sc 4.9955120705938745 0.6312642684912423 3.1467402125597856
