26
Energy = -129.90342849 eV
Sc 4.508991236498592 5.8647746783593675 10.651438867866453
Sc 1.8893129992060984 6.957937339101926 9.251888004633924
Sc 7.260460465516235 7.120581286881652 10.62271080648873
Sc 6.972871532541592 4.417739096934535 11.826636124704383
Sc 4.495071913469036 8.578939700447936 9.28781218955838
Sc 9.335612552861988 5.023881544034237 9.976634802926814
Sc 7.722987381698698 9.970124888781378 8.95924727661858
Sc 6.619927769470156 4.556975291631289 8.861096924921874
Sc 4.100267028425089 5.939560969521786 7.594345110587872
Sc 2.75347541639561 8.40491974745346 6.7931901779514865
Sc 5.637413112398199 10.145711600776792 6.716839894801087
Sc 9.62855319418673 7.583773718549628 8.244823904787161
Sc 6.782239212708517 7.482621697265415 7.688921696392789
Sc 4.984658039177782 7.731488624479011 5.141671072928287
Sc 11.890048489626174 5.983760649720453 7.980569699377704
Sc 6.035546059700036 4.801973398161643 5.356405999779626
Sc 9.015620572266444 4.7801212730275076 6.929619396448584
Sc 3.0355899101458435 5.745077604623366 4.746940961148981
Sc 6.850402276930667 9.469693334374236 3.6472233932748814
Sc 8.621339033294888 9.702584039044526 6.101863821411023
Sc 8.783726757059686 5.134756285170318 3.393151591960395
Sc 10.801864068414128 6.422647851984532 5.36865099942938
Sc 5.976728954055576 6.4127875449491665 2.764162646432038
Sc 7.856971769579505 7.0939079452280325 4.970694439761148
Sc 9.88237487013324 8.482257890396117 3.5164512745853624
Sc 11.62089175382815 8.912416557686775 6.472576410221949
