21
Energy = -103.11394832 eV
Sc 6.281662320265776 4.621249753645922 1.697284047705353
Sc 4.611908203007806 6.514167913769407 2.8525213393423927
Sc 7.089074450672563 7.683492863106325 2.3114041827567617
Sc 3.607654449789572 3.8718831696106544 3.7499180662466505
Sc 7.927573085644699 5.292103754962189 4.045108404688595
Sc 4.574856254450085 9.164296377285394 4.010956946487492
Sc 6.340062882509237 2.7087344882301596 3.9200801470838584
Sc 2.3749701871776705 6.5985874624212775 4.527523537743229
Sc 6.885111324602774 7.939068414336521 5.381572863853429
Sc 8.346236114725238 2.83577525770536 6.146246191034537
Sc 5.29981449493906 5.449554014199019 5.56569447042939
Sc 5.847096317240445 10.097105974458547 6.947827851381742
Sc 3.7653110099114953 8.01665466134424 6.59086645923981
Sc 7.763922786524816 5.539014059298892 7.288771008005066
Sc 5.413673606518099 2.7095456668590545 6.726635288131604
Sc 8.30768498133035 8.530620867373178 8.202903827285146
Sc 2.9778187417399744 5.007297916941778 7.082204494186157
Sc 5.636390808163986 7.565247591078974 8.717164038476733
Sc 7.6421286167493 2.952971086853378 9.017005729698525
Sc 5.343510469572756 4.667938679478186 8.932274408875855
Sc 7.7993811605326036 6.070532293109522 10.121878963415663
