28
Energy = -140.68782078 eV
Sc 14.242903462771077 14.041119928912808 7.412340402975514
Sc 10.33856146653132 10.04028080001804 7.392155264722742
Sc 10.216138773423204 8.00619266182853 9.77463821387579
Sc 8.263655063117469 7.95518303573462 6.923748192163296
Sc 12.88849238605003 6.530725695986704 9.743551982425796
Sc 8.322220084346805 7.56195401222532 12.011061702106469
Sc 7.263364693414794 12.925505397754177 8.895652049288248
Sc 10.068039793661843 5.3183891703629955 10.108713304398579
Sc 12.849079573645787 11.624428641255841 7.0272225063817135
Sc 11.227195735251376 6.893459012104848 7.323696245985234
Sc 14.744955010638423 11.610763985706742 9.451877531798589
Sc 12.133502811341968 10.323297248087616 9.745529013202958
Sc 9.801366295067876 12.138180537053769 10.331178073306381
Sc 5.526267301100756 9.128006986466492 7.893963558162425
Sc 4.955362576725578 12.138786682012013 7.112909539565453
Sc 7.939686252091277 9.86153260392299 9.41341268467865
Sc 7.249984039053732 10.881888281311737 11.98103217909512
Sc 7.274916039284806 6.654968875344733 9.357199679121624
Sc 10.183173751852047 9.9518303554154 12.188455589222913
Sc 7.65594585552501 11.064778023004257 6.51658262777237
Sc 11.581094340603835 7.302089492482886 12.332086565995874
Sc 12.410322141522181 13.405575473817796 9.493602849333406
Sc 5.025493080972433 11.24169099418022 9.944789003370133
Sc 14.07350315207316 8.871238594042198 11.246878503832066
Sc 12.870220746509805 11.673492246088145 12.062558820867794
Sc 13.717977715022885 8.762231965173115 7.976328874047261
Sc 5.5233613936453105 8.526603304183917 10.995033298149085
Sc 10.12396633154161 13.089397709700949 7.448584844916111
