20
Energy = -98.64630316 eV
Sc 4.014029700894427 8.358185480663462 7.303951578795322
Sc 5.476719098289279 8.68843823256726 10.176981272289327
Sc 10.639887038818236 10.437144381758435 9.270538269583426
Sc 6.957041238449742 8.266864142285053 7.597778438467607
Sc 10.920417521079342 8.374843665728944 6.4312614347682615
Sc 5.635207611886086 6.742610603442783 5.340407253774696
Sc 8.642592771244125 6.193100282571332 6.187653013722289
Sc 7.5686491726694465 10.688249548313753 9.39406150901545
Sc 5.8684924929503 10.796610954660919 6.74865906528505
Sc 12.317945547003713 7.941309582777344 9.353061988218364
Sc 8.404395189022873 4.522293491123089 8.658340311432315
Sc 9.465084147557517 7.748347210627041 8.7951328235582
Sc 11.174670653094811 5.588079313118312 7.912591418704979
Sc 5.572747462966548 5.776337160307053 8.260371284462245
Sc 8.95347768797896 10.646773652092671 6.867052107208979
Sc 7.338122967491541 6.481567240523357 10.500715135474813
Sc 4.589143723635824 9.362691268884399 4.481132956882573
Sc 8.7516306992488 8.845945948868579 11.39158541988498
Sc 7.702976012053135 8.914825922429827 4.810631048643704
Sc 10.355401917363055 5.974414570953849 10.866726323525034
