27
Energy = -136.91288434 eV
Sc 3.3587678591984784 7.7589980933309795 9.454508252403413
Sc 6.0998531538061265 6.796784067506443 10.838323611479474
Sc 5.496499425428647 9.891529062495318 10.160944149500263
Sc 4.5359774124803245 4.9611487120162785 8.495407758449277
Sc 6.959314377618807 3.7293902826457273 10.306059725937557
Sc 8.42982279345822 8.700724586290544 9.561937095274661
Sc 3.7954977968815555 10.104496081056089 7.555542387032487
Sc 3.4701688503253743 7.120077302833006 6.296451215686426
Sc 5.851359619480746 8.101575919509026 7.946425210643872
Sc 7.586521289640585 5.697278655830213 8.355387375915532
Sc 6.998806983803069 10.797697305283403 7.476497946492446
Sc 9.192373699738257 5.842565992910998 10.710346446347932
Sc 4.0212693824152295 3.975179132661906 5.463570303488398
Sc 9.94709856529251 9.816791432213435 7.044314624727095
Sc 6.67791121647266 2.9921577135334423 7.137375569451387
Sc 5.454161642101588 9.191736213545223 4.952383950492498
Sc 9.576590411593576 3.676101788075361 8.631394957110581
Sc 8.434225149065929 10.638609591374863 4.643098580093724
Sc 6.214269686184659 5.734373175321435 5.781202710214061
Sc 5.113352741156174 6.349630573154168 3.27624961826099
Sc 10.343636461211847 6.749866467771819 7.719472994237332
Sc 6.630671929850179 3.5409973239192056 3.9317816457160495
Sc 8.054720916474459 7.953465326066085 5.746242290347023
Sc 9.160593702467494 4.593289158113348 5.692085323155591
Sc 7.470823856917645 8.620069413440806 2.684036187952088
Sc 10.333287664898918 8.078093116578906 4.427589814999961
Sc 8.19573863809864 5.975371336898087 3.2545110473726058
