26
Energy = -129.06335983 eV
Sc 12.421443506882238 6.733227099293238 9.412891096022252
Sc 11.695322202797259 6.953063411257232 6.459838829212022
Sc 10.415789506716214 7.616264974415687 11.395581789158348
Sc 9.308371044362335 8.478916709400492 6.196106678790865
Sc 10.660795064123866 9.095453981958826 8.80935788706202
Sc 9.506883167585874 6.433003404514507 8.651217831694243
Sc 9.862488287198268 7.418624379017653 3.4720161463238726
Sc 8.915288302333188 5.532113833523272 5.5219708496991275
Sc 7.649208180956786 10.739048232087566 4.804763681467746
Sc 7.633082026187231 10.42458068314085 7.76518672066954
Sc 7.150569523043046 5.292706404953607 2.9177241902038964
Sc 6.653906732312836 7.5342169388618165 7.490018625479124
Sc 7.8075660470335295 5.620708316880016 11.145204132193044
Sc 7.764036815548129 8.52557540870298 10.16214782982368
Sc 7.103656553001168 7.7088056900846205 4.365203584227337
Sc 5.809296386815349 5.125088685806711 5.662671330403411
Sc 7.074012120287166 4.496111904663971 8.46013759930147
Sc 5.467304930631154 3.7279585307734457 10.814784892222322
Sc 5.620834884474409 12.209776238237508 6.767925447276467
Sc 4.904864897762795 9.721701598318715 8.755072369739445
Sc 5.1927624099006096 6.534489319279606 9.924404117405222
Sc 5.117338489049666 9.533782894008787 5.770515583592082
Sc 3.687060967096204 7.023460518911142 6.915842545370448
Sc 2.938069455990515 4.582198634173808 5.231809215150083
Sc 4.087158846458631 4.312657824548179 8.138692081613177
Sc 4.34617336114795 6.880371187790049 3.8882784211894816
