23
Energy = -114.66735256 eV
Sc 11.560625823003567 4.544088166840166 13.049435649885183
Sc 8.902880791819575 5.7621484909514455 13.715341893880044
Sc 9.565010949491251 12.63755507432678 7.800247506811675
Sc 7.409765145337168 11.551690099226333 12.521814681456537
Sc 6.872286402965297 12.187886120040725 9.431513823959287
Sc 9.43177626708991 11.123583245458983 10.384854196264415
Sc 6.761199427481697 6.325739623191329 11.644882970389938
Sc 10.609481405599526 8.7133624378866 9.015378697148378
Sc 8.214641515858492 9.970281978482815 7.698890754602382
Sc 9.434180677600075 4.920878599249274 10.916892388735087
Sc 9.326216562769456 7.857606881741273 11.51139651329643
Sc 12.164278229871684 6.601598467197933 10.900789417675549
Sc 10.137362044866732 10.299321201976005 13.214871505541288
Sc 11.13277062901711 10.41312929878766 6.569958778592363
Sc 7.552264395285938 8.62549756653659 13.609841972556195
Sc 10.287086193554996 7.623352921321938 6.288791552166476
Sc 12.471330907780382 9.487521503182414 11.391333837842588
Sc 6.891252668236816 9.31165941742579 10.503655644691673
Sc 11.074756102555344 5.71601539295272 8.371755861400485
Sc 12.193724400134323 11.42478183263873 9.067187445808596
Sc 8.19821942603119 6.905511033978445 8.791935434506597
Sc 11.468656304755617 7.530127194921672 13.658404626277154
Sc 13.025677560573607 8.345848482808554 8.13162485904088
