26
Energy = -129.28977711 eV
Sc 6.2088755746928355 5.777739684141284 2.4388015088870287
Sc 6.056102823747283 5.720141335133281 8.907621819306804
Sc 8.8777638554747 4.833997520820306 3.9494935527028114
Sc 8.831921731932074 4.802341483467422 7.091471700504005
Sc 7.8538934751541705 7.959724984288787 4.0838773366803185
Sc 7.934703195473454 7.799145006676057 7.183186043922325
Sc 4.644598871953064 7.917390631457334 4.016712274129987
Sc 4.881956133291916 7.779462133187125 7.043537791637887
Sc 3.6013590123929644 4.851340418624245 4.045134988666601
Sc 3.7279252837969934 4.773541337529974 7.17652119618641
Sc 6.253613718338312 2.9151072195270045 3.9034417333327696
Sc 6.255094981267402 2.9155222089460424 7.044332970838977
Sc 6.284564023466319 5.6191513856380535 5.372004166477189
Sc 11.250652670926693 4.01454637160835 5.5412154047102335
Sc 10.386748027862549 6.961942944522585 5.513850616968177
Sc 9.427121103896628 9.916858050116396 5.747854758035568
Sc 6.287141017262666 10.026805300123696 5.838093557875134
Sc 3.1338140374639862 9.919458607426135 5.946069131259488
Sc 2.243354782140012 6.919681233630217 5.826249614841222
Sc 1.249268464788801 4.023203827457917 5.746428013752047
Sc 3.7585625725251246 2.162009292958373 5.47378639853773
Sc 6.27764199541303 0.3852519934749464 5.484069063430847
Sc 8.748648552748296 2.2352538546728957 5.5245719210645055
Sc 4.383932326795817 10.432638550584436 8.464774338724203
Sc 6.079092682603386 8.54105204805988 9.694686745383477
Sc 3.2078528342136106 7.430771764313374 9.110432994231067
