20
Energy = -98.432835 eV
Sc 8.49297448818788 7.574267163605227 5.276138635000797
Sc 5.931240975972684 9.327073437647776 5.556468463827743
Sc 10.955201356720004 6.104372966897231 7.26893048849248
Sc 5.6267169418315275 11.954262832303673 6.959913760901477
Sc 8.462873764814432 10.538045839411426 6.450300598278872
Sc 8.51157880244751 7.694633595992279 8.109510415054748
Sc 3.7634666861691914 9.338353837005473 7.531786299752157
Sc 5.7177391758911496 6.818338909273875 7.112563107169898
Sc 11.132389199266424 8.849818559473638 6.208231996315767
Sc 9.482066322001488 4.407638612751075 9.381070035357315
Sc 6.414791095266493 9.76244781101935 8.564507748268412
Sc 12.949625370066155 8.10416684442461 8.411942761207273
Sc 10.40809172166699 9.908591598869885 8.840497691600685
Sc 8.138126773985507 4.923209746551467 6.888827804948228
Sc 10.737185975177766 7.205944848458574 10.255077597256816
Sc 8.25248257369116 9.394341307021149 10.88413206789414
Sc 5.259866659005684 7.522832290541282 10.001657697015053
Sc 8.13009419256682 12.03773055511581 9.052636746981618
Sc 6.277575878679673 4.604675282265005 9.169287510513724
Sc 7.865465078424133 6.438806993203702 10.586071605995182
