23
Energy = -113.88515957 eV
Sc 7.175703498255116 6.449581460525972 10.601217326613844
Sc 6.449784565938664 7.895791906738491 6.819432456934956
Sc 6.316661905979143 9.291872658562701 9.498920763996018
Sc 5.890973419893491 3.9445564196095946 6.550648180376189
Sc 7.208270808886131 5.932837545602117 4.728706511404327
Sc 9.410670891008186 10.734262550475986 8.13261524841259
Sc 11.616016743954459 8.555613409416104 9.059841962832566
Sc 9.300371692445166 8.723184779423361 11.221845952924138
Sc 5.966330438649453 9.15799653801288 4.361556295167594
Sc 11.519810984161133 9.698484396054551 6.217263463913923
Sc 8.887367585954193 8.751509199633233 5.586994460114877
Sc 7.917295191604981 5.332132125360102 7.863570883003533
Sc 6.744260992097007 10.810088256635693 6.78811368397163
Sc 3.1843502699365596 3.964653059579482 7.144224782334702
Sc 5.91931616965148 3.6544471421042206 9.504988595644235
Sc 4.278439065143794 6.396272666295017 5.590024775837302
Sc 10.216649456413531 5.963195602294247 10.013750345654113
Sc 9.234354997961558 11.590517215353492 5.195820088151665
Sc 4.300870338964449 3.9340960801914644 4.203777715131835
Sc 8.840992747846212 7.968039314339079 8.612459868132955
Sc 4.868654385085269 6.290310787247457 8.646679087813768
Sc 10.738277578086175 6.60492378152609 6.845725341432593
Sc 4.101288551768297 9.319894301260648 7.017011494280017
