20
Energy = -97.78684971 eV
Sc 8.931716282011266 9.268906847989008 6.438779897130818
Sc 8.170976839968237 11.772156258035924 8.315008014955007
Sc 5.836371336174737 10.012812926424402 7.113722483653538
Sc 10.526502238077404 9.854921037532884 9.221499529147016
Sc 7.643313161786975 8.976088300783992 9.294625443955772
Sc 10.380826905968023 7.717147109719049 4.233663551127863
Sc 11.778531509425745 8.23793406336213 6.811101452316165
Sc 5.702194133123264 11.144540096254913 10.07388297608557
Sc 6.765819976410899 8.043807335934023 4.559752489688431
Sc 8.534585386999465 10.973268181150972 11.324811627943976
Sc 8.027747683028227 4.347001214821472 7.7570468554202945
Sc 9.399144576849121 7.9703596538077495 11.523342422653798
Sc 6.2845623683635825 6.885194418521007 7.36777546233385
Sc 9.762254328297583 6.776347412419882 8.570648275808555
Sc 7.075197940076491 6.210116389737155 10.338329464060488
Sc 8.554190850821877 6.1881369029103475 5.692391515052057
Sc 11.168192830483452 5.369008071910134 6.245908801451118
Sc 4.712415658011491 8.269202182703689 9.56982116353847
Sc 6.033683586896175 4.938022978269214 5.2438902496138695
Sc 6.457429271599114 8.79068548208493 12.049655188436205
