23
Energy = -113.68366129 eV
Sc 9.3735560101973 12.44238844006063 5.7928068128265116
Sc 7.516912500947974 10.042855499090972 5.527956222929782
Sc 7.184565489684147 6.405407312086671 9.890001295908188
Sc 4.83810358482986 8.427737359580883 10.645843069244203
Sc 7.535697354660235 2.3596505051372905 6.393994669915578
Sc 4.383761295162339 6.20316069632197 8.452942579956932
Sc 10.163485111293845 6.687111115447272 8.967531261613106
Sc 5.536517727205063 7.004539362327816 5.635203453536504
Sc 9.567955113778295 4.88963613923573 6.243979748788187
Sc 8.67850986021654 7.32337317200066 4.3337415675100415
Sc 10.30852626929443 9.962844869354225 4.500859616878564
Sc 11.171768613246803 7.522675347051513 6.1167367587002035
Sc 3.161350068618929 8.93698998797703 8.183081664839037
Sc 10.083099415953056 10.005547224551451 7.487518734664539
Sc 8.064767912155437 9.259534251835873 9.970456523233757
Sc 4.620417404377476 3.89532084153497 5.797227440396332
Sc 8.991117110410974 3.7584791925982963 8.933037288441026
Sc 8.280520491519985 7.523190050115848 7.149349260635818
Sc 7.706017696148369 11.586822711221227 8.113978183748374
Sc 5.956827404036196 8.82214373927526 8.032270994023925
Sc 7.10598337897486 4.635982340519042 4.476132859889579
Sc 6.761309063615553 4.8320006388885135 7.41680794622493
Sc 5.016637637037537 11.106595171850033 9.591613338442677
