25
Energy = -126.03581002 eV
Sc 8.698005132261047 8.55406894466172 3.3247490031865423
Sc 9.465096007704798 5.774511224935743 4.354445023060536
Sc 6.585460275435383 10.267997865273388 4.731348412469509
Sc 6.112648235503109 6.842707567020494 4.123028813473848
Sc 7.768078592838312 7.730997033663982 5.917250337702217
Sc 10.923162642075042 7.794362588869275 6.095002107598226
Sc 9.430543301602125 10.4773108680059 5.612654374889667
Sc 5.382890091819215 6.137350795828801 7.210361982534393
Sc 7.3044753916183085 9.876474447870848 7.600063540205753
Sc 10.793020279966534 4.853829088820193 7.12352307733036
Sc 7.788493714357526 4.648582150573586 6.483126565561789
Sc 4.705466321413277 8.813975911802192 6.789059498930796
Sc 7.803533730406118 12.415301412303776 7.669358770691717
Sc 9.127449317977002 6.910072804770766 8.318233444914403
Sc 6.86127555063061 4.817661936743831 9.3368828179481
Sc 6.673533250805368 7.911468510346725 9.449738646865873
Sc 5.126340011121328 10.523146597244686 9.489805213834352
Sc 11.78839438496793 6.989892393209902 9.143610100129374
Sc 7.962758218352429 10.700677442247283 10.37166177171881
Sc 10.237261807943899 9.825313092695415 8.503644994215323
Sc 9.750346351392622 5.001037303343887 10.390498387437356
Sc 9.403850065315327 8.036037432500745 11.059373222813639
Sc 4.31480794302741 7.080491721047923 10.138400045124595
Sc 7.156333151619795 6.179282065392566 11.906257046707672
Sc 6.00380599405387 9.004478565033967 12.02495256486272
