21
Energy = -104.08893256 eV
Sc 6.864916264963937 4.596467683064369 3.268944517463236
Sc 6.4038847386253055 7.57490223737706 2.5720664810591836
Sc 9.137212253508702 6.598297302628196 3.5985094682235816
Sc 4.240901128361333 5.944271783846246 4.030947838953223
Sc 7.970164068551936 9.323109374914445 4.588527209399918
Sc 5.616724724674348 3.921880865821312 6.059356688907298
Sc 8.707667040241796 4.3334024714803965 5.785140501671557
Sc 9.682718174512976 7.623279816655703 6.519610894333296
Sc 4.812413134499778 8.901508980431009 4.876970118500088
Sc 6.773840409936925 6.71241789892262 5.436995722399105
Sc 7.539852454806881 2.8515681429456188 8.245698845498241
Sc 3.9578650846328998 6.851332151978917 7.027862521335633
Sc 8.133435578250975 10.107601597799198 7.605792888445745
Sc 6.915851234477436 7.515845546076686 8.309843772140027
Sc 4.953669532404467 9.680344091268791 7.8968704971159775
Sc 9.005772123458435 5.3883732002777265 8.553304072280042
Sc 5.536468070985481 4.920553799695297 8.861672954277006
Sc 9.46511800824204 8.18207114974317 9.67454405473071
Sc 6.831040379117513 9.544859568185341 10.416288301015356
Sc 4.56044991474881 7.52061989864977 10.114689476182697
Sc 7.31439579101775 6.331652548257998 10.980723286087661
