24
Energy = -118.59121505 eV
Sc 11.121483748494974 3.7836596980415655 7.249449325401209
Sc 8.249987092593178 2.42175272046994 6.42798334494
Sc 11.423983048473048 6.662501943972722 6.039080371663561
Sc 10.03908669108433 6.54937729339131 8.670567901772985
Sc 8.895962523132615 5.187680027532244 6.134729292140028
Sc 8.675846241461729 3.866752915500356 8.903860107949535
Sc 9.803931642702171 9.165729427685637 6.89203536858248
Sc 8.763855751500975 7.793445272685857 4.459965397673001
Sc 6.127086393321735 4.639067211047735 7.455703970805057
Sc 7.115222260952682 6.416429817086216 9.988411436218103
Sc 8.294047511794625 9.168777370350414 9.548870638008088
Sc 7.200425335621253 7.549452080272392 7.111100920692273
Sc 7.181696973031053 10.13260212900762 5.585432859716957
Sc 6.17578219444943 5.860830330278077 4.5370425416874385
Sc 8.072307312603009 8.4734661510015 12.33387820722086
Sc 8.132644657549873 11.711180293758602 8.119704142522469
Sc 3.6470867202633186 6.7856658512665025 3.1463874269530665
Sc 6.097839094111848 8.481956234287207 3.0592282123001944
Sc 5.503635271149129 8.736069512885631 10.955250777860444
Sc 4.503603277704574 7.167579616925162 8.407606198494571
Sc 3.533744611537591 5.58985810699244 5.869752304768984
Sc 7.072156542549374 11.262263211985031 11.026216231161994
Sc 5.637519923033509 10.125688089781036 8.313949011626164
Sc 4.535094397327559 8.375441285690938 5.5728382813105855
