24
Energy = -118.80566346 eV
Sc 6.070538035133226 5.9276136304147755 2.8910069762750625
Sc 6.151713309612695 6.23825178114132 9.162366723428349
Sc 7.756724693605373 3.749371414565527 4.534055551087453
Sc 7.7085656992726586 3.817161160177352 7.657628177158178
Sc 8.669948086329418 6.793233760295102 4.408726413810181
Sc 8.525659143152797 6.852154565574855 7.5190605674022475
Sc 5.939625665222194 8.674667210636152 4.33278603048805
Sc 5.968693263667915 8.622833855972686 7.4628103538059465
Sc 3.411467423898159 6.765993014173791 4.4203998803228695
Sc 3.374868588999968 6.816645570122233 7.560902416234527
Sc 4.485043688128514 3.674403701346488 4.510839339306331
Sc 4.481937664693796 3.810887052309533 7.6301878887993215
Sc 6.038570085801666 5.96031114296704 5.94105688637196
Sc 9.257637843474473 1.7985727268635219 6.185014725584654
Sc 10.168653576788968 4.700516910338708 6.111103403814069
Sc 10.836035136375237 8.060113868321615 6.489655797221647
Sc 8.44580540022775 9.444005246525911 5.6569498525029
Sc 6.312903174624527 11.184127680516685 6.468896984233872
Sc 3.428401362054446 9.393296317090531 5.976565414570106
Sc 1.0145671594024526 7.5451864668725035 5.985692961726741
Sc 1.989128030479184 4.576224930216828 6.044075057135356
Sc 3.0592844141192597 1.686611913926227 6.147178771304465
Sc 6.136877653895543 1.6964246626920734 6.16133111351077
Sc 8.57989273968957 9.73101729634885 8.508436190001234
