22
Energy = -109.52373178 eV
Sc 4.11767056205862 5.672432226951708 8.57470243784378
Sc 5.523836743816508 7.600265764320836 10.449423443120965
Sc 7.406720572459112 5.402426280584351 9.436482642661423
Sc 3.5595406662277624 8.73212900294181 8.34531155415381
Sc 3.6405461289267307 6.919875921502161 5.799401060487611
Sc 6.219985014805512 5.383488931476183 6.37321899071524
Sc 10.828841893225505 6.036493598080172 9.002986222268516
Sc 6.333972875923231 8.172479665874093 7.631230555688614
Sc 8.513974558767057 8.435232725204436 9.851075777952458
Sc 3.8766158075885557 3.76489085070462 5.868935146682247
Sc 5.818795783640273 10.452422329306016 9.426024847548513
Sc 10.799214536414393 8.887429902604763 7.69369367560119
Sc 8.219390132247979 10.620501327300575 7.636457073684183
Sc 6.798564055783644 3.059782914191924 4.719669430536053
Sc 9.228805586058463 4.085642146227123 6.835141623785069
Sc 5.2177042736024655 5.22191283901079 3.6324801204283665
Sc 8.818443982953124 6.791942743832375 7.324828674718214
Sc 11.176999559492398 6.3040807812477775 5.945376840538925
Sc 5.312113515643261 10.51351962427983 6.373055900161166
Sc 6.151785334485677 8.011114760374856 4.50184794473964
Sc 8.35532069285704 5.782889725912224 4.336882714577018
Sc 8.870893942044075 8.855977541563812 5.294921040231868
