29
Energy = -147.46514659 eV
Sc 9.563836952089153 7.247584108243426 3.1397580911251217
Sc 11.504673319722734 8.465125302040159 5.010213546511492
Sc 11.03839454093303 5.200022731689499 5.140897316025367
Sc 8.04287299216809 4.837930043456043 3.631743560153487
Sc 6.535332815510981 7.610063318905297 3.600262430136339
Sc 8.79582466360474 9.879552778510277 4.33585585046705
Sc 11.75049625446057 7.09591025839456 7.722337369187423
Sc 8.48502867139602 3.5583060178892976 6.122289645096118
Sc 9.1957447429155 7.039735525498538 6.196672718378567
Sc 5.536626499247839 3.6388858286912584 4.977055887867796
Sc 10.017443711146964 9.658921686471649 7.520718880996177
Sc 9.81373620389125 4.855670316904503 8.51865580371693
Sc 6.503710807697072 5.8747889906775175 6.091822210802696
Sc 7.1369054846805 9.141535281714493 6.477766363360115
Sc 4.731296688029541 9.688856671436543 4.882138117185091
Sc 7.511373502623434 6.788887199904826 8.830446049148259
Sc 8.05066168678988 5.19560117080851 11.133646758021875
Sc 4.048368368275013 4.7673727112016415 7.531471598088823
Sc 3.6454525764579637 6.7404080209184425 5.2154973000255485
Sc 9.823161075995406 7.7347832482845815 10.10996057162055
Sc 6.735149587031061 3.86036062090288 8.559289705497914
Sc 4.896400916144966 7.788922458303569 7.6573258152404895
Sc 6.939516980412746 7.940213379949534 11.625359493077642
Sc 5.089667072049753 11.051111709778478 7.594115654112717
Sc 2.351951721650109 6.979111152492721 8.75435439642639
Sc 4.948383181305479 5.977589699657364 10.24460973933499
Sc 7.354315138871296 9.80794827986837 9.441603877741189
Sc 2.5693079065937585 9.438129148509411 7.0243849802282705
Sc 4.3483659469304685 9.17532623239392 10.03790361783399
