23
Energy = -114.16550009 eV
Sc 10.610580965554778 9.03986640480372 7.2250838038975465
Sc 9.199803779855602 7.262363409917659 5.133843530157183
Sc 8.157084666104307 10.208510361244286 5.64433995493015
Sc 8.21277465823609 9.990818938405146 8.817065859988567
Sc 10.992377573453586 6.058801645839884 7.666439899648088
Sc 7.009937539866276 8.322139601599122 3.1809390184873574
Sc 10.419778154251762 7.836708282248015 9.989000335130997
Sc 5.663875965664594 11.073226954445325 7.228700915630549
Sc 8.227431983376926 7.135852368898582 8.087092791992607
Sc 5.152854602702341 10.343221570321235 4.312387286787267
Sc 7.610861900130572 7.729790789295314 10.962829322019052
Sc 3.3836470274544475 9.219457147978801 6.445834705616261
Sc 9.114093194872495 4.383538057171634 6.0887323875341215
Sc 5.335287545256118 8.614573757229973 8.914399951007528
Sc 6.139502218575689 8.006707096052228 6.012083405547866
Sc 8.556994655106545 4.6046856519658474 9.477381346563261
Sc 4.110208349043999 7.404247006929603 4.034479956365061
Sc 6.724415228866789 5.523023997936129 4.295972923509741
Sc 5.6344805147658015 5.823306684470208 9.793348361146055
Sc 3.9084553559676323 6.300779176609429 7.183576714435971
Sc 6.499580615281266 4.742241913322882 7.217173114868581
Sc 7.953718574005706 2.121777113177871 7.628357262885104
Sc 5.917416260716583 2.8688055334509834 9.48437873259245
