23
Energy = -113.41731137 eV
Sc 10.513004120087514 9.293656422915937 9.858997570085688
Sc 8.242870616194317 7.9680538138707036 11.375975141341366
Sc 7.641736333527513 10.042305530925068 9.257887945373037
Sc 11.494724935746595 7.044970320821504 8.033549060300727
Sc 10.00363806076577 9.414175768508626 6.877488824812412
Sc 8.623856991323466 7.408087315390812 8.488984164976767
Sc 4.591732981795581 9.92199010612298 8.402266444121425
Sc 5.691915268767925 7.4998126350119945 9.81414112499824
Sc 7.359823999790305 4.9373102570926095 10.084774017290453
Sc 6.5770646005849205 8.893149462632433 6.162873418955797
Sc 9.421355036714957 4.352617396000342 7.817823446671976
Sc 3.8444211998300264 9.936538053438987 5.458169451427619
Sc 9.691567339796196 6.523684902171862 5.626529113224589
Sc 6.729592464348952 5.753094805270372 7.135626514104858
Sc 8.83371696550055 8.948100002733828 3.922861093178993
Sc 4.5303416235417275 4.688142956150449 8.843820035829603
Sc 6.6643157450655695 2.8334771879421914 7.765409604495612
Sc 5.964081532695269 9.471370232812236 3.261906409356388
Sc 4.004896795261871 7.303139719088037 7.150142679818407
Sc 7.950600751614701 3.777260909411258 5.231216405234204
Sc 7.002415155844114 6.578653590595937 4.069943844310997
Sc 4.266135440956094 7.270076825335574 4.2560909676091025
Sc 4.838663562905084 4.3968522229334805 5.611912170691682
