22
Energy = -107.80770188 eV
Sc 8.972704512874179 5.038842015808221 4.83317147363023
Sc 8.219444186505571 7.808221453566595 3.4748363672699916
Sc 5.958572543085878 6.155480409533002 4.500288159730485
Sc 10.27114933515497 8.967336965854175 5.517319362565334
Sc 6.462281937873025 3.9607526200521663 6.33988933981121
Sc 5.334657126992448 8.831133858194097 3.2572324125659273
Sc 7.380064429127386 10.048120156740795 5.198842065653504
Sc 3.7619314367121253 5.099705216331171 6.618342072427078
Sc 10.967033312485999 6.280913918225061 6.952963378998217
Sc 8.121993402845908 7.280450240777264 6.480848268393744
Sc 4.7779809007623655 8.540537001175998 6.300553856263148
Sc 9.515954248073092 11.30896728246628 7.142021302588562
Sc 8.725491074954904 4.621130947470638 8.04690735483354
Sc 5.677980762464466 6.514863106144844 8.098799868713797
Sc 10.671115294372498 5.900176620768021 9.978071938127806
Sc 2.8018856140723387 7.167947438445844 8.646153657076185
Sc 4.888259461502697 8.863526912784504 9.752373820970917
Sc 10.069810179678061 8.56760615639291 8.581836422441636
Sc 7.269679003823527 9.65521899682585 8.198244055285155
Sc 5.726653063522792 3.950849738854357 9.183430710016268
Sc 7.7427959862412665 6.933563112662302 10.029165833542294
Sc 4.614166973216442 6.215975679773844 10.901741011423933
