26
Energy = -129.80994331 eV
Sc 5.693458414835659 8.433017875459516 12.24270242822322
Sc 7.175169938493162 5.933530916649356 11.130055617348214
Sc 7.61467854873181 8.824938625658536 10.046902891290895
Sc 4.198768188584906 6.2956252073309225 10.729009195804405
Sc 4.498159871233843 9.002010024548463 9.614935849275314
Sc 9.276735150511277 6.771348875145374 8.509681306064271
Sc 11.447429842155353 4.913044229258974 8.209679032812943
Sc 8.277102669823089 4.085040627237882 8.778867388500442
Sc 4.964225214730372 3.9664163517704223 8.962964808967076
Sc 8.712249991598034 9.702802414537592 7.374784321778141
Sc 6.232463287771609 6.596361325800781 8.428711702838227
Sc 6.470950111777872 11.244781294686302 8.705305537678791
Sc 3.415506191603211 6.440608606694877 7.720608289892792
Sc 5.579668862419327 9.168706055222241 6.7487370204266615
Sc 7.818496278503437 7.170146989996022 5.732957655299171
Sc 6.464206170316434 4.324978058343984 6.37457155154627
Sc 9.494207936083422 4.675528235006415 6.0484577682515965
Sc 4.812296375956212 6.5716714168505135 5.025026234963159
Sc 11.11688055544571 7.50912551734159 6.397330626507684
Sc 7.190020056722521 11.452337561359734 5.653486070941149
Sc 9.341504244026497 9.491190804864825 4.297482238460547
Sc 10.019495828932591 6.5786256429234005 3.7731104314139734
Sc 3.5764844404346676 3.9408351481510198 6.051569009073915
Sc 6.409962672648205 9.06288286628888 3.837542401835572
Sc 7.259534209598959 5.249948967715831 3.548258145518453
Sc 8.08032743561355 7.744339630369414 1.9761709831643515
