23
Energy = -115.63252469 eV
Sc 7.723804965060887 2.5873486767051634 6.839836629000677
Sc 8.453168176466288 4.817340140815857 4.523872045104648
Sc 5.605995958431443 4.074443205496169 5.244590456481766
Sc 9.798792297555494 5.035097641180757 7.533018479701006
Sc 5.702601341043638 6.835825181006316 4.123278503773464
Sc 7.489732120251381 3.7352943215526806 9.763106773937537
Sc 4.9161525982531735 3.123067131287169 8.030519632183397
Sc 10.87995823051489 6.778611674794862 5.0601128209554505
Sc 6.856773842311923 5.1525139820496575 7.595337714098856
Sc 3.4782312736613026 5.728026117940691 6.600575657090402
Sc 8.594768117306616 7.769979209052235 3.2016437005509757
Sc 8.204509463593771 7.3684917079105245 6.041737836030551
Sc 9.800537135498445 9.711794162280151 5.296513939746619
Sc 5.543457108571929 7.810382309167095 7.126663716956533
Sc 6.557313077193164 9.745805929411247 4.859666025925027
Sc 4.831185398337 5.954316008182774 9.60626115672152
Sc 10.48323133781459 8.117592554161297 7.827144450966322
Sc 3.458692727779361 8.719510151904716 5.3469180672971595
Sc 8.017006628688403 7.106832010571535 9.484708376464202
Sc 2.9583367993105587 8.265927506623186 8.385992588668783
Sc 7.867211568596994 9.903933041331886 7.903993777151509
Sc 5.571573400319319 9.01325577825607 9.873688594372602
Sc 4.753217980653727 10.637999954081538 7.411645584568162
