25
Energy = -126.05627006 eV
Sc 6.3246747575821685 6.528756610917618 3.6204622926179115
Sc 7.804468817851177 9.068202274583378 4.213582010745209
Sc 6.870599987614895 3.99442255000688 5.2950434524249435
Sc 5.200481417264553 8.855710331009243 5.492504107371225
Sc 4.7112521483274765 5.8643755279294485 6.791251391486788
Sc 6.91233963575704 11.612831315232313 5.751191132300339
Sc 7.371862020341753 6.623068368961674 6.244972996456669
Sc 10.060523205996146 10.160962996242352 5.842893423343205
Sc 9.774909421293668 6.793525959493764 4.6161828593171395
Sc 9.62764391578032 4.594139927725249 6.855633966302771
Sc 10.917879755787416 9.820671953227134 8.819008769383457
Sc 7.636724196085461 9.528241985396615 7.442611203507969
Sc 9.737353042830746 7.463250192096439 7.619813000010897
Sc 12.077645750044978 6.46612436641204 8.488319912575367
Sc 5.909894506836794 11.234740104898421 8.987494710511353
Sc 4.656364174061516 8.465056819347692 8.43672417625859
Sc 6.915225811481511 4.337858275172487 8.346276407665078
Sc 8.794874042454559 12.05911955349093 8.117018943512855
Sc 9.530644509922803 5.058516302521382 9.792194512708644
Sc 10.218360174510346 7.636986861391877 10.736675026391293
Sc 8.301493755031283 10.006147115077221 10.485713693149952
Sc 7.315068161210791 7.233821073382103 9.299480186485715
Sc 4.828204081649854 5.955318727630381 10.177168070804282
Sc 5.5630430040983025 8.771662579976 11.205154046472613
Sc 7.498155352023509 6.4261738737167375 11.882315354035102
