26
Energy = -131.42874422 eV
Sc 9.018853205538289 6.641078910639849 3.478699637557342
Sc 12.124218417264995 5.9813337229431 7.844776767440787
Sc 10.80512853404 7.839192913762311 5.642023632340303
Sc 10.688511607641082 8.962209433506862 8.637811203590655
Sc 9.309909166290996 10.378303273046887 6.394154794251911
Sc 8.692791479468614 11.301310618102354 9.17673426717763
Sc 7.787858075150853 9.638159854579776 3.6517974348515105
Sc 10.865952591131553 6.536972888714563 10.546553107276868
Sc 6.507841528221675 11.034429647454928 7.0440867422672655
Sc 8.976606767768676 8.997522320406803 11.214143611667726
Sc 7.599676531035161 7.942466883591848 5.787867176058221
Sc 9.287182179266802 6.479661903955123 7.826701864555686
Sc 5.8992613053665846 10.734775946282536 10.349779564376913
Sc 7.261175298324817 8.566847604779946 8.783125154922283
Sc 6.084098086265862 7.098954077501237 3.4204610339971073
Sc 10.3879947165673 4.729133842401355 5.739365736561645
Sc 3.49842142538761 9.03730780455463 11.130620429695233
Sc 6.209097845918208 8.264239680494052 11.992963073787939
Sc 10.012009141549294 4.0144843287769225 8.948334223807846
Sc 4.997634332319128 9.307934746274627 5.098534715678974
Sc 7.433423685287362 4.987944138829325 5.300362354222974
Sc 5.001769338060879 6.703399529452927 9.809742288007834
Sc 4.266925124245824 9.242355510669755 8.188765212672944
Sc 5.125706455962911 6.677029644162057 6.695872420998448
Sc 7.975497276735165 6.037299303645764 10.723486752806203
Sc 6.967683234715247 4.707861317662965 8.20678007417685
