23
Energy = -114.03825649 eV
Sc 7.984540576718023 3.888859545855396 5.874412045645642
Sc 4.95858558330434 3.269620979766607 6.666367524470984
Sc 6.974142282289626 3.038637018777094 8.811596918605732
Sc 5.6415052128271315 5.591541746336412 4.576577330474521
Sc 8.587472790668478 5.836581162725131 3.4548084034688946
Sc 10.5651784197861 5.645332819199277 5.474368803972883
Sc 6.373294166605022 5.772756272432955 7.836035415368002
Sc 9.414899587808035 5.086978394345964 8.350801158185607
Sc 3.328710237980539 5.661496010315308 6.529513197494367
Sc 4.356629714821156 4.748847965127607 9.495346501060782
Sc 6.94077441947937 8.180349759514119 3.2150444967472196
Sc 7.882517310966288 7.486615666356369 6.133392631291937
Sc 9.906509654415318 8.644439041558336 4.40355306043494
Sc 4.596970791441309 8.346522078752447 5.1076841222803475
Sc 7.315445972796832 5.241013110158457 10.743518599023057
Sc 10.850032326109066 7.730303033845543 7.371008257382488
Sc 4.2492727441053715 7.9756277093127075 7.996996469723521
Sc 6.844319040641049 10.395063643096238 5.327546026890027
Sc 8.421933717594953 7.917005725031992 9.386056465913306
Sc 5.628853591279674 7.586518461401357 10.508665250550614
Sc 9.246923264347224 10.10953322483522 7.204547327167291
Sc 4.0566319596243945 10.764506877766594 6.760122011200282
Sc 6.446676553525438 9.894516278585566 8.309812660298197
