20
Energy = -97.1694812 eV
Sc 6.619506306748546 7.616106647842993 10.951294090081637
Sc 6.961135078996086 11.328644381256064 7.752663844314027
Sc 8.027389817157438 6.635823441259704 6.119860719309119
Sc 5.400957444879276 10.542622590443992 10.231910030176115
Sc 7.250507522263243 8.497623279289357 8.483351263986291
Sc 5.6057678613102535 8.87183236320238 6.1807015739194515
Sc 4.245685496602608 8.262750734111062 8.864008058352415
Sc 11.562951517245954 10.695780088743176 10.833032250625905
Sc 8.30713544944841 10.396432241385916 10.770380852983587
Sc 10.22922072701391 4.798888045787969 5.055599472784209
Sc 8.666337808889525 5.781709712846751 8.991776082875116
Sc 9.919931325894257 11.5058474804059 8.629533316811514
Sc 12.224558490825117 9.835978480575411 7.902219488735491
Sc 3.9527086877188258 10.970397084001439 7.631819847660206
Sc 5.877826761665289 5.855592577418475 8.050919252027219
Sc 10.167691123862642 8.46486213657936 9.47497225894896
Sc 8.061541362262496 3.7939291145008385 6.9136861794610605
Sc 9.379547028489903 9.47591410665673 6.547187856989625
Sc 10.910961648450689 4.059474983349243 7.88150059018321
Sc 10.941036637677936 6.922188607746223 7.045981067177795
