21
Energy = -102.96724635 eV
Sc 4.783993967058458 6.37400902530751 5.4762470214098204
Sc 4.4647965967477 6.244819106902724 9.883593099648582
Sc 2.7074200222203473 5.6716283904044715 7.5068670350394155
Sc 4.031130416923319 8.495766558724965 7.55417587984191
Sc 5.469153985841641 4.208835736588223 7.535759950422755
Sc 6.832648430639601 8.78283474168677 5.729501511386593
Sc 6.006651386825804 11.035880012599273 7.612184429664224
Sc 6.989370033265072 7.112629022702228 3.1085806025879927
Sc 6.457580134019372 6.923819100264944 8.11996765029759
Sc 5.4820842783621035 9.25254067030184 10.00372183318962
Sc 8.9335989729353 9.333688425288246 3.5916601448985626
Sc 7.8739004744584635 5.680990428544821 5.721519213688062
Sc 7.469205727626025 7.24783301596615 11.02736238860367
Sc 9.88612510647415 6.5007136939213455 3.590825548582354
Sc 8.235830961738097 9.269209263766934 8.604912724443187
Sc 7.088792488772338 4.4610145376336385 9.984941119791841
Sc 8.579965222113795 3.375817616159232 7.5847723430483605
Sc 8.839805883349454 11.037699315130219 6.247896642021506
Sc 9.844127899123269 8.06575592603528 6.21511544175499
Sc 9.29278605724518 6.12140899022867 8.598371766898385
Sc 10.848072140233938 5.10231728109021 6.23179924048892
