23
Energy = -113.21087045 eV
Sc 5.886625673007835 10.766444148407468 9.22133013640592
Sc 8.574594196970821 9.150061855132648 9.476146378622365
Sc 7.397008435626625 7.410953351564104 7.291609995794536
Sc 10.940805709679331 7.064647158351147 9.72374657109656
Sc 3.1271007554032693 9.607808111060722 9.471113865782772
Sc 7.802473767023814 10.367151540203846 6.756631685698069
Sc 9.342281092831673 9.577721979218254 4.106010433444383
Sc 10.194494441996948 8.525831768466968 6.9924414162040485
Sc 4.794426297537668 9.290632771405182 7.003388344542351
Sc 8.193434414130197 6.154572216008592 10.174981684561361
Sc 5.616584558953781 7.9898821480075 9.919815501161683
Sc 10.34098844290336 4.08896205660077 10.069005341395153
Sc 6.56174615712834 8.722190204504583 4.443099367574941
Sc 9.957206290274915 5.479966196513009 7.4913596728389145
Sc 9.156562655123217 6.736383871662424 4.684046750903809
Sc 8.060658533700963 7.665704938026713 2.095569565965589
Sc 5.623147766030022 5.095264285052139 6.735328261852409
Sc 3.439171156821247 6.827579616503838 8.143443409011791
Sc 5.301336479437086 5.019212774468099 9.738163998410778
Sc 7.747987928168891 3.6967622861006184 8.50557818433668
Sc 3.989362625074978 7.070153450465336 5.153664498255242
Sc 6.418054475670349 5.784023087058127 3.8376218827740676
Sc 8.17788531566984 3.9403470633755022 5.502567772886649
