22
Energy = -108.10899767 eV
Sc 9.046205347031163 7.11609483605672 11.154868716662072
Sc 10.321548657779921 8.565457334374575 8.70030764244321
Sc 7.229369174950855 5.314348575027182 9.592240479913636
Sc 8.722552033573795 4.490737628947162 6.26257467151249
Sc 5.863161737192114 7.00024270316088 11.51388533958212
Sc 10.167270249959643 5.523081182136266 8.787797701906682
Sc 7.414566345216784 8.903604704423648 9.626411551454213
Sc 10.875125016546997 6.690237820968665 6.155333266710954
Sc 8.744971881817815 11.18825063210468 7.998022953676841
Sc 4.2055407645747716 4.9055106972036375 9.783141262761752
Sc 5.656354918841893 4.666127032844373 6.987716490607438
Sc 9.430665242703045 9.531765944191422 5.659729229165645
Sc 6.5217560778211325 4.521643176320165 4.025348523043349
Sc 5.079988295094542 7.42058581150713 8.585102914605905
Sc 8.059252932104396 7.1849934010094545 7.151315099531531
Sc 3.700995840945051 4.653252275249468 4.626148583228952
Sc 6.412960552801798 9.844153401602796 6.73091257512027
Sc 7.87262612101712 12.035100334410215 5.261440870202919
Sc 8.558704781275729 6.802191277140954 4.2292763453957045
Sc 2.9539187344701676 6.1507694679996785 7.004764649979605
Sc 7.040446312579838 9.49763101722371 3.8601183261694145
Sc 5.478598495947174 7.105368761412587 5.286625826982179
