25
Energy = -124.84303691 eV
Sc 7.293845496983719 6.195556696049854 4.911310574355651
Sc 4.483462822236342 7.167545945768479 6.130613890365784
Sc 6.301693381633692 9.41645357710629 5.171941382035174
Sc 9.355839310381992 8.75559410071627 5.860775453228854
Sc 10.890619767901763 10.667972536395421 7.649175855277601
Sc 6.053706950942535 4.823130958551589 7.792629042705951
Sc 5.235379620563309 12.270845084028487 6.429687874078239
Sc 10.482419853108446 5.932915914328215 5.413300234509839
Sc 12.02894589531602 7.712326449347867 7.27930554552625
Sc 5.333976235442247 9.860401695039306 7.996670052759042
Sc 6.902987693898549 7.463981110463462 7.379927252174459
Sc 7.932246042782037 11.355428961212914 6.778717944276569
Sc 8.685716461300258 4.017023849340262 6.616268351807623
Sc 11.212963007302378 8.86138550834542 9.958840141837108
Sc 9.437668126051978 6.607483425187995 8.171882940857019
Sc 8.392614554910384 9.431599421983469 8.996273981788027
Sc 9.717129059318792 11.65951537512303 10.315677950980572
Sc 11.378865887574806 4.607701960882454 8.188575927514037
Sc 8.548108183303214 4.1096088857731985 9.550001068753346
Sc 6.725008097525208 12.229406195182085 9.404922730306648
Sc 7.3190780303629746 6.810858675323959 10.417014958348839
Sc 10.29383537254623 6.165909415400044 10.980554161234245
Sc 8.96147888265331 9.050906239770121 11.963047773098353
Sc 6.151000414336214 9.69414222317131 10.977221343792994
Sc 7.597803709638393 11.848698653523194 12.382056426401526
