29
Energy = -146.38069382 eV
Sc 9.281439873522103 11.479166963119775 3.6842746230628745
Sc 8.404031135725862 8.668309575695607 3.8318780342802525
Sc 6.1704277493723065 10.925793575731081 4.000002589974377
Sc 7.07876848210434 5.64367989098709 3.924207146122878
Sc 10.700787290111657 9.436244404899055 5.509336681339226
Sc 8.085454515415146 10.626751986691243 6.226139076750557
Sc 9.68199764353215 6.419556833552272 5.651298701423002
Sc 5.528808456115372 8.137058833467675 3.6140771084228174
Sc 6.672226635220853 7.719074942397208 6.314197986476771
Sc 8.206960777551684 3.799056462192265 6.51779070796725
Sc 3.1557955559726945 9.34842709759512 4.427815812892792
Sc 11.98744135806435 7.426299422473832 7.58920748307711
Sc 9.156100393770085 8.081163490307071 7.9851173463497
Sc 5.400335081675948 4.902335261242986 6.227899455718419
Sc 3.6818502714069705 6.017536138901959 4.0792656952729995
Sc 5.078540003376004 10.197412354053167 6.699246608898686
Sc 7.202614291339226 5.6340787131670655 8.637746608949566
Sc 7.561776166368756 9.992234435601503 9.295478314690232
Sc 5.472166870152899 2.938487899517767 8.40726513654817
Sc 10.301935562484083 5.2511753507829155 8.586312375860674
Sc 2.699527666338265 4.244699265204082 6.550172504282819
Sc 7.502963353156566 7.501664169715483 10.933228955249342
Sc 8.290003775213338 3.012701516312902 9.570771181703027
Sc 3.53259453763656 7.392656539403943 6.697988433752499
Sc 5.230524386030837 8.214148437604015 9.105469042455818
Sc 10.464650844244996 7.861756553590029 10.454509815493854
Sc 9.17054231844582 5.213564687557418 11.407367203631859
Sc 4.075397803049883 5.469879043207805 8.971340962558626
Sc 6.13224593895258 4.5559141407263235 11.117487096274873
