20
Energy = -97.89082231 eV
Sc 10.84487217390528 6.469087318189989 8.474916027653693
Sc 8.435856488330186 8.752312212931894 8.282335017897905
Sc 7.500214109477009 8.36399158212415 5.007516311983788
Sc 8.852259004105397 10.72111000857157 6.0348984208825724
Sc 5.108280516453823 6.747445389078674 5.267349942331734
Sc 6.6173335535466276 11.284012885367021 8.054539184499841
Sc 9.489511417180085 11.54415446706933 8.934214192492352
Sc 7.571945938472901 10.350021477117702 10.848468989375606
Sc 7.883085198137829 6.032647343919038 6.710056208512268
Sc 12.990413043367385 7.707336138526874 10.08948066014371
Sc 5.688632216255945 10.49774406846637 5.219088495716637
Sc 8.12267906061298 6.038056534648039 9.815994316456747
Sc 10.78597112922937 6.112420860673854 11.478382974627502
Sc 8.150639390947564 7.627653590100347 12.260853494643776
Sc 5.439268055824849 8.59743818250733 7.453911252096812
Sc 11.505111434978101 9.452877841734097 7.910218933223459
Sc 5.873958189446205 8.004882737616642 10.31045180021717
Sc 5.390534349514694 5.780068657670008 8.200111044205745
Sc 10.278995482068298 7.815930848469746 5.784064928955116
Sc 10.326876082826072 8.957244689897212 10.719584638764156
