28
Energy = -140.60065529 eV
Sc 3.800799545972169 8.590923263100455 14.101094466492784
Sc 7.72568806171412 9.162931093732148 11.41474265816999
Sc 9.727517470075224 10.578130250142426 13.312873387300394
Sc 9.509011852217014 8.344194001361345 9.041703689781352
Sc 10.421990185851831 10.692780214521882 5.038550502620505
Sc 7.41011330616911 12.094356175481993 12.16290328274274
Sc 12.524028386637964 12.47565811541899 6.3513783982525
Sc 6.252111288051861 7.954390456598485 9.097647771355007
Sc 11.557603512841977 10.131041141150188 7.79880726154908
Sc 9.479871576047223 12.306208548174682 7.4407810092278535
Sc 10.488641913072842 7.802045962002914 11.892931798710615
Sc 12.722554503939357 8.223151703932352 9.954179748958953
Sc 10.631558596510436 13.148152914192426 12.206043048244874
Sc 8.07935749055219 9.46821872411276 6.78490217143221
Sc 8.235120946826662 6.28949153997193 7.386150791099771
Sc 10.654962840126823 7.731024928730797 6.150543208639175
Sc 9.671586284798549 11.185698512687733 10.306090436399993
Sc 13.334540090060406 9.800133014972984 5.364781620237126
Sc 5.776698339759101 7.149071593990336 12.370806786997301
Sc 13.422731575332339 7.5243132328294315 7.337390411028109
Sc 11.080888564768857 5.925731090454273 8.802836834955592
Sc 12.294333128062801 10.626370032234096 11.544445032570513
Sc 6.541508529578701 9.569328260212657 14.047199427087639
Sc 6.851364062746345 11.016533882948918 9.156273942691243
Sc 8.34209427432979 6.021630475781135 10.433306342774832
Sc 14.280507463033596 10.493933078541946 8.340925466297085
Sc 4.910537276242385 9.864381121426035 11.596927649733301
Sc 12.114912899476378 12.73033149308351 9.351931341085631
