28
Energy = -141.86570954 eV
Sc 6.352025778762444 6.441529886079589 2.2473870424497115
Sc 8.91916879935795 6.383979613065334 3.937700884386344
Sc 7.450962820179757 9.058315721241932 3.591643499463533
Sc 10.192000016512184 8.7962584669656 5.545105481495291
Sc 11.400389701125473 5.871215425876851 5.675937851817624
Sc 6.542232416363911 4.418661275738767 4.564398305323504
Sc 4.349718327891257 8.539168001537668 2.7758337515619402
Sc 9.428946162402244 3.7157896756498356 5.46894378396728
Sc 3.8033112614113707 5.649378705602635 3.5746415110149052
Sc 11.477818250368394 7.467891197228462 8.083475883556899
Sc 5.777310907406891 7.28877806837374 5.290973328486966
Sc 4.9425066176704044 10.299626162741589 5.0417978676064665
Sc 7.34200729167915 9.530341977955365 6.813248624950749
Sc 8.68800375946874 6.658843603566481 6.946595541671089
Sc 9.6358825091597 9.68518100732971 8.558051337540393
Sc 10.243837154478763 4.562645032975031 8.341911851414423
Sc 2.8899145765796184 7.868393052662389 5.507318673477633
Sc 4.395339846281567 9.144645271640515 7.872538640912142
Sc 9.099826741344001 7.092090858280164 10.033365175072856
Sc 7.147375636604663 3.916195372465327 7.458632280682473
Sc 6.015664779711831 6.663078913968971 8.593324377095705
Sc 6.799748671898723 9.230442834513987 9.965110504950774
Sc 4.234157080405931 4.968367088959596 6.6261023409088144
Sc 7.734767110370463 4.44758966424071 10.26671162242695
Sc 2.729876441361308 6.680581535644325 8.394647505217723
Sc 6.482224029368544 6.620204439168509 11.715721279090891
Sc 4.054507750175981 7.786823873026139 10.730611549367888
Sc 4.573209684901366 4.740977145730659 10.05357533339676
