24
Energy = -119.61961798 eV
Sc 12.808784489755336 9.81491067004448 6.846869587422894
Sc 13.070140855060272 8.926781659932256 9.79648238370351
Sc 9.845528228022687 9.254046831570193 5.964985646814449
Sc 8.066917055014496 7.308691087321175 7.621187961557784
Sc 8.521906593214341 6.5934932146955845 12.294464681730442
Sc 6.070157897719367 5.6745853506021655 6.6087128365046715
Sc 10.760191009986052 9.59907842600797 11.91942486399355
Sc 11.299413201231422 6.733061242615111 10.98789495539475
Sc 8.975018696331777 5.299950719016437 9.448246161331609
Sc 6.245910007839086 6.776918980864911 9.956519763992064
Sc 5.862465759250505 9.840909526838129 10.246552882335997
Sc 10.797921046467875 10.46323056142638 8.810402870853059
Sc 8.304160187351508 11.661970702379707 10.442471792660148
Sc 7.560586725949038 7.441008698995883 4.72136121342149
Sc 11.164698479145352 7.434630602113998 8.000261269120942
Sc 9.136772572141075 12.257294875258115 6.730482294852443
Sc 7.897677539412438 10.2050165284125 8.053517017686463
Sc 7.635743564904806 9.471225063080764 12.57793553207506
Sc 8.869280749661927 8.385990478666884 10.123741894757382
Sc 5.869617578901459 11.957231804048972 7.921960172271884
Sc 9.295564581607945 5.404193416498793 6.083934034633532
Sc 4.708882861867583 7.957517579321713 4.677974823451444
Sc 6.862189961461541 10.318658188094723 5.330443444959727
Sc 5.358315105665809 8.659706419489254 7.452258691629892
