22
Energy = -109.54124683 eV
Sc 11.741965878360272 8.280063022721269 8.998855217913889
Sc 9.142060704831543 7.612335401842742 8.161975547803763
Sc 11.445855360324687 5.544560425290327 7.289379865785685
Sc 8.714217910900118 4.568164778701012 8.47458866244165
Sc 4.495135575029635 10.771547706562448 8.193686717021684
Sc 8.567352490498436 4.6906537518635325 11.62118389618302
Sc 6.108945535600864 6.057849051897439 7.077120613058163
Sc 6.429564107461054 9.273227558592023 10.438031903606879
Sc 9.163244142164645 7.704190006341738 11.324877309698106
Sc 4.1748011855755385 7.757539251933779 9.105490110029136
Sc 6.288335086642379 7.747973143298163 4.52473654923726
Sc 11.36392588618124 8.01386783683426 5.757024381295893
Sc 6.520383359760446 8.933268569892434 7.468337782342002
Sc 8.850589281219873 6.2422406021097485 5.618080388612841
Sc 6.823410712251516 6.408639673212428 9.940073304448246
Sc 7.667927524353346 11.644623304898213 7.480544373207023
Sc 10.911517629195348 5.606322823141048 10.168858675154471
Sc 9.118482850077315 10.21959355078043 9.683525763891023
Sc 8.59495221459537 9.441397114745348 5.304562444797776
Sc 3.862236536809142 8.512121400623338 6.212640916799565
Sc 10.580974629637227 10.441904932230587 7.204223051650812
Sc 5.646014785101344 10.695897646616023 5.32435275764142
