25
Energy = -125.3367747 eV
Sc 9.90006666083459 3.9468978611212977 4.494296953776392
Sc 10.021354629680058 3.174403312219473 7.330230381366001
Sc 11.150639920598783 6.001113141721688 6.6846881165838665
Sc 7.491504935597048 2.6502125190370216 5.608822945604456
Sc 9.689982883885943 6.748241319435124 3.8162862744414943
Sc 6.917634596379986 5.116827577677788 3.8778221867006324
Sc 9.608111507369266 5.187245975274552 9.434610159800112
Sc 8.305846880850067 5.809236429738854 6.395008107129318
Sc 8.72826812719641 7.855671634994928 8.77491283449935
Sc 9.640940016697938 8.783653997429765 5.980663399710486
Sc 7.1444531046418875 3.859188561550593 8.40117605808442
Sc 6.673418048370008 6.197071979403234 10.348517116984409
Sc 4.967958257394991 4.404193445514414 6.169468757683791
Sc 4.256515298235295 4.537218520615044 9.145384073677402
Sc 7.073823958048006 8.170845703179305 4.56278140677306
Sc 5.660761002560639 6.965014588199319 7.617420977754508
Sc 6.994438926107962 9.622523505536563 7.153489945676498
Sc 4.267528507201926 7.140871346931002 4.885941299967186
Sc 5.960243813544384 9.35027495842587 9.849053425308737
Sc 7.592419077605183 11.304614881556825 4.930777298226241
Sc 3.7140810618129487 7.374583775265615 9.98554092895146
Sc 2.6713477440338247 6.305538262124733 7.310493180840518
Sc 4.8887112107083075 10.187508473962458 5.02496174292396
Sc 3.740382312596449 9.328832434669499 7.601115893905405
Sc 5.470697873086269 11.992022180041383 7.32009300088829
