23
Energy = -114.54829831 eV
Sc 11.162562489152643 5.017888714823697 7.660217029233031
Sc 6.277083396937406 7.423020232228851 11.358085822969072
Sc 9.0872616651848 7.823333819048578 9.678908443823829
Sc 8.261552053066989 4.610120431579253 9.214160514308347
Sc 8.794399110085592 3.887681899483603 6.223471483075766
Sc 11.54207171241894 7.978228421184653 7.355967559893179
Sc 6.446244700146979 6.754364640012294 8.644097617541084
Sc 5.791727134240528 4.341852768775082 7.158713958422536
Sc 11.184112033209065 9.635665194645528 4.866017487906073
Sc 4.985127495138423 4.839646034591182 10.146735055695691
Sc 8.88877670015432 6.69750910726819 7.056327445607537
Sc 9.129991640736309 9.773074126317255 7.247376868658812
Sc 8.405616037765348 8.822515467499446 4.329619143512352
Sc 6.498326921409964 8.519620520062027 6.353636374155969
Sc 6.424496868753718 9.70372991416827 9.105150145637367
Sc 2.7946727922036123 4.973853545839475 8.177425853461363
Sc 10.480435267300546 6.485396014085355 4.821587952672925
Sc 4.142289023636241 6.8400509972542105 6.313843285178458
Sc 3.8630448326274553 7.661348888776969 9.379827234048992
Sc 6.736531624821526 11.214253240840279 5.71390435573566
Sc 5.067079684617188 9.23446452860518 4.128528605291141
Sc 4.058331471741055 9.855126730277993 6.933687315715293
Sc 7.007560836836219 6.024247337792828 4.7484489105522005
