27
Energy = -135.85903046 eV
Sc 11.31005089890409 4.344785124409256 7.068982841117569
Sc 10.440609345813904 9.108904335769095 4.917562068622761
Sc 8.53027529937059 7.996433310270024 2.760762997562165
Sc 7.764000355986723 8.173125411049785 5.432428039176076
Sc 11.074719979449139 7.408737734563204 7.6009459447461465
Sc 7.3189536832445015 10.557573299506377 4.18619074454895
Sc 9.033971851992433 9.748963401983065 7.632857838149945
Sc 9.840869086860216 4.785869812877995 9.57405500633788
Sc 9.831546354266345 6.137128873403543 5.045644485434615
Sc 8.415758694786009 3.8472550471276237 6.7144070290578375
Sc 10.08447557536025 2.003329338764483 8.48097897551099
Sc 5.5798081552093395 8.079193710542748 3.418987263494227
Sc 9.309810206103327 7.896948272443652 10.421985349181606
Sc 7.396846933695502 3.0371750130647612 9.317976397294467
Sc 8.251894139379495 6.644414928404689 7.887800264439851
Sc 6.567118010905774 5.540753404276116 4.705322683599512
Sc 6.773331057963805 8.815978838870647 9.36528395676387
Sc 5.398610183853411 7.822129977665984 6.789803654367029
Sc 4.043548869846939 9.897094946077829 4.958793107506191
Sc 5.903233331818067 10.681623610199077 7.134443740480504
Sc 6.9268059938466005 5.899326093128299 10.430596735771164
Sc 5.559076149452981 4.994452573846749 7.657048156124677
Sc 3.4380300272315396 6.723257558148512 5.3485601407918475
Sc 4.260897449366363 7.240055578302521 9.688587110294097
Sc 3.0561539563388522 9.250449970517273 7.610653949196816
Sc 5.951498549014661 8.379662320082799 12.054145811535175
Sc 4.411067824586324 10.222773056969256 10.125266424698426
