24
Energy = -119.80324858 eV
Sc 7.1992410055914675 4.073451963831998 3.3712929830207736
Sc 5.621091958031502 4.701385299334264 6.072898281951441
Sc 4.633435299015867 7.006671974023817 4.2649283031854575
Sc 7.6348031986036755 6.640647893261644 4.420922205681573
Sc 8.617064162606068 4.143065894503127 6.0659589050422795
Sc 10.154645622390067 5.266516482396836 3.8755658130714057
Sc 2.825433950155063 6.297309910762975 6.587056697732745
Sc 5.463173124783891 7.4630586039319615 7.383823285713019
Sc 3.438539658363047 9.24870184547862 6.100313977011118
Sc 7.312036575865389 4.871237048520801 8.674504387142512
Sc 4.201598228777068 5.242471898204424 9.028996168817972
Sc 10.142023940671958 3.784991211295757 8.783584152141675
Sc 10.168860685845848 8.287964556571891 5.011884711255821
Sc 3.256932321261125 8.199982710813943 9.062232325007912
Sc 8.391006778020577 7.415116026950266 7.179180303478474
Sc 6.495662514925904 9.349638157155933 5.1052676869954805
Sc 10.980102444377085 5.943007158231985 6.8998118454861865
Sc 9.57236966989133 6.593457871188484 9.809451132561863
Sc 5.703891249120954 10.453880350984104 7.803186846634586
Sc 6.268388486235749 7.077212439837573 10.363975623207487
Sc 10.845482808876968 8.856342874509089 8.016987534126404
Sc 8.029532420205092 9.339097338927921 9.443135309117155
Sc 8.734146456433091 10.493256317991044 6.773439318572496
Sc 5.242452586256882 9.83247634055665 10.593216531892221
