21
Energy = -103.27548838 eV
Sc 10.647775201030619 5.890912246174529 9.251901687497716
Sc 10.078556457772143 7.314058922322103 6.470564588120757
Sc 9.525623061244003 8.867179641660984 3.729573380824216
Sc 7.936939286344881 9.657208368738283 6.119607167524891
Sc 8.948156732633368 4.449653368807469 6.975569244037774
Sc 8.852392920703174 5.8741035295435005 4.27723888496801
Sc 9.290177139361294 6.884884975081986 11.75574308794305
Sc 8.673813376096504 8.12726465722232 9.142384082354917
Sc 7.160062570922083 10.801322085396155 3.533406935305227
Sc 7.062895003320219 6.713708797377535 6.806295409987505
Sc 6.740420476514609 7.8990231096654675 3.8247233418345044
Sc 7.809233806853161 5.219406749412071 9.747046939240036
Sc 6.4286638573878765 7.55225082554397 11.014282317970686
Sc 6.124636287327953 3.441795491270322 7.691862242194736
Sc 4.397499390699136 7.021397575453474 5.332323175482337
Sc 6.070816366366246 4.591099082794086 4.986998755320612
Sc 5.759189300232947 8.95186274765247 8.349254676311446
Sc 4.982795199568819 9.855830351096587 5.573464474954427
Sc 4.981206358777517 5.894525734113761 8.841456800595655
Sc 3.451926650623425 4.668859926671233 6.702776984986532
Sc 3.067744429630224 7.801321271711813 7.747998786822226
