29
Energy = -147.95048095 eV
Sc 4.8021390256985885 10.118571022915527 9.89382640394806
Sc 3.0526459765051093 7.5570595633401005 9.85022905073803
Sc 2.9101069530936163 9.565419122400314 7.59594331616428
Sc 5.970680593680977 7.422770550284555 11.100406435328349
Sc 7.864411110095821 9.357814921907282 9.135246850868446
Sc 5.7500924324178655 10.45937911781567 6.7445522119334544
Sc 4.948416262482237 5.004531011395006 9.135799663559716
Sc 3.1519896006732253 6.6162502488138815 6.700290333670346
Sc 5.331386051874885 7.905519413902109 8.165877582851804
Sc 8.656478643894111 9.166544127950681 6.1206536171855905
Sc 9.139052844449647 7.214110919343609 11.209607510281417
Sc 3.7181973539846935 9.068276930103353 4.560596865040664
Sc 7.73667452461434 6.294038606265746 8.897582715966674
Sc 7.4501978545104866 4.612400066165987 11.183858846705414
Sc 10.125548594265634 4.732901008743924 9.786539735229761
Sc 3.8750816099140994 5.952853592400171 3.8123005708196547
Sc 6.026034376692582 7.5446268339291205 5.163751680997545
Sc 6.655583984536404 10.147825060561765 3.8365886577702515
Sc 8.410709557645815 5.945791589144303 5.887576349920941
Sc 7.849287487611275 3.474108864773204 8.125334521983287
Sc 5.52139638630323 4.482072230478693 6.111797885464824
Sc 5.533205994680297 7.8802539765018285 2.2198460271568394
Sc 10.395885571918022 7.345687253491871 8.155248461823556
Sc 10.660218724329436 4.419474361257384 6.666703325001036
Sc 11.007707958569563 7.231969310911242 5.157070528818
Sc 6.8185205164456875 5.107085504293983 3.223654341838498
Sc 8.588961019414814 7.755205318304865 3.2359496578823483
Sc 8.199343410426373 3.0561932874472753 5.12360920218258
Sc 10.008605920800226 4.882478285864962 3.5773136975870274
