29
Energy = -146.36256668 eV
Sc 11.401529589464454 6.557643780842909 4.593081161062109
Sc 10.52930366321507 7.4973565130253865 7.274106776087632
Sc 10.803528861761723 8.838308138898038 10.00548645710704
Sc 9.593848653363025 5.890353934921391 9.777708246578815
Sc 9.989973880414697 4.521480613008277 6.73748696938286
Sc 9.615260835312798 4.389839741074626 3.656037168718297
Sc 8.857106516387024 8.019718981624601 11.900452787279141
Sc 9.351583200364683 7.136060833627441 2.5223350498488157
Sc 9.616172750896661 9.218924921545081 4.715867271812976
Sc 9.83283933171558 10.379533406469948 7.5972363024818454
Sc 7.00268910775513 5.336888531791553 2.611916140691672
Sc 8.149165555714909 6.628712718822554 5.506538562234054
Sc 7.949419912292822 8.237981193957717 8.957099501182565
Sc 7.199885984061172 3.7041564807202794 5.362642182260834
Sc 7.307815411639884 4.784691329483901 8.157466877405092
Sc 8.455262084246693 10.80237037734867 10.336384198584476
Sc 4.544071963185489 4.136779939916665 6.928611379176725
Sc 7.110141887917401 9.701729080077302 6.2861514301636605
Sc 5.178459829404146 7.089891531049588 7.845990411111366
Sc 6.279345076286929 9.22617455496724 11.6479790735567
Sc 6.728727700856496 8.467167834455372 3.528059065549062
Sc 5.176427285440048 6.1482723521816185 4.816560154008355
Sc 6.301666780050169 6.276062344549024 10.721980530176243
Sc 3.1193509818110097 5.544011658220235 9.29290346239778
Sc 5.316382081872465 10.042461714725503 8.83412362761058
Sc 4.239487611499201 8.979141474276402 5.734196690291875
Sc 2.555041297422031 6.340403503890043 6.375680475560156
Sc 2.4525660556381834 8.498294162743814 8.217084462881795
Sc 3.8101456299790435 8.089466260996605 10.699064224428286
