24
Energy = -119.46186228 eV
Sc 9.981696815880909 7.311673135446514 5.1895820987148324
Sc 8.484780715627936 6.623151917632637 10.94762403383302
Sc 4.6932721903592425 7.044519831083018 3.9349844347670166
Sc 6.089111028313137 8.378273516499016 11.160724615618362
Sc 6.6810929173145945 7.58552823411654 6.39385364383273
Sc 7.6901496166681635 10.837453081237772 10.505232655259023
Sc 3.809744130566682 7.225541256289422 6.718295435345211
Sc 8.850146998072544 5.778464798851978 7.623795122842456
Sc 11.567184884398873 5.3929138201627405 6.622570730338331
Sc 8.134227571892882 8.731678448326381 8.651103654152983
Sc 8.601735153012402 9.872787147198968 5.739264781988843
Sc 6.1601443906529365 5.004133912833695 5.693055268663035
Sc 9.780887580712196 11.310158639390702 8.296883225577417
Sc 5.8584145375476 6.252991705275579 8.857953564383305
Sc 6.926715214739274 11.48615344400317 7.474747319129392
Sc 10.836666540208462 7.009677846974263 12.723605528641855
Sc 9.181157076995117 4.624261330237377 4.785334812242923
Sc 5.349521310365489 9.83222549321521 5.309801312370319
Sc 10.42753545247898 9.155378951143096 10.662584281364136
Sc 7.524449269044032 7.112940041372888 3.67922410168588
Sc 11.169042557791158 6.29844025113801 9.785586893582302
Sc 10.962333827537925 8.369809154895872 7.661426965165399
Sc 8.474069765968054 8.89341683444166 12.888040335419362
Sc 5.0953687774069465 9.331366162775627 8.470388254972846
