22
Energy = -109.1332494 eV
Sc 5.05051355795341 3.4648736886507896 8.746646887219537
Sc 6.963986075387092 5.399373986535158 9.973395503076462
Sc 4.055501940585438 6.202373078314512 8.655205122437495
Sc 8.441593578086279 7.832014101061817 10.955372736513276
Sc 7.691899023791799 3.921988955859739 7.2642626216898565
Sc 5.2564502895889715 7.693291048183163 10.891799532064525
Sc 4.870022431621998 4.602258935596837 5.966512745872577
Sc 9.515436736217724 6.434443318292044 8.45192509295421
Sc 10.064868535652586 5.330765004794252 5.765814325663155
Sc 6.672841703149968 6.666883230845538 7.246758224060347
Sc 9.612537985446073 9.456505911690478 8.335594115518768
Sc 2.770380947895015 6.7633190449273055 6.056112253431121
Sc 11.617030207915127 7.771163746860466 6.338123755142757
Sc 6.822977972977473 9.035038485695592 8.992270094864796
Sc 4.079439226579115 9.110136426698872 8.073724294932903
Sc 5.015366481296873 8.32156512439275 5.449456891242418
Sc 10.147147885655848 7.176887290381925 3.4793125837269496
Sc 7.437160739694308 5.616698233100938 4.432582313613862
Sc 4.613208296032077 6.333699524976111 3.4941830826794917
Sc 8.830648939497959 8.16768733684467 5.82299346281585
Sc 6.881005901079934 10.296450026867086 6.402805139202399
Sc 7.12063948232243 8.466346983577017 3.4661355817357427
