20
Energy = -98.08928991 eV
Sc 8.467922198486914 6.731185913740222 11.14530764596259
Sc 8.242361828057 10.494884240882522 6.335122299481216
Sc 10.455364570628412 6.062514091202522 8.9216474667914
Sc 6.929121688007766 10.921696356894545 9.46159476155439
Sc 9.875952788957717 11.480145426536886 8.677648448605305
Sc 6.467146213799866 8.935047382384681 11.546986579648408
Sc 11.397486861434144 7.36140631710191 11.58072989303341
Sc 8.399939715009685 8.4649127690021 8.670608129485325
Sc 9.525944902598726 8.804220826170216 4.022524947540312
Sc 11.462013076666851 9.01060727756901 9.00143151933282
Sc 5.437839053405145 9.165439335786989 7.357550444681228
Sc 5.408477448423766 7.084673624154932 9.488085445930595
Sc 8.873018603210646 5.304565224421385 5.753771220792578
Sc 10.522552521981119 7.688799368955283 6.463664678355462
Sc 4.117291506030747 9.805651825853237 9.973496853975446
Sc 11.162260901263377 10.49161744632182 6.050500625808968
Sc 9.44977832801285 9.707443474269173 11.228633785240724
Sc 7.414735980581859 7.711183678442275 5.890438682325002
Sc 7.619601170438131 5.476178753605231 8.40512867699984
Sc 5.387413551876362 5.914049575575889 6.64135080332526
