28
Energy = -141.39239412 eV
Sc 3.3796131061530836 8.143317029128736 8.412812732150188
Sc 5.693419324894663 5.831175785259415 7.779512888498703
Sc 6.603496093683045 5.503160732953291 10.862786381620662
Sc 3.246440927797043 11.113154351430627 7.423466585506992
Sc 7.330523847578477 3.122685957640733 8.85521058335622
Sc 3.7266088445432852 6.3443754297857335 5.718152833450425
Sc 9.151517085844738 7.36287452699856 11.15492315358665
Sc 8.585794732493452 10.549879714598335 9.97796950283473
Sc 5.31551156904676 3.300272873140992 6.382016819334001
Sc 6.7039075309404526 8.321295346677879 9.439232267004108
Sc 5.884259040778986 11.250644156396913 8.683039141094724
Sc 2.8772592252695883 9.254424436253625 5.379804180590617
Sc 9.3970825825895 4.21287833587889 11.030133544851152
Sc 8.608582250859376 5.803586234954394 8.595566473557776
Sc 5.402137167448879 8.844824457839549 6.783456560704314
Sc 10.37689620508516 3.406791309235839 8.223658666017135
Sc 5.487830825070701 8.152339287188267 3.9151048501303585
Sc 7.969873218711623 7.415254845933557 6.012839180638565
Sc 11.453916233749387 5.948564430803622 9.510503599115257
Sc 8.33805864786967 3.965893540333482 5.947611507117687
Sc 6.239241623695172 5.37759716587439 4.519539376591966
Sc 10.112795656354056 8.505256875745898 8.347587549784931
Sc 8.205226196374143 10.488406064714594 6.863274528456977
Sc 5.4944692382119324 11.18421946980979 5.2649237071486805
Sc 10.785661999823134 5.911805181061018 6.321664583010741
Sc 8.053128907631582 9.629624953104171 3.8990090622134175
Sc 9.052442222657822 6.623359499473143 3.603117146786099
Sc 10.479506272005404 8.803516660625679 5.2575118258647295
