29
Energy = -145.21352855 eV
Sc 7.881673510149213 3.3975529603540373 5.048346726499591
Sc 10.703398658348007 4.174961601102092 5.128558061595486
Sc 11.588206457444072 5.396480782254517 7.676280066663865
Sc 8.440325316386456 5.502546239531475 3.054793031918986
Sc 8.945702318539459 4.0610796435625085 7.868737495049693
Sc 5.513168361409804 4.46069127673858 3.690706629046271
Sc 11.290021161851449 6.563024509817827 3.667482961328047
Sc 5.968445071390293 4.890774827579229 6.759692413015966
Sc 8.814896635893378 6.378180270557407 5.927519809298963
Sc 6.116636778261764 7.19172245737914 4.485198901586417
Sc 11.304029539621824 8.017606402643066 6.184049509824762
Sc 9.101550016881438 8.588803173387653 3.869543526098368
Sc 10.028947631418069 5.006857560124488 10.499504214284697
Sc 7.086727836253466 5.660363366940952 9.705633746752067
Sc 9.500099704237781 7.358434896827831 8.793793467553291
Sc 4.019517961665558 6.560963952872762 8.431788883016733
Sc 8.43443109151802 7.468993833382357 11.729268072959512
Sc 3.416876889583631 6.094490875062178 5.5166437284659935
Sc 8.824956197070271 9.759761116423862 6.705167898830649
Sc 6.635885465848631 10.072965322889234 4.844831011934241
Sc 6.4753439387466045 8.132930235779497 7.757720899068748
Sc 4.00290066404966 8.989179569500347 6.087049707274869
Sc 5.623657276371208 8.253286285361225 10.90115153632048
Sc 7.979584839979418 9.957484238852006 9.92457397656535
Sc 1.5766008018611268 7.800890197185186 7.334286877679608
Sc 5.979346035813205 11.089771323562733 7.713251163281777
Sc 7.1744150002220675 10.013133568880825 12.812331689618047
Sc 3.686135488099085 9.544157034758651 8.928766811898782
Sc 5.471757497203566 11.250592291329204 10.78014648219429
