28
Energy = -141.87934719 eV
Sc 9.50374945719105 10.946229887684476 4.383196184345076
Sc 8.278247558026266 11.846010263754279 7.380505075622733
Sc 6.535859199598104 11.055610075333917 4.833121854447965
Sc 7.931346103572494 8.12095434922144 3.621016557994957
Sc 9.741908175309662 10.445504946275946 9.701719289609725
Sc 10.88288234210907 8.212959309331579 4.621081046649728
Sc 10.932350003087118 10.258997027987615 6.940329006982431
Sc 5.598853611957557 10.484263542771982 7.661799946767888
Sc 7.520262012494233 8.69682734295886 9.167719980293082
Sc 6.898429092408044 11.24690987778994 10.424588701725234
Sc 5.276283463751951 8.16811382861919 5.475219447978971
Sc 9.411496846063455 5.446312276528804 3.198373874422008
Sc 6.6083320612305565 5.381714984664251 4.654523235482986
Sc 8.216673528033715 9.069954158508217 6.315545446038919
Sc 4.230437624789554 7.953739549833359 8.322779339470769
Sc 4.103522593714119 5.431821893274592 6.683265057755472
Sc 9.286294377334187 6.235003300696595 5.901229788719198
Sc 6.727317584344773 6.427283439767883 7.4916719121233655
Sc 10.401457859252847 7.629396471044733 8.365744149840783
Sc 8.095695149131382 8.905609190449136 12.070292996118438
Sc 8.708627083391372 3.3987916868938646 5.484004763295131
Sc 5.359067376156522 8.478836632441983 11.048221385288874
Sc 6.405660135288882 3.5199786615409505 7.550471952755094
Sc 5.245811027445461 5.565862744343785 9.889781595346681
Sc 9.215334362250239 4.46814590062371 8.298105102703566
Sc 8.429832814813688 6.244418690640068 10.514751202442339
Sc 7.302471164569646 3.593841031832634 10.57996803932056
Sc 6.51948658034131 6.082615078468892 12.601482360710879
