28
Energy = -142.99471229 eV
Sc 4.77398633821993 9.662439239772857 3.84281041612431
Sc 7.063080215251083 7.490853587055804 3.1977994903654583
Sc 4.12667145199248 6.617922476746449 4.430791415084715
Sc 7.677126474986106 10.486813586072188 4.171275660801703
Sc 4.253491224284129 3.4761793136496904 5.384526856480102
Sc 3.6428232602017667 8.871969379773063 6.759812890790825
Sc 5.638167647323923 11.297089476132108 6.266619189480454
Sc 6.062454464054742 4.457231252505583 3.104711429213979
Sc 6.443231560105022 8.477086016624868 5.92124886035969
Sc 9.725667224486655 8.250656354486358 4.860798446165906
Sc 8.992161823272156 5.135178473448025 4.32422519327122
Sc 3.417228210294778 5.703453949954626 7.3750927016983105
Sc 7.166866748554958 2.614550275574928 5.178812794418355
Sc 6.440999852680516 5.362589929485628 5.827777593103932
Sc 3.409431288539129 7.780935933897253 9.745299924311375
Sc 5.89765564983826 6.844345374450296 8.492172391743358
Sc 8.525078070541985 10.168614698977823 7.2149816170093155
Sc 8.749066528762254 6.845960554254185 7.276799143410009
Sc 11.318672754907688 5.844605709578209 6.296237741427324
Sc 5.8668108555385095 9.746222930185109 9.024067192579533
Sc 4.443992412967343 4.997695566099925 10.260766393922633
Sc 5.963617749778362 3.43447172497795 8.014236960492047
Sc 11.136452363804288 8.489733917800313 7.763578915704636
Sc 9.081313512247302 3.902067318868403 7.404314710936275
Sc 5.967886158912414 7.447766126717504 11.32335418290887
Sc 8.636784686335165 8.333638352930084 9.816284748925975
Sc 7.708474115706028 5.138563150931188 10.046565921317724
Sc 10.697384743479864 5.941303286930835 9.2835571240937
