27
Energy = -135.6109122 eV
Sc 1.9771160044507892 6.318928449682717 4.11979885137238
Sc 4.2584605154048605 5.34306641420068 2.5773040552236424
Sc 3.7774221008204014 3.883876075165058 5.509024286475172
Sc 1.9892827649610358 5.914117513488423 7.066425034488488
Sc 2.4642277183761787 8.704807819005577 5.858292353665836
Sc 4.359979683054804 8.320262397679178 3.1941591048292537
Sc 6.546613234738406 4.717880660477569 4.189438234998116
Sc 4.565834916569392 6.6336068900422305 5.607192894172141
Sc 4.159580245859557 4.604490703997066 8.765914137453093
Sc 6.898781508169825 6.739531233528131 2.0275086229509616
Sc 3.9616753441906774 7.746868086905613 8.480979104060088
Sc 6.515769408041322 4.9299104189851395 7.083421003473477
Sc 5.393257575818511 9.587449168819667 6.583096389692778
Sc 7.083346163626961 8.137458770992398 4.5849556514669105
Sc 9.039860277092528 5.94733148453277 4.988641273578092
Sc 8.844814587874339 3.288908394308173 6.375581866035746
Sc 6.11848882712111 6.518861393059238 9.960278735594601
Sc 7.382493796351324 3.8933915767792118 9.628326224049548
Sc 8.332747853845818 10.30536990417973 6.737198924482339
Sc 7.753052826197323 7.577475469102852 7.525880689236582
Sc 6.724871866353348 9.52455868722307 9.450790193362446
Sc 11.63910930175519 5.222584984221443 6.353977374655941
Sc 10.62417615020486 8.13300047236956 6.509470613308271
Sc 9.635115492963257 5.264767565664469 8.34203134706549
Sc 8.922671229680482 6.75292295563649 10.647345169559925
Sc 9.726505422278896 9.21032622369989 9.138303081033548
Sc 11.790343684985112 6.99213012904747 9.01139267297505
