24
Energy = -119.43265845 eV
Sc 10.730154616816247 5.916915775458042 10.981690689247332
Sc 9.853959624655916 7.391859991282268 8.587219958124567
Sc 9.23342768225771 8.431875908987013 5.615359367238004
Sc 8.101234409793506 7.206183360362553 11.2998834863165
Sc 10.438376547462957 4.411387660736741 8.315705926792132
Sc 9.15202616233687 5.4558394954377185 5.760410846775305
Sc 10.17489964917836 9.227124934867284 10.877016303399975
Sc 7.9486337796036475 4.769875428237075 9.82885258921316
Sc 7.131274275180569 6.75858837079973 7.637484752208677
Sc 8.157327155654073 6.820021871622215 3.04815616884978
Sc 9.703786194874914 10.399906859542543 8.027465852487493
Sc 7.718996643639196 3.42602096042428 7.221050740326063
Sc 7.161107608006628 9.694768115179693 3.404107576457586
Sc 5.325010476755001 6.614718493225872 10.095274244143104
Sc 7.299217818079095 9.272643221791588 9.442005286637606
Sc 6.301990520310573 4.8455121064150095 4.821147579592803
Sc 4.972504068367331 4.764103085527846 7.592419387168555
Sc 5.1434245358128265 7.498832123021029 2.568296084308606
Sc 6.903295871955226 10.210433997024845 6.568178963941059
Sc 4.531514418286314 8.578264862283273 7.76668820580948
Sc 6.294669214034166 7.703776032305062 5.107971570896693
Sc 2.655650102370112 6.400825297375713 8.539771707352628
Sc 4.307897753729134 9.62462753115744 4.627134940537653
Sc 3.6419082650237735 6.592331621276543 5.59774348864117
