29
Energy = -145.95586495 eV
Sc 7.650095173488893 3.6857626956018112 9.017890744299937
Sc 10.085145481892047 3.5016372271357663 10.795034446958338
Sc 5.004192836130758 4.038215178457555 6.858003649890162
Sc 8.591340472722884 6.10344962628774 10.481614071051904
Sc 5.973226929151487 6.446896248523821 8.770913362742634
Sc 2.609494314926287 4.365570556614868 5.013751418750686
Sc 3.490961835408436 6.739608404693431 6.755456980568127
Sc 7.621702824374601 2.452493306609938 6.117049310723695
Sc 7.010927719787444 8.966624481738373 10.353811701842936
Sc 4.564554376246369 9.359369776067773 8.708528342956
Sc 10.028787301770912 2.1472339555707767 8.141205770955825
Sc 5.128319205469074 2.7380896790677753 4.168008252037329
Sc 5.642687689308803 11.65137581889601 10.359931377205783
Sc 7.7527835894108605 5.467047740641827 6.355593056605162
Sc 5.163117197572592 5.783951868612341 4.285480652533888
Sc 2.5244329915940082 7.299564479373097 3.9886365291130783
Sc 10.334899965725663 5.120295212989242 8.248973979446156
Sc 10.145664171579943 3.797837633147284 5.496765063771615
Sc 8.804165296208033 7.961200914699574 7.981148048879675
Sc 3.586503114037633 9.74365111663204 5.7448909117622575
Sc 6.182722721176091 8.246572981064324 6.197451781826132
Sc 7.831817035094064 4.193740966725882 3.679482348159257
Sc 7.272637332945936 10.761512661922017 7.962733146619036
Sc 5.126265141170752 8.788629598263071 3.401791082295105
Sc 10.316954809949651 6.896228995601651 5.422248892500255
Sc 7.915249953402873 7.337903294139026 3.7025246912844785
Sc 8.93360901430162 9.574987961381073 5.396029726321406
Sc 4.631088525520859 12.108093314437724 7.5831646249115225
Sc 6.191103995824065 11.000975088217517 5.107211247651824
