22
Energy = -109.0385082 eV
Sc 7.291609241045316 7.799910158389875 3.310529524046474
Sc 4.49733048570492 7.7656489328664815 3.99958473400022
Sc 6.353102074265445 5.21531462161326 4.689217808610491
Sc 9.263684309987054 6.233119059836826 5.1365080320857235
Sc 6.199862078122566 10.512327108098377 4.713959261467794
Sc 9.248470910984919 9.43590139206112 4.76272000731248
Sc 4.13207458297386 6.050179920407163 6.712340467648326
Sc 6.769975246910034 8.264141955025424 6.35115236705835
Sc 3.8087034192146887 9.11673433740043 6.455917572917818
Sc 8.47133039742586 3.375264013212687 6.294442212048646
Sc 5.656654003892155 3.3634885690607104 7.0970392751027305
Sc 7.989390516154643 3.661392775195671 9.46036383081884
Sc 4.920041939181229 4.723283370971965 9.521913798630507
Sc 10.43221081533907 5.02176183701799 7.7648312056352
Sc 8.508973670977758 10.921311097260322 7.08342370162546
Sc 9.96525175385587 8.112166836443974 7.517662754456566
Sc 5.758283170481217 10.803653891230296 7.898244181993063
Sc 4.9197833818069565 7.918005344620506 9.078434576206089
Sc 7.399815155165635 5.885554482803787 7.79481073904948
Sc 7.810524592544826 9.029049082596295 9.496598887281765
Sc 6.934657422621286 6.411078505765524 10.795235820819013
Sc 9.728241354491667 6.416088621649007 10.15704588397949
