26
Energy = -130.91683688 eV
Sc 10.193549275650593 6.978340369951869 6.168241732447878
Sc 10.27025231001132 3.991019977038986 7.35311950456163
Sc 10.320682672444493 6.243863699919455 9.292291583431714
Sc 9.389332717707482 3.7797948102273637 4.483092306925149
Sc 10.37490852059826 9.02372041813691 10.009535528168414
Sc 9.728463962094725 10.081068326346497 7.353744704243387
Sc 8.102321269347357 9.026521637257018 5.041049652730256
Sc 7.704170952445317 5.262680792524214 6.378127526486863
Sc 8.08466968210369 6.462023526021217 3.705092375021174
Sc 7.748241131677943 2.404529989540586 6.678282967008135
Sc 7.907235320640345 4.490418399216765 9.246417869440078
Sc 7.958594208427436 7.8452703005832936 8.217024605926557
Sc 7.949453959453262 7.473572433156453 11.06118027569863
Sc 6.286653641692659 3.921108350383344 4.251196589230599
Sc 7.84586522274007 10.43074031546231 9.859403399493388
Sc 6.560442783306301 10.66057386391083 7.0568162194865085
Sc 5.159551847670608 6.783056788012273 3.278221049148969
Sc 5.216161880629829 9.732488778735812 4.271441756689984
Sc 5.2249180316493495 4.082483418022434 7.545647377112177
Sc 5.52010061281601 7.461106369852076 6.274396731373187
Sc 5.534338959476863 6.2458539867081955 9.536818519163537
Sc 3.692111115197888 5.1299674666549295 5.291194673505347
Sc 5.177003225558932 9.103964462080349 9.359512678945375
Sc 3.6028285773110396 9.89827115717742 6.9289599706197285
Sc 2.8350618212679555 7.934297195576667 4.875662301037598
Sc 3.0592624626448264 6.880124989969061 7.81743604903341
