25
Energy = -125.95579562 eV
Sc 10.412687219611213 7.132737562429762 10.326265097717002
Sc 7.4876443347772295 7.662984390336195 11.30402315298737
Sc 11.133614365065192 8.932624857557705 8.002223166461272
Sc 9.390906239481648 9.973173853563724 10.515414188899225
Sc 6.001264143902211 9.74729001783009 9.596901340205347
Sc 4.935105454814059 6.661192288489243 9.63391183917548
Sc 7.7051300122195325 5.53011015636736 9.074234352987949
Sc 8.528859793691879 8.250177698399025 8.58165853031986
Sc 5.527398165538951 3.7633868509789945 8.356453910969762
Sc 6.0985999643576765 8.012711452284904 7.115661143729747
Sc 8.202392563623222 10.780363476685368 7.302795649964868
Sc 3.377434210090636 8.708230713516063 7.9776323822938595
Sc 10.03843794871967 5.935802491814607 7.290416750344252
Sc 5.1908222158828785 10.80853716341399 6.757578344641801
Sc 9.031062002092295 8.094616645598405 5.526769283637534
Sc 8.193374305919564 2.9809640480630972 6.556220269310261
Sc 7.011085640915595 10.007876157160695 4.533447751111061
Sc 6.941730668225021 5.413334313862299 6.020625860203993
Sc 3.88828125127931 5.81668110120503 6.830657132936179
Sc 9.431454762185579 5.113288168182765 4.390852484495781
Sc 5.146936999805728 2.8911834059352444 5.619834023975203
Sc 4.385694194283839 8.298989986564479 4.82103882588704
Sc 6.966133840560104 7.009006659222416 3.475498929898807
Sc 7.055251404433843 3.642811801443367 3.603710639159334
Sc 4.5274714277005215 5.361343943870809 3.8944596069313597
