29
Energy = -146.86048877 eV
Sc 10.803214440658362 9.764738588839235 10.274325996037085
Sc 10.187609665848957 12.001965529851773 8.258686456789992
Sc 8.602131204876194 8.964908713259534 12.292360600851783
Sc 11.670022942858731 9.52324025562107 7.179444603465028
Sc 7.9059695778289285 11.170166752028685 10.228899420318115
Sc 9.571583683633785 11.032919167187014 5.520752377525542
Sc 8.980702509523914 7.110868965361284 10.023147716950668
Sc 7.078478489379748 11.581254600963478 7.094699208108969
Sc 7.251624263980869 6.129529601763132 12.128081575747265
Sc 8.953785953367031 9.371373363640334 8.1158264619463
Sc 10.806763404542519 6.33844728034416 7.7082584897992605
Sc 6.356552310598617 8.528583136891164 10.416075928902993
Sc 9.39291795448516 8.068086743439466 5.442381048075066
Sc 8.747589025659535 4.2464616279583405 9.99492199976689
Sc 9.980580851102161 5.132287546484388 4.95787141810374
Sc 3.7509907049934994 7.827029387078898 8.135078345000684
Sc 7.843954795675232 5.794900202763904 7.044957802860445
Sc 6.869843572026193 9.610338428799727 4.507125750437227
Sc 9.617495975963973 3.3414845845020333 7.277943642346739
Sc 4.923204651438922 10.672166651200312 8.966864531398123
Sc 6.3225234311415806 8.473149215230197 7.2229694097273764
Sc 6.706807743600166 3.09684237883516 8.184429090346693
Sc 4.246855719139898 10.252527636057364 6.1459152439668205
Sc 7.248438639677913 6.399180462251267 3.9881800821423483
Sc 5.949642098690155 5.783441504884247 9.40953400687852
Sc 7.299474822225364 3.4721797144274613 5.135936711845468
Sc 4.825923276897878 5.000093612573447 6.616943403469967
Sc 4.574951038887633 7.464562285868016 4.9981432347852275
Sc 4.839184281620939 4.71424155988724 3.652584677828062
