22
Energy = -109.07865288 eV
Sc 10.26502364325809 8.850785616570308 7.033611618596534
Sc 9.060331970762276 9.781266889357838 4.267004327174811
Sc 8.926243591918837 11.56883327096671 6.774288731326546
Sc 8.365326591517489 9.794043481666634 9.385418082092931
Sc 10.53050958717718 5.881972835964003 6.841233572952433
Sc 6.4996971623081965 11.460745407172071 4.849425359873953
Sc 10.026712647988301 7.055396621447185 9.645292357837846
Sc 6.116171869456326 11.597685554132351 7.858200564605685
Sc 6.190657761860721 8.665166781132466 3.776835123376186
Sc 7.2373795916641495 9.054381214491091 6.60549133144067
Sc 4.322706842407149 9.449710642377307 6.24015271174715
Sc 8.382475717980485 6.729736326433423 4.80535471713846
Sc 7.648367193312406 6.3306007468574315 7.92728495870557
Sc 9.516101435663703 4.112219678282947 9.032116209119069
Sc 5.377846948785851 9.085292342784516 9.124613934584309
Sc 6.707961960928396 4.259793393799508 10.127742203834199
Sc 5.4257355272356556 6.44784986733361 5.792353487689971
Sc 7.14736998865985 7.176527925534406 10.735139930146847
Sc 5.573619089837634 3.8197417162541516 7.447390020128646
Sc 8.32257725368511 3.8749668741555077 6.242954345566342
Sc 4.691918308689352 6.323046149148717 8.799357807857247
Sc 7.5678846861681786 1.9035568996911056 8.459550884235755
