22
Energy = -109.26988834 eV
Sc 11.879532582505082 9.057634103001563 11.365485924114903
Sc 5.087613791058623 7.070478700852133 10.02453566664076
Sc 4.19792994822337 9.845665788434387 9.015511431070516
Sc 7.223425034659101 6.340972986385271 11.816836309534848
Sc 9.26282908892418 11.027489802644658 7.221548466849291
Sc 6.175691616650223 9.461505266131075 11.562245621910314
Sc 11.613170227768173 8.482731614430172 5.989593369533565
Sc 6.840561892015286 7.850293925322612 4.30632203885408
Sc 7.6036312914656285 5.655769898409971 8.53787550894109
Sc 9.389025022513465 10.880031637573452 10.608189045237204
Sc 10.825655942869929 9.068103111555041 8.758523423686185
Sc 7.960446199414656 8.237448732288062 9.681649459020916
Sc 5.755137869058395 8.020054101385178 7.387993864714201
Sc 10.595053549101014 6.161287812721567 7.577669947406337
Sc 9.108157425603352 8.5211618618072 12.502001281964427
Sc 9.203734488901711 9.540446078488433 4.249146399995475
Sc 6.8556622917062 10.875951446750555 8.88901817186412
Sc 10.297028976590616 6.524210142425803 10.527702412099952
Sc 6.496932320056615 10.477321412986923 5.952693241627471
Sc 8.549356654424694 8.178397608344207 6.697759080230279
Sc 9.658283489743287 6.631537768831721 4.492142436340465
Sc 13.00245399844681 7.322759651733842 8.937308878579486
