29
Energy = -147.04042572 eV
Sc 7.021342684457696 2.3637572490539123 6.971633331868009
Sc 9.08914163635259 3.8611586040959316 5.201787847562428
Sc 7.500343873736277 3.84023105844933 9.64568008716118
Sc 9.27302258599704 5.4031796011905495 7.655750232306965
Sc 10.366272032843407 6.72979213000118 5.059003483460381
Sc 8.823509942127922 5.1802660515242716 2.5085690990001694
Sc 8.623744843687557 6.698694662461038 10.259078678041906
Sc 10.18767595302878 8.270949950491792 8.07704722173598
Sc 4.088559823671547 3.0256915521033103 6.127881210575214
Sc 6.360620164133922 3.8051461132996613 4.076521790125069
Sc 6.063142652339906 6.577130298403584 2.4963352807425574
Sc 6.117379126392958 5.030770736006445 7.056688783663754
Sc 7.546795374789572 6.670193404435508 4.893553024460042
Sc 4.6842925038096235 3.215526764037457 9.021303610064294
Sc 8.884755121298667 8.112449946450214 2.607235896108122
Sc 7.233995437456425 7.922961614671555 7.845768471851401
Sc 3.3026523975496818 5.735940368234976 7.56495894137839
Sc 9.718585660232206 9.525775633696439 10.970623221815405
Sc 6.394040466981641 9.381954485366203 3.7302856044363466
Sc 4.708780564165885 7.8678347471734735 5.777342163764553
Sc 3.892414841945948 5.443325034127539 4.4124154085387275
Sc 8.809866499586244 9.461387656139438 5.515812348399242
Sc 5.521463692047252 6.11417687807209 9.900395939848954
Sc 6.036234928702531 10.423784565453877 6.638869793438569
Sc 6.764295901419371 9.133678135892191 10.750350087413894
Sc 4.427197673177876 8.729452266975677 8.669034434473227
Sc 8.382740625165862 10.779308185974715 8.658063031661891
Sc 5.62554083084277 11.562016911316393 9.510590298018645
Sc 7.875590902298774 11.828304591827568 11.448099535265243
