22
Energy = -107.59144639 eV
Sc 11.82702294640493 10.42924719023356 6.443397349296546
Sc 8.879630169020714 10.53918198766101 7.345654606027458
Sc 4.302799015366804 6.999350635894725 9.79759936137584
Sc 11.731852859602498 7.3624283302017455 6.559170125466255
Sc 8.16914491325545 8.434880491217738 9.63008713357433
Sc 9.318175086306397 7.279308615044185 11.931724875540022
Sc 11.306031543551072 4.283450924016058 6.86092271015603
Sc 6.529105117453568 9.42323396029465 5.717637878796963
Sc 6.254301434262303 6.509811163651112 7.827116720798158
Sc 4.048398667962028 7.7653245408555245 6.544703709956158
Sc 5.58434747155406 9.482331362201027 8.530252017638412
Sc 3.837604784634072 10.795304211567576 6.445242131477039
Sc 6.724071640310205 6.441248837710569 4.928773981778892
Sc 7.332887717205552 5.637258151940887 10.408976163487463
Sc 6.27454239141372 8.174150267758545 11.710796201291458
Sc 9.729203364177039 9.06271947643237 4.696804038432259
Sc 11.0522478235508 8.956618491379146 9.045418144108805
Sc 8.343190734068536 4.534214560377713 7.125569122803505
Sc 10.153446501027506 6.023388464871082 9.140453408298876
Sc 8.82365174668071 7.613409518837791 6.907963400600792
Sc 9.810706698657977 5.874194617146878 4.793219124415211
Sc 6.2347303949690716 12.182078883021806 7.013916962908453
