28
Energy = -140.67959384 eV
Sc 3.205450102401484 5.607709149143506 11.236891645465501
Sc 2.2293913521560116 7.668480776755412 9.269378703908108
Sc 6.213387567052525 5.396003542812426 10.983778436109176
Sc 4.824318614228496 7.949452717362577 10.571645750598861
Sc 4.292408190918441 5.724741477065661 8.456203117256408
Sc 4.110673349789479 9.8485570835433 8.314156023987437
Sc 9.147102511860487 6.21532972736241 10.363700457043619
Sc 7.358405432401356 7.766783828925249 8.769045266701172
Sc 6.629578902465639 10.441693227167773 10.057145985888535
Sc 2.692338743986816 7.556004857614727 6.219326457609746
Sc 7.15228896989267 4.674145046960274 8.242511549249489
Sc 5.501456430791431 5.114642349217113 5.561591453073734
Sc 5.467434346241634 7.937102580466382 6.553980148097168
Sc 9.415597403450306 9.747809414294965 9.225922404924178
Sc 11.434338705823977 3.1607623741431263 5.232232789662922
Sc 4.518140792182346 7.409965335574697 3.7477501686995245
Sc 8.48431457274737 3.756880410449509 5.246823521438107
Sc 10.114924659304808 4.4845708540586475 7.762148143280399
Sc 8.28536932990595 6.574937499390388 6.071075897164366
Sc 6.955125480079588 10.51009954246095 7.08402356394288
Sc 10.628896229839992 7.336109417305886 8.094548085042417
Sc 4.161891593394313 10.074206167043497 5.226255615742158
Sc 11.132489429166501 6.121360461812142 5.316842804596703
Sc 7.327735738817907 6.003550039320862 3.297014378196039
Sc 7.0594964609627855 9.002752751739095 4.235633397706704
Sc 10.174429409025846 4.703319561262744 2.937865745448662
Sc 9.563967858147972 9.2389604654121 6.046664013411212
Sc 9.728549278342271 7.737282303391479 3.269289945673778
