20
Energy = -97.43150625 eV
Sc 8.531899299305453 8.174349662716699 4.408308150602987
Sc 5.566324262149525 8.11079013540912 3.672145437832069
Sc 6.822546665004278 10.609425695505973 4.861945944584089
Sc 11.411496600155512 8.018672903422122 5.4199618551904365
Sc 6.292522199497566 6.322982589219372 6.061505360993327
Sc 9.644441957916616 10.46613831951352 6.3205809670417885
Sc 4.6974440461238665 9.082925758702327 6.351461567852916
Sc 9.343498074327632 5.924557304202144 6.292257154693158
Sc 7.5683681880013856 8.808052702248778 7.063298586266688
Sc 8.059361384501447 3.659728684164338 8.00713637478196
Sc 7.698627354450121 6.3831924917086225 8.87600582805462
Sc 5.740898405821934 8.626010549226802 9.371594228421214
Sc 10.412464368016806 8.13558757052665 8.236873164339526
Sc 8.581671966483896 10.115899286092358 9.54614907111263
Sc 6.247637344390477 11.269831044517318 7.999508727797978
Sc 10.413713511387169 5.198933452809275 9.077314272730487
Sc 8.332523195715444 4.509515230715542 11.087694541674553
Sc 6.206578190789232 6.694355849643876 11.630259429421143
Sc 9.031945211289962 7.562946749739933 11.175111788774474
Sc 6.7702147579605585 9.700281003203822 11.915064531122276
