25
Energy = -124.7294091 eV
Sc 5.328836306761497 6.292715884050007 5.7661060693941035
Sc 10.180079860601838 8.30678780405621 4.303030134393084
Sc 8.54737188813078 10.393479730560795 6.644838241966006
Sc 8.288484693488188 5.712776703847386 4.12539313043253
Sc 7.6209116467551565 4.762961327875119 7.196125386326335
Sc 13.0213393575615 7.449696915837873 5.185263153428195
Sc 5.638979506821359 9.518253411744851 6.19233686956686
Sc 10.692150871257917 5.905443987899593 6.021610585697975
Sc 6.303940438943438 7.498259220144815 8.36495264810317
Sc 8.14271064857514 7.4984083364114715 6.221179182891913
Sc 12.729873380781513 6.794087646343045 8.210701988879222
Sc 11.17582247162062 8.91846986825605 7.10220762353322
Sc 10.306196746889295 11.548124081938186 8.835775902419892
Sc 7.292153319631962 12.147574866420854 9.013037023905916
Sc 9.687099209429059 6.789273560669295 8.878127690977779
Sc 8.215205851246228 9.490641637604943 9.446679372390207
Sc 3.5189059605049975 7.823981366375266 7.807015457470617
Sc 4.971309856050647 10.134416006674895 9.096315825169281
Sc 4.781936378045995 5.073635877591016 8.61554987182199
Sc 7.298228928529683 5.418858252786758 10.251193569053921
Sc 11.10314784654007 8.979600975247541 10.324454279798715
Sc 9.133692110354138 11.147008477077328 11.576600276298747
Sc 5.055372298147872 7.548752657926179 10.922461324314657
Sc 6.273079290142715 10.403022991318794 11.645810913482391
Sc 8.213438259001899 7.964035537155709 11.773500604097064
