27
Energy = -135.66928897 eV
Sc 11.8183695431476 9.255011352986427 7.114725000922466
Sc 11.35928900817556 6.153578230747658 6.990050083756888
Sc 11.017738892870149 7.893980031023097 4.47305529298591
Sc 9.86673349432407 8.193610261582219 9.44618291175112
Sc 9.506516661686675 3.15932865938378 7.0740155198231145
Sc 9.070101100219448 5.544662439783467 4.993312202904101
Sc 9.534699349623422 10.972772105367302 8.088699111723695
Sc 10.008962309279934 10.735949378407625 5.071064403326245
Sc 8.69945248759644 5.673128390743314 8.06153734820351
Sc 8.936131554317978 8.376561348623705 6.594583288586608
Sc 7.016581978478723 6.648655100943601 10.145466536755876
Sc 8.080907679431512 8.653369299635726 3.764826578563435
Sc 7.107397157035902 3.5049611165780874 9.310757131584428
Sc 6.70634469138868 4.164863061554076 6.512117785498383
Sc 6.093452215255423 7.362916513338415 7.188911063470012
Sc 6.983732514166175 9.531354557218988 9.073690043917361
Sc 4.5593374059231415 2.2841041277058505 7.608378004347148
Sc 4.475123198845631 5.170864980436533 8.462548912727271
Sc 4.382488772121764 7.983315122899964 9.970002029682135
Sc 4.117247960165995 4.0202334007734395 5.233950284143401
Sc 5.137896974345029 9.093444197757092 4.6259710656824
Sc 7.0399394793888534 10.742672585242287 6.219606260041033
Sc 6.131798512222933 6.315332956560234 4.388116244225468
Sc 3.3536989986584036 6.784661936219677 5.841915094988535
Sc 4.0646513984443695 9.455110955122327 7.440479881907669
Sc 1.9481117731678936 4.224872693136758 7.202462017935422
Sc 2.0258547063091035 7.078858168752923 8.422763722258432
