27
Energy = -136.23972802 eV
Sc 2.1316613560464956 6.573373416485638 8.450309910266354
Sc 2.7722267131507703 8.956732950955912 6.771739818833054
Sc 2.77244093337432 6.111513202943824 5.522055046975544
Sc 4.342068519733452 8.823149417808619 9.462975290391226
Sc 4.25599556176229 5.904919824467531 10.362559047704933
Sc 4.0572981752516215 4.158013689133529 7.72529762671014
Sc 5.053683186345665 6.954876738669593 7.198540375745854
Sc 4.773520709422385 8.457101649661281 4.589491520478681
Sc 5.513253159740962 10.388010616108826 6.98294475907992
Sc 6.942540898617375 7.642938475846317 10.61204255696957
Sc 7.0008004001483695 10.531563154433643 9.79767961142021
Sc 5.462344490865488 4.683559330861035 5.093785475000434
Sc 6.681116772013237 5.152078513775552 9.055283790189685
Sc 7.634127996712085 8.43656176247325 7.677823423248331
Sc 8.581469853206407 11.239291416744848 7.4084791279214395
Sc 9.825376080420854 9.152132331867385 9.463047891234606
Sc 7.822668533556778 9.708745727806727 4.822084641731877
Sc 9.406969123852846 6.0246576504873 9.539538546472471
Sc 7.223835857104812 6.830232258331244 4.509565173647942
Sc 7.663133669805706 3.66396486526309 6.837823057936461
Sc 9.252198581991339 6.238443598846511 6.571787296972143
Sc 10.493571089046561 9.003207123619157 6.364136723445587
Sc 11.7858598952272 6.866677297564707 8.24859148560407
Sc 9.882532188589376 7.479396501833269 3.7245179794897507
Sc 10.770881734501522 4.009710467183046 7.314898925205132
Sc 9.342832048537305 4.413358423742885 4.390228386330044
Sc 11.90676363650192 6.029140192733394 5.325065420831183
