26
Energy = -130.16362693 eV
Sc 10.310612000011918 10.310308218776552 3.5901981069990003
Sc 10.111864339227926 5.127950680866098 5.278013128750159
Sc 10.699076040863492 8.943212578917159 8.593401029969147
Sc 11.32855012026222 8.20059735925833 5.6878892919226525
Sc 10.387240688484178 5.746144095459041 8.375153077268044
Sc 9.359240504707138 10.551202564175702 6.346687521122169
Sc 7.826120291805575 9.957680899521668 8.711672535899964
Sc 9.371572501023518 7.550851031655079 3.603087647004718
Sc 9.978603948745196 2.9737221304065105 7.525175252356166
Sc 5.474297983760408 10.905173460064761 6.778548259389029
Sc 8.45138756541097 7.416634027208524 10.229860057443593
Sc 7.32043011703692 9.542520388012568 4.364200042494345
Sc 8.758462852259834 7.462136622699891 6.71074685277914
Sc 6.3043097849435545 6.2176545333788615 8.781375300389746
Sc 5.377166486217841 8.832654371708282 9.837851725234264
Sc 7.514862927526023 4.449155273050792 6.779721723741971
Sc 6.0608465121005874 8.310618768387213 6.768716794179696
Sc 6.788847354155527 6.386294624354197 4.484941124263199
Sc 4.23725719164471 8.629407129899256 4.735659887836516
Sc 5.859977211375404 5.777386385286082 11.505483967157682
Sc 8.172213151877369 4.231033294957772 9.812833472931773
Sc 3.5361458937155827 6.508790321239413 9.769241355760778
Sc 4.427096869624732 5.8181843924981616 6.552911670711177
Sc 3.14830124823647 8.423017327340066 7.56224139544149
Sc 4.771949643788736 3.8524877716827115 9.060954278668321
Sc 1.913292474697299 5.246461837623457 7.816182828011376
