24
Energy = -119.17286342 eV
Sc 10.400010375231622 4.799981010402957 6.487967482643763
Sc 9.157781310094471 9.26628671807138 2.720400376920799
Sc 8.875689914870865 7.116748653297933 4.912260097034446
Sc 7.731415707981166 4.230941077737852 4.900717249263316
Sc 9.894528712720616 7.7286245192942 7.694032067450079
Sc 8.400168937408141 2.604645369269207 7.512586365319095
Sc 9.784944153267041 5.222856047472025 9.701641672805472
Sc 6.815687921631299 7.3682934779360165 2.770407753004043
Sc 10.173258535452057 9.84630649325514 5.363537080395779
Sc 7.886925202334913 5.370000533228767 7.673833718981854
Sc 8.109827478111322 10.412653639869866 7.854336398608405
Sc 7.1128444271296924 9.51809330163889 5.044038717361146
Sc 7.200192948383296 6.450581048210414 10.712285832645534
Sc 4.275122881872058 8.84519924058831 4.3663159880041995
Sc 8.963114143146658 8.637670536298225 10.214577120765487
Sc 6.749323756964815 3.7143834705209042 9.865189157432575
Sc 6.737409221489093 7.895735907418444 7.806254893403341
Sc 5.723468056984396 6.499590194917089 5.291510055050597
Sc 5.330238602478443 4.198296856930426 7.147086460504998
Sc 4.814427652380842 10.007117219025048 7.212755944778329
Sc 5.929724365062083 9.267357949145872 10.159621737514097
Sc 4.711355800709852 6.224930404098791 9.394231173248357
Sc 3.4508666178511644 7.240828898545532 6.930710997604445
Sc 3.0617452450861697 8.820662559919095 9.447729727414117
