23
Energy = -114.19271661 eV
Sc 3.3214734528646415 7.914316605938698 7.200372388681734
Sc 7.734587844615237 8.806910751892667 4.2685062039425565
Sc 5.502456868252903 6.871631621542279 5.062699236654308
Sc 3.9197303969562878 4.976806750024912 7.050432842574016
Sc 5.677970771371056 9.780931988110513 6.4675690791393246
Sc 9.663777755347239 4.154371649615314 4.709943610221186
Sc 3.547368048503419 6.386010279790572 9.777001953347396
Sc 8.06956083273373 6.017757356324822 3.280130568342753
Sc 8.277069943021393 11.717552978716899 6.022988423603686
Sc 6.090856174233287 7.001891606172202 8.10567081872882
Sc 7.159772432970277 11.126542477394127 8.72971207993671
Sc 10.086109440056056 10.898992734188113 8.552418019961554
Sc 4.9793805979255055 9.175849003512791 9.6667877064977
Sc 10.58053218283617 7.203112398617466 4.941627563269137
Sc 8.410016945384037 6.3093904364176865 6.255296938276104
Sc 6.8441499405477115 4.038050348478765 6.452638536205606
Sc 5.672904161482048 4.177822608122115 9.35492852395573
Sc 6.220426532890924 6.557443895846249 11.113613068515972
Sc 8.507146345015025 9.097017649575253 7.039063858246622
Sc 8.23110436910533 8.586360867975644 9.955183535535655
Sc 8.57309945607832 5.410211095895986 9.179890055962042
Sc 11.015100386017558 4.869272480836245 7.082736355332745
Sc 10.63372460437681 7.521343199792847 8.272240638292331
