22
Energy = -109.73543028 eV
Sc 8.289560350372053 4.784047711480032 5.392203636194836
Sc 8.202468614599074 2.944535872457511 7.72856507609903
Sc 10.105033988476341 5.431227460180484 7.61124563564469
Sc 9.667958659547642 7.242955994658452 4.74573217073531
Sc 6.347183470597483 6.057238824476527 3.6574988324661772
Sc 5.611360135376446 3.8444580896254843 6.184165591606439
Sc 8.529823017241183 4.556067892106376 10.254750019455193
Sc 5.745854099937792 3.5390676409720276 9.362094182077835
Sc 9.610986119100309 8.279390542642489 7.502492953040946
Sc 7.518572415254947 8.990790663120263 3.149583122277794
Sc 7.046560155590373 5.896356501584344 8.014601196128652
Sc 9.120949635425768 10.277668601305653 5.345639161363078
Sc 6.921562168571231 8.06547564243952 5.9463047697212374
Sc 6.01243646100101 6.0299764878975 11.034672352244149
Sc 8.459663333984432 7.747691508727813 10.098446913216963
Sc 4.002118462496 6.109033359478554 8.613694989421614
Sc 4.303268408825567 6.39219241061011 5.753314001459517
Sc 4.616886229548828 8.670642849657458 3.865905258991865
Sc 6.16946866046038 10.872813784375765 5.20803309357277
Sc 7.537758761402873 10.2937999398482 8.040614644314013
Sc 5.718849289366187 8.411729105858576 9.266568502246495
Sc 4.148332190548757 9.082352665979052 6.9302740796283215
