28
Energy = -141.67304619 eV
Sc 5.562564655961686 10.379431840134849 8.887497346555081
Sc 6.070791088329572 8.750687750201296 11.551881176407216
Sc 7.041661387698799 7.684726703259316 9.079437615187363
Sc 9.136978402461967 8.465562514636963 11.24924537356062
Sc 8.661547268154125 10.445181237405338 9.043844388004418
Sc 4.3621295791149235 6.194518278922019 11.900977544577893
Sc 4.016936907208571 7.762706623527242 9.364287809606795
Sc 5.080790688568988 8.516985926939343 6.558451812456146
Sc 7.478288862442438 10.55901742926841 6.240186177215051
Sc 9.130258307772808 8.024305776116076 7.005114268395536
Sc 10.677126864522867 10.123135608952241 6.023927811582926
Sc 7.356449072019146 5.921961386986695 11.387008059397164
Sc 6.684385343761892 6.042639944915213 6.636301081684084
Sc 5.275237726508288 4.93141528371607 9.285096577135823
Sc 3.806636085474442 5.5058388108920635 6.709265633392869
Sc 5.596979450798728 10.26549996763967 3.988157040064257
Sc 10.105389834465957 6.328175046484398 9.286522983518855
Sc 8.777977298308313 10.323811083772965 3.5423233527485656
Sc 11.274359281546426 9.074048111380048 9.045440142857363
Sc 6.195011792949428 3.2471974904493517 6.53377429193674
Sc 4.769158820533307 6.672365907342169 4.086936666044825
Sc 7.3447841368251225 8.036232715837937 4.4167168581715375
Sc 8.057924652527756 4.299295460820398 8.812152802579414
Sc 10.249996868950976 7.482785348143035 4.247289429159267
Sc 11.924007003055719 7.287753947295265 6.7078339245940874
Sc 4.458372148265919 3.716760964765056 4.208760868538694
Sc 7.34900998506777 4.9397322892643505 4.033655267861461
Sc 9.62259490079062 5.095779656538521 6.330034591417657
