20
Energy = -98.963048 eV
Sc 6.0575580252119865 10.508015697172151 10.436878710219494
Sc 12.582352354243728 8.920093283715024 6.524029436345992
Sc 9.537382262569045 9.986369655020647 6.599019215278767
Sc 6.703462263636227 12.195775906151841 7.903093797370231
Sc 10.552867566000481 6.318844184231469 10.740567845538564
Sc 9.831065198954585 4.668868999317462 8.319184964568555
Sc 8.883010836333561 10.652681391109278 9.705088218206992
Sc 8.581031988836022 7.331246045651598 8.735755685631387
Sc 4.271977475826208 10.384231133960276 7.896740841482752
Sc 8.057039906685217 8.264300305138711 11.445140596298293
Sc 11.168448289386973 8.812219805065745 9.040798768698822
Sc 7.602178312624105 7.59876902397461 5.4903567335048535
Sc 5.627219471815867 7.4726106383563256 9.553225993307372
Sc 6.785552662024779 5.398547539890265 7.4666491317756725
Sc 6.935622667821272 9.43825778878562 7.764029223029647
Sc 10.426482027131287 6.998101259215999 6.380453910745533
Sc 5.9344645121149355 10.37305629003103 5.361369291641303
Sc 4.848071581927403 7.67640539082304 6.474999782228058
Sc 12.497656486565239 6.35226757908685 8.280347555115151
Sc 7.713911898980857 5.246693871991887 10.479626087702382
