27
Energy = -136.79571101 eV
Sc 9.000643084843245 10.471379313380641 5.309045733477398
Sc 6.7369800254401255 11.311697469185834 7.7549167460093065
Sc 9.073868774726208 9.521988953695805 8.075593180307347
Sc 7.449649295643803 9.898282431602679 10.58973880049191
Sc 7.608908580357711 7.752572016383547 5.661816585975465
Sc 5.968028961006158 10.095929893208826 4.991385220677506
Sc 4.657289614631128 10.385001932334877 10.134417875989406
Sc 8.093522765987059 8.851159367276082 2.9340734465358675
Sc 10.402829102158194 7.643115322030724 4.434804997033
Sc 10.37440222858235 7.071740834644322 7.350612769647112
Sc 8.566729163331942 7.084295472220794 9.813379211840985
Sc 3.806082815407235 10.384338421599102 7.264233145578542
Sc 6.09130406823256 8.380157396754615 8.251474469881387
Sc 10.183893273921957 4.566211598725 9.070136226309097
Sc 5.581258033856918 7.432645938524607 3.346166167624823
Sc 5.602607099920989 7.324142412584059 10.925145284447694
Sc 3.1488585430065323 8.029448366161429 9.054476207683653
Sc 4.111123639559326 7.5864656965990935 6.0507644425957565
Sc 7.704456472154123 5.278261731529193 7.438019484895633
Sc 8.159142099951774 5.686067955648624 3.6292442764998007
Sc 4.770572240836903 5.535505950977536 8.402911470415203
Sc 7.180292388062713 4.264277866133265 10.075251987884291
Sc 10.057651097760413 4.613144137246445 5.799626559645223
Sc 8.75990857092661 2.345092399042151 7.837164395616667
Sc 5.536552022791844 5.006069441418431 5.273783090181215
Sc 5.906569438981429 2.7980922915052675 7.548428788756357
Sc 7.655431800834853 2.866720088774294 5.072268866890592
