24
Energy = -121.02113787 eV
Sc 8.907723763033445 5.421748563797227 4.863002727019081
Sc 8.32560235083131 7.998468986306652 2.8343502847102635
Sc 11.131332568813516 6.040478526028046 7.0161744429589135
Sc 6.202928808202081 5.900280446738393 3.127577218600514
Sc 9.980141315996107 8.530638193258884 5.476910625952984
Sc 8.557732337987016 4.231724861754184 7.825010063088661
Sc 6.0815568857662345 4.199656089886923 5.777838778035075
Sc 10.396071755378676 6.061440546969615 9.917174145512945
Sc 10.991569569919172 8.739532352714754 8.465826315989963
Sc 7.5939119534701724 10.388796350565858 4.6091465162199325
Sc 6.98532756496619 7.616862348275142 5.38273356722767
Sc 5.380510514067324 8.854813872295924 3.3020084036699213
Sc 8.590309848947932 7.193598616819225 7.942811889082576
Sc 5.679361547576063 3.604427282695617 8.948822929816139
Sc 8.046990407010952 10.097674496414246 7.717755332184674
Sc 3.984350646356013 6.740017383131219 5.20111538735999
Sc 7.282822056888593 5.855939822572714 10.456164620230004
Sc 8.799915966337387 8.616834251541947 10.509494851225433
Sc 3.278353782340104 4.693984214739538 7.514969052984766
Sc 4.125055079461693 5.919072990945237 10.238320952142566
Sc 5.104685951501611 9.595118143392902 6.539535299239177
Sc 5.667006132404963 6.316082852168865 7.811253697882398
Sc 5.801471136504046 8.713986889066625 9.54645084699703
Sc 3.0916923697568848 7.708089144954689 8.0622752172808
