23
Energy = -114.76692759 eV
Sc 4.121362721003539 7.93412237741986 2.4959338761363443
Sc 6.917816985250788 6.861851472053991 2.9828961843841966
Sc 4.548249988438143 5.625165092733333 4.403614108117608
Sc 6.339598302793818 4.524810319884239 9.592939404538049
Sc 4.683555700694125 8.510988057852316 5.468698172192059
Sc 9.888946363931744 5.808604991199683 5.612545678149986
Sc 6.4215032568498875 9.680903551446002 3.3511994529495617
Sc 9.133345190233745 8.486693658439183 4.240403372154762
Sc 5.413178002076016 3.8313053713323706 6.696755513484114
Sc 4.616671351327218 6.492339183151861 7.8402119344155805
Sc 5.432419717307783 9.381417502466354 8.710675785856466
Sc 7.3564369710012505 9.670528001828115 6.303371513407257
Sc 5.220924444387144 7.019703260538137 10.828436869340274
Sc 7.438297766636543 4.194407728021862 4.399848578441312
Sc 7.066175004250886 6.613900047778047 5.9782428849696645
Sc 8.207872503809384 4.156352819589559 7.3525955231331706
Sc 7.5820918932411585 7.309043647187434 8.910152762935045
Sc 7.226759053667119 9.099512122692632 11.442604551544383
Sc 8.441355503679517 10.423706873657608 9.047359751498911
Sc 9.953603577970659 8.323170603239832 7.3115989142613325
Sc 10.136593336475546 5.686281624851545 8.947516005004498
Sc 8.155108678923906 6.114479641307849 11.576740202752463
Sc 10.035243837717884 8.31448846035875 10.459303432842619
