24
Energy = -120.41632357 eV
Sc 10.190005650512374 7.781943703358035 12.985478331108892
Sc 11.985429042140407 8.215085646091834 10.491880357473093
Sc 12.076164251182556 5.834848627920738 8.103475071392229
Sc 7.411500056624038 11.281533616976755 4.896928942732543
Sc 7.736825854252204 9.780885085086293 12.892394534181848
Sc 8.35907311019402 8.552700652379443 4.860099641194515
Sc 6.835465284290445 5.980821413687007 9.388007381359474
Sc 10.531762304437011 8.215740154160645 7.800211928579764
Sc 10.4709782600845 6.6426205599835955 5.370403509148507
Sc 6.890542067071677 6.148890452847391 5.906999666261252
Sc 10.530264963434622 10.661230703946657 11.981124743891188
Sc 5.6717449688583095 10.766544486131867 7.7229708569209246
Sc 10.625431352422618 10.188224430266501 5.600551471668706
Sc 5.538853977242422 8.920574280089618 5.30055105824766
Sc 9.202514121964674 5.438250223425747 7.669591750700156
Sc 8.594903344822571 11.202726858649251 7.442387372971802
Sc 7.507310047891294 8.377682032358422 7.719398381221587
Sc 8.960884494051623 8.653163000244023 10.399900645265388
Sc 9.908866208264024 5.8331329550456275 10.50626770268602
Sc 7.898103089021093 11.4420983116192 10.277290673311855
Sc 4.657687853085305 7.685182474028665 7.836155517666541
Sc 11.019631328820193 10.848763118624564 8.962872828205263
Sc 7.376928200322365 6.8190442906047295 12.264294088382465
Sc 5.906300278299221 8.96970279801446 10.437833485449254
