20
Energy = -99.32777782 eV
Sc 9.00771879912126 8.458910017729568 4.697029534581726
Sc 7.601616046572389 2.5048128623713284 6.111283378834125
Sc 6.27092889938779 7.204245313481981 3.7933698787532153
Sc 9.630171688013622 4.132400962868428 7.736082216213345
Sc 5.494902334233319 10.872128352400317 7.370104269119454
Sc 6.960598068476675 5.223398121679293 7.085121551772475
Sc 6.4687545044612556 8.199142219127733 6.4866936212656
Sc 7.089114944842362 3.075990791649061 9.148484859778407
Sc 4.76146529227251 3.2706850322211602 7.178360938699059
Sc 5.152419890899788 5.80968351651025 9.260497911754861
Sc 6.833591384771498 8.522464998785528 9.334773636434736
Sc 8.217281943307604 5.761677640314775 9.918753871624496
Sc 3.879566598286364 8.46572128154668 8.193078916607552
Sc 4.103179988082002 6.167847376400859 6.14432989091858
Sc 4.002112405045084 9.185971973745845 5.222207828815807
Sc 5.762423414534954 4.195631996085556 4.433601065501289
Sc 8.474409376507989 10.27942525520909 7.111353549422283
Sc 9.291742528550728 7.265666136679393 7.495760973711609
Sc 8.697101542049513 5.349794165372816 4.798145028290772
Sc 6.729490229411237 10.41055141289515 4.532369309992551
