29
Energy = -147.49136364 eV
Sc 7.8318682469739205 10.985949867787513 10.944673039007112
Sc 6.176997481671918 8.304344971092906 11.071355698049514
Sc 10.828961733743032 10.662347468110074 10.816287185863118
Sc 7.6433131635130405 5.529748864583042 10.846717192739735
Sc 12.22521395612473 8.097593548361592 10.954329732300295
Sc 10.664283158346844 5.632063753763734 10.73330553412183
Sc 9.571375645309763 11.558676208527006 8.18760035989243
Sc 6.953454206228813 9.82346181823439 8.31814840897946
Sc 12.004755796858902 9.668286776015998 8.07869255967207
Sc 6.829532857579958 6.837289934937642 8.26213684180144
Sc 11.908830758946992 6.639560796253554 8.024543177406768
Sc 9.338650085733088 4.9383590959843096 8.071964471823625
Sc 7.545176809119034 11.068717326954575 5.650418673468746
Sc 10.509513100584224 10.741438077404766 5.374515276281809
Sc 5.885736633822254 8.41059523632003 5.6081985832585755
Sc 11.971705970020377 8.210399479542138 5.141267729439075
Sc 7.3587572897695015 5.653886949726656 5.552326036833167
Sc 10.345755005725152 5.773056346152449 5.287843404452624
Sc 9.244958047015757 8.176254731386967 12.28464504214364
Sc 9.58039028651315 8.201129353202044 9.590252177567459
Sc 9.43108703816836 8.263204989668102 6.702821641489848
Sc 8.847725327039187 8.334999493454113 4.046147109344525
Sc 6.747651547049732 12.733676351179032 8.367076376739774
Sc 4.692020749551586 11.048377598979103 6.8943947473707805
Sc 4.864794986979963 11.006717845068144 10.00905621273287
Sc 4.088345676062037 8.422372052451104 8.457276855474692
Sc 4.67464902539089 5.731927954519212 9.918812322041955
Sc 4.50141801168502 5.812412490500237 6.8002490222393615
Sc 6.439463570116058 3.944784885525286 8.212725234256036
