23
Energy = -113.86302043 eV
Sc 3.5540635779723386 8.719509476405376 6.644740640646861
Sc 2.713562323924773 7.473459872874478 3.9050036489568005
Sc 3.066533315154521 6.578057582856259 8.836022295520305
Sc 3.5944475473192083 5.487685511314371 5.934836624138201
Sc 6.47507475482439 9.8079249421067 6.903762694040347
Sc 5.540699712478647 6.33114231813658 10.595745838307009
Sc 5.624824957601109 8.030938262020054 4.576272355020111
Sc 5.071777553567449 3.9953147365929587 8.576082354497304
Sc 4.816321649613559 9.017127429296584 9.454953379602744
Sc 4.9488264410379115 5.503303240694778 3.305869380993368
Sc 6.407129446184799 4.183113001176316 5.780453059520893
Sc 5.7770227122349125 6.732621093342985 7.528343095274691
Sc 7.674516068099042 2.4058427568669205 7.89733535340541
Sc 7.886414649785302 8.140812863701676 9.670263542842493
Sc 7.965770917609655 6.241085429887787 4.11848576104259
Sc 9.51826778261806 10.01204079009587 7.805568829895878
Sc 7.984262904892826 5.085854898510979 9.223861228441617
Sc 8.938929285373478 9.356416766654343 4.678233935166
Sc 9.30678112523519 4.639254382352841 6.546348472187518
Sc 8.46270739048872 7.514747921163593 6.761676466133659
Sc 10.711747306191777 7.11897287247627 8.362880341714723
Sc 10.808308030663117 6.9367494354867585 5.095443277772301
Sc 11.802712871192362 9.344568663875915 6.232520398412134
