28
Energy = -141.24509423 eV
Sc 9.702653336120509 9.67688580669927 7.492067356830191
Sc 8.109628886852702 10.308586985081423 4.768896925845794
Sc 11.182196084686195 10.412970549312993 4.944495364135953
Sc 8.392510815474285 9.5795163877123 10.384967067532537
Sc 6.961324432030556 7.657754070299855 3.0969264023746863
Sc 9.794231458399288 8.151954605469694 3.673734600811232
Sc 6.719150686513533 10.15487560617019 7.716502278859802
Sc 9.508033070476205 6.879010039242217 8.963086173923818
Sc 5.247177325417298 8.77805119088525 5.344547055495662
Sc 11.36495826941006 7.584517919721678 6.068442279283584
Sc 3.9834021873500367 8.529965950695233 8.081129918693835
Sc 5.3737130834299105 9.724308759889984 10.691077954320532
Sc 6.645199571844245 7.564587500397012 9.224842110837264
Sc 8.055476442336452 7.69001916601082 6.119411205346881
Sc 9.8384080440464 5.250001746512241 3.6609475123116626
Sc 9.737243976180757 5.175622711929174 6.494467735962479
Sc 2.295186336766468 8.013738813487617 5.562591391753742
Sc 6.854486615372492 7.691864005058153 12.175714474888878
Sc 7.608521323711931 4.003521496783754 7.992902480780327
Sc 4.205271783514213 6.015403737236296 4.40530506126938
Sc 7.189318955822574 5.1074593406077415 10.806428524717687
Sc 7.072238440546014 5.098311818980831 4.506352068271854
Sc 2.859872336632736 5.657593748205873 7.378700858464134
Sc 8.51321627495311 2.7621386632546274 5.254834503291455
Sc 5.681642578622241 6.06178747530765 6.981685147760064
Sc 5.195301439802832 3.364517019776688 6.105072148766061
Sc 4.893024440931303 4.038763937860548 9.086207555217984
Sc 4.299113435640293 6.640393931471253 10.543826651421131
