24
Energy = -119.45154134 eV
Sc 8.172936650347543 10.292936787059453 4.41338337724786
Sc 11.007254377721672 10.36598392636187 5.2647749762706
Sc 7.868878139163234 4.72733370868064 4.603266772194584
Sc 9.551832532504601 7.731273426171581 4.950721674629751
Sc 6.4879127429633074 7.525295801255368 4.085985558070752
Sc 7.2792901534720835 6.788778766533743 6.884853738212631
Sc 5.797571996145258 9.52618086252112 6.262516062841204
Sc 8.833955729690738 9.761947888566667 7.341611867797002
Sc 11.428985722703093 8.168494064638272 7.201300772952825
Sc 6.29401686049849 2.1718875797426187 4.4714782654245635
Sc 9.873346617829364 5.302463217045785 6.982738506804649
Sc 4.973661009908308 4.793509444228692 3.922856795362032
Sc 8.237327486322634 2.6501691251253243 6.693353412585609
Sc 3.759385897697743 9.139186393165682 8.545015922910887
Sc 9.290376742814633 7.22663760196913 9.258537235298876
Sc 4.3299168510454615 6.883046371443829 6.258606532925711
Sc 5.621280747370755 4.0626479666478685 6.729589298988439
Sc 7.611340688627191 4.708111544529573 9.060581558777432
Sc 6.586215970268454 8.62185070446525 9.059600294607264
Sc 5.933947495162339 11.275012280632941 9.13482534556004
Sc 8.103010614542796 9.841334339476797 10.990698348660922
Sc 5.075687357727984 9.302338412672395 11.338987701346584
Sc 7.133641324162915 6.913231138936263 11.387755459520552
Sc 4.9174805550162555 6.2407402207083456 9.244487527173819
