29
Energy = -146.82990229 eV
Sc 8.335615300601638 5.828821054127784 3.5916100470853842
Sc 8.36965674524593 8.410108444166926 6.652901337366901
Sc 10.404054495748824 7.791464391398336 4.669426910679215
Sc 6.03544048847797 7.450266377709786 5.052915910769932
Sc 7.592615309654148 3.0854557477102125 4.514578179986664
Sc 6.1960758418822754 6.489658842583245 11.240777454262483
Sc 5.327522989245394 4.923811731821382 3.8255845125067633
Sc 7.405053368266082 5.2893551206768095 6.602340009567272
Sc 9.711039534266035 4.287871783264353 9.015239079570131
Sc 10.956694805769807 6.810498435345398 7.639613293728189
Sc 8.080126456130932 2.4167540819254363 7.334911368105525
Sc 9.265491987716928 10.806311823296676 5.011730772782443
Sc 11.068205349284904 9.745816424889483 7.079409502181021
Sc 5.511750126265245 7.56077904200054 7.9926056652950805
Sc 3.614188346287307 8.999271363389465 5.438434019203309
Sc 8.219838733034075 10.983371170377723 8.000615670212083
Sc 5.160033565514807 3.437245758530169 6.630884039290615
Sc 6.873007563040148 9.400434855945583 10.229961013526973
Sc 9.930164751540277 8.935237325644453 9.730461994724042
Sc 6.599592156274893 3.982352444678017 9.408695460693174
Sc 4.741492361221865 10.366049054373518 8.077917792940685
Sc 3.9390676749009987 5.463565198294428 9.252330158582428
Sc 3.476386837805121 5.930510134086946 6.143387416351046
Sc 8.152223792792078 6.729569294301911 9.116165660002345
Sc 4.051836427593133 8.449526223282353 10.508732444642979
Sc 10.10151341085131 4.4834978286764695 5.8641707132135465
Sc 7.783082118821924 8.891169942712237 3.2468370149877646
Sc 6.323121887741963 10.57291127918471 5.481124722572827
Sc 2.503578794973394 8.02353683072041 8.045576199229439
