21
Energy = -102.79645657 eV
Sc 5.534813046697236 8.015295971724306 4.031922330684915
Sc 5.694845799394633 4.95685505989081 4.706548243564867
Sc 8.455992661992209 8.202052433119377 3.6202872393574554
Sc 4.755941166986173 9.366399615198855 7.058855574936272
Sc 6.618064485899726 11.329594224352741 8.553834148830429
Sc 7.159726523782371 5.988709818413871 2.2774832466784565
Sc 3.6580016033875666 6.626092396135222 5.926177228603138
Sc 10.184762356417668 8.196938911371937 6.057814589489526
Sc 7.568064469815021 9.95180211500552 6.024615734292608
Sc 8.753724842833336 5.583103611659603 4.936852000275543
Sc 11.682981391477773 7.912810131165457 8.845320459203792
Sc 6.725425590483845 7.124817552499339 6.49673800212892
Sc 4.669384171603234 6.168147729160128 8.758237272791419
Sc 6.758447532870651 8.407498320528045 9.250977152216421
Sc 6.835592914688997 4.270382269662918 7.595106713247799
Sc 9.357989169701206 9.720944409926455 8.44365839409007
Sc 3.948395286555283 3.7965205206182615 7.073303861214956
Sc 7.1172032653494215 5.565430938899026 10.406255736861402
Sc 9.397061494560015 7.962974458051926 10.863905315151653
Sc 5.044856566646387 3.4124037170778316 9.818128687100202
Sc 9.126162602586092 6.523190047526222 8.301018813832519
