27
Energy = -134.95386762 eV
Sc 8.912200482007119 11.397247140901522 8.306993891215525
Sc 9.293324285793952 11.167053529651819 5.317886499885534
Sc 9.629399127404088 8.86998104663252 10.02961457330264
Sc 11.235649941381944 9.376871247865672 7.322775003317385
Sc 6.30854407680152 11.051935313172228 6.6279996852009155
Sc 3.84265724717902 8.512473344470722 3.906324065474857
Sc 7.066304615608493 9.12292320060017 4.167564247250818
Sc 6.682094520739482 9.508884539268882 9.51344564253722
Sc 8.418309709754032 8.813713706013885 6.909159805414414
Sc 10.052108240687147 8.34519678413127 4.464505306039422
Sc 3.2404214234885593 10.202807592433322 5.899392522558906
Sc 3.7315414501165596 9.521832763629943 8.610186631736852
Sc 11.65206503383187 6.799664308027521 9.477741513048189
Sc 5.478868868745795 8.111848750874753 6.534389029457968
Sc 10.510531495393389 7.02981464978784 12.282001994955309
Sc 10.594927986787464 6.276100209968757 6.776300982720888
Sc 11.652659836163634 3.946736092151384 8.406710982158023
Sc 8.13200611683539 6.473812373649722 8.683180089523061
Sc 2.858393855546849 7.156303646863403 6.545832925655673
Sc 4.9432097895781215 5.9604753752925 4.395709751141003
Sc 5.039204280551714 6.828879614124546 9.416096945138149
Sc 7.52986257060083 6.966385311564155 11.511845156604064
Sc 7.91946363343862 6.150768266047958 5.249490080391621
Sc 8.695772006087749 3.820150985676371 7.571187711034269
Sc 9.679170797419738 4.728743535628959 10.534882062796095
Sc 5.703054295729875 5.010416949631192 7.1982923834576775
Sc 6.668225228566219 4.28691205980256 10.014786506351035
