25
Energy = -126.53755279 eV
Sc 3.1258508257280915 7.427273673419515 5.9607806654598825
Sc 3.441088528811739 5.1706784781840875 8.315662373462695
Sc 4.547438493065173 7.824996288175725 8.554191083173638
Sc 5.392077648003772 5.862739526931816 10.647092813388577
Sc 6.9610750162824715 8.73693350564887 10.003498787441863
Sc 4.449566978188728 4.735257948472162 5.491209547805715
Sc 4.369603414015243 6.883829506701908 3.2015851183530315
Sc 6.487565670226722 5.59333859697512 7.7606660928029365
Sc 4.777262674816229 9.768246601450338 4.307803992227155
Sc 6.071268207773582 7.511842113433128 5.497269879901258
Sc 5.713581061729129 3.286660548877802 9.061603769799259
Sc 5.902584458330472 10.110699448706276 7.268365946837666
Sc 8.431942774553152 6.073413532055058 10.15792063747698
Sc 6.725557241786815 2.8527216971503138 6.231921427780856
Sc 10.117921494929995 8.639459907525225 9.753238212823883
Sc 8.723818815788523 3.499623703028581 8.57095161562622
Sc 8.380148601350232 7.934257253902695 7.504246565754108
Sc 8.765872453726374 10.823732230708504 8.191963538520138
Sc 6.976379842260728 5.190913108025996 3.849327158847358
Sc 6.979357681368105 8.280005017545468 2.8071859258772185
Sc 8.109097655730665 10.070796352830913 5.170364113082542
Sc 8.898054067679357 4.818896526445105 6.043909244631097
Sc 10.663268622882713 6.115968596710329 8.013158463825611
Sc 10.876726230552261 9.115915827785347 6.727306512642903
Sc 9.396420024991482 7.3281322379893155 4.632705616719093
