25
Energy = -125.19568765 eV
Sc 7.077106536619801 9.578007106225686 4.998783902032813
Sc 4.912168203060684 7.278170194234186 4.802943322163517
Sc 4.415928689289797 9.845799683046156 6.709505905022048
Sc 7.944927807411994 6.488412035310131 4.7614240276261315
Sc 9.856818724649818 11.152350726020941 6.910440626784815
Sc 9.860850820166949 8.669145470980732 5.17407575879743
Sc 6.545229192561723 7.628780245988095 7.244286212746617
Sc 5.787184573201437 4.8279540560893475 6.9158996051758725
Sc 11.295267821574177 6.253998646337649 6.263918858571375
Sc 12.227731453446331 9.269879715965308 6.970640710523131
Sc 7.105219392315055 10.529877715001218 7.9115259247769405
Sc 8.756613669172804 5.38817096950165 7.379675888022699
Sc 7.620367345467064 4.166050058403748 9.677205817371608
Sc 10.971610914815209 4.34972556753925 8.803969380299064
Sc 9.467275020865618 8.317452163784768 8.002013463049197
Sc 3.6143933988485015 7.019894242195275 7.490011978821512
Sc 6.856060879015914 6.85212581776902 10.203051835422233
Sc 10.993381420531373 10.022801944841692 9.719020865158752
Sc 7.901909158475112 9.586703151653987 10.635731635468723
Sc 12.192003026734703 7.144492153615063 8.983690063958301
Sc 4.5871970052885995 5.288810380349294 9.609340120417349
Sc 9.680025178301086 6.517226600087521 10.400470503617282
Sc 4.8375330348825285 8.850599634488779 9.643510288136381
Sc 8.759534655896292 12.22025733795645 9.666816038642208
Sc 5.746729552079298 11.766381857285587 10.135114742065124
