21
Energy = -103.9877864 eV
Sc 6.224210856224042 7.283356427357611 3.5840088162846544
Sc 3.730761354987667 7.836072941975352 8.863822371712834
Sc 5.604728134598872 5.258267114290566 8.645355427282526
Sc 7.026904206441969 4.959629372950053 5.60355778737499
Sc 8.218871039809356 3.4386040623007625 8.21880747641657
Sc 10.126329223008245 4.823585450414659 6.198747338534846
Sc 10.663106168771982 5.105789591413584 9.198335554487947
Sc 7.978170070316746 5.273020409009322 10.682453701546759
Sc 8.277780235988189 6.326637085868953 7.935930527791258
Sc 8.86007478431572 7.4462418562725805 4.939778992786711
Sc 6.441302212589608 7.979502995239455 10.046073254051226
Sc 5.574877710624559 7.592890839227929 6.497267894697234
Sc 5.572191697460734 10.331783753368676 8.10040326989117
Sc 6.995082124236293 9.993956049614045 5.061447135755229
Sc 8.258405838798552 9.16834438560026 7.629519874428971
Sc 10.091681145006746 10.290623488532102 5.611406601425752
Sc 7.942847815467279 10.777727560440175 10.090766592494404
Sc 8.165059554726644 12.04991997784353 7.29374191831088
Sc 10.627524277637498 10.658583775383612 8.601352256975721
Sc 9.664106990638464 8.019325202201772 10.229146437083529
Sc 11.063603360159082 7.714655152119677 7.311292498399004
