25
Energy = -125.62666421 eV
Sc 2.658923903049275 7.555930045583475 9.558569930220504
Sc 3.954159457076244 4.780546314594587 10.064988339240173
Sc 2.5886040253916294 5.295801455964311 7.339843016982616
Sc 5.1733595779185215 3.6412534442624103 7.497372462543707
Sc 3.085799325440834 8.241236920777888 6.5023323122278915
Sc 4.675065312252618 9.667905051052632 8.769919257296246
Sc 4.981128992598378 6.711991293142325 8.117556678475315
Sc 5.380329537099041 5.9098338225663465 5.377685305958222
Sc 7.1016985724690285 4.544466520081409 9.712583474946747
Sc 5.81058806938202 7.38935034927821 10.767447389888906
Sc 7.846572586113127 6.649193307917721 7.8730723841653445
Sc 8.034154933078643 4.038503812118551 6.549682833088814
Sc 7.796344301125675 4.9601656076651865 3.6608087799731734
Sc 6.054629331275559 9.131160737016911 6.055194901024886
Sc 6.37605096012141 7.625394183879701 2.9588586107272845
Sc 10.147987044555471 4.946812686499364 8.580399829011686
Sc 8.304751405748473 7.551403481396957 5.171662699926943
Sc 7.666006837489173 9.289294454199112 9.115110596083872
Sc 9.0189058565612 6.911335241547213 10.542519641752271
Sc 10.43968045937973 5.67616193745509 5.431677821453557
Sc 8.875836757134742 10.337535162099643 6.555991698631802
Sc 9.491841711978246 7.212103316069706 2.5829437643552824
Sc 10.419390034298402 7.98754040486752 7.799959035420793
Sc 8.298273114049167 9.969920162312627 3.5653732261314963
Sc 10.901895892464724 8.862218739451446 4.786103201409016
