29
Energy = -146.1360626 eV
Sc 8.548991076816908 5.195595449889914 5.462748672124235
Sc 7.698276101762877 5.447308104405603 8.20821157789724
Sc 5.6224037444860375 4.554612505800905 6.2219222161066465
Sc 5.497716717570229 7.32010773717965 7.612063504831708
Sc 11.55548554683855 8.555089403219174 8.355720371026237
Sc 8.83472422707835 9.260425335580988 4.063144676991145
Sc 4.031492340668962 4.986192842389354 8.932870355319992
Sc 9.166156134264899 4.0345671342362825 10.12802168089643
Sc 6.254476793323285 3.461836598052135 9.968272388922815
Sc 2.9589389662944585 6.27674179503603 6.518442861481794
Sc 10.635837369457683 5.588813341160453 7.757244210549915
Sc 11.427276877036057 11.707833025912725 8.10420759211692
Sc 6.591584463141064 9.415585296807668 9.422748864865271
Sc 4.340900190679966 11.145341369505354 8.400220672539717
Sc 9.195115822938687 7.212174225312753 10.086594453201995
Sc 9.130649400903966 11.201190377970445 6.401720061946899
Sc 6.122746977551079 6.5230517619710024 10.59060091843236
Sc 9.42951885655038 10.216069942191272 9.52632840711203
Sc 4.616898664865407 2.195788319820979 7.784873174036221
Sc 7.4246823143367635 12.202966089579462 8.580082956150674
Sc 3.372661656648855 8.176131926600977 9.108716300053695
Sc 3.61029377079875 9.172371364395604 6.212982045559063
Sc 6.347134757592116 10.386964346710899 6.339558282470784
Sc 8.752436504570946 8.17894483707699 7.091289607697188
Sc 11.496785509472765 9.846343322927137 5.724272392833927
Sc 6.392986555143267 7.524929342284628 4.87687019861755
Sc 7.77569454735107 2.656709314750262 7.548354785802507
Sc 10.718898220123837 7.090567483671675 5.006519053538701
Sc 8.502798180740516 6.549236802039919 2.831914306744489
