26
Energy = -131.28232983 eV
Sc 4.728202513573613 8.054637524642008 10.229745408575786
Sc 5.442935087634342 5.172306404583185 11.661557522828822
Sc 3.5102455821511396 7.474397576218026 7.423512009161411
Sc 3.158398149863238 5.39436746902637 9.611927723204895
Sc 7.9597858299817785 6.965015281683003 10.974759260087508
Sc 7.292119857705012 8.837933754134907 8.726098239032494
Sc 4.984968963308407 10.012849459196135 7.590660831393535
Sc 4.1461132038340445 4.598697091709426 6.6441352375089044
Sc 6.031911249394724 5.8213457580181895 8.87709507412984
Sc 5.149504357222587 3.0488942271983897 9.353409054396957
Sc 4.171189302232831 6.999926767265853 4.366139899179963
Sc 7.933381900999173 3.965656791467078 10.228861678129062
Sc 6.271943605860984 6.936465252115257 6.228182896607414
Sc 5.879773425685657 9.620928851538697 4.814624884885451
Sc 6.167119477115723 4.655722665980963 4.267755740008434
Sc 7.218916983025471 3.6898817792550584 7.015932777082266
Sc 7.98373241309501 10.998257915111143 6.6520732080790665
Sc 9.127801255201373 6.196728486467618 8.215050602010496
Sc 8.775946550211522 8.310546890451304 5.849474935437109
Sc 10.267467910344736 9.068680080742011 8.423782869721794
Sc 8.58963759126038 10.31266033094847 3.629178331022156
Sc 7.241591247927027 7.399970413252424 3.231331612188263
Sc 9.096268947086436 5.394202067584314 4.949784101804668
Sc 10.983713724133235 10.19473697754822 5.55527546111316
Sc 11.514562235223186 7.2116037587622195 6.284208569138911
Sc 10.474636203410267 7.867098283159733 3.480798926886604
