22
Energy = -109.52551524 eV
Sc 3.526585451239238 2.6590866574350938 5.330857263933149
Sc 3.382620811910175 7.621810918230391 7.090732977300248
Sc 3.7690569830825957 5.655237109923861 4.839906146628272
Sc 2.955534917685234 4.654480474337398 7.444202527808323
Sc 5.439253287391562 8.96057271715619 5.502402355349392
Sc 5.419420149577466 9.445220223939575 8.641791024756808
Sc 5.230434943756925 6.2882614896831015 8.89690008555655
Sc 6.1282728053087725 6.885706613691859 3.211013531723153
Sc 6.483545421924836 6.123743563797655 6.0193218664662265
Sc 6.203321362466408 3.8264359532639025 4.14839608513434
Sc 7.533431201141608 10.906839143780319 6.656685229152626
Sc 8.392471022781185 8.592092219952086 4.651573921084278
Sc 7.824577482960536 8.09940342096538 7.683902502338425
Sc 5.670577999187034 3.545950885655186 7.285556867514826
Sc 8.486345456016748 10.326407214584654 9.507032226321192
Sc 8.73162182717582 5.613251112011179 3.853626023268458
Sc 7.371724469310418 7.713915731316954 10.65607204369727
Sc 10.286403038465455 9.611761920523406 7.05252468301378
Sc 8.513869693569184 3.809420787079795 6.239572864497606
Sc 8.164791965877054 5.251548516663051 8.928302915205437
Sc 10.119329994228758 6.442016715699482 6.571101912171379
Sc 10.167493678246569 7.69015772387921 9.48121224575635
