23
Energy = -114.64260416 eV
Sc 3.4633749730723355 7.08768504472969 6.695035079912867
Sc 2.8167918116887947 5.81965603928247 9.608467754607112
Sc 4.1310260175396 8.532510852436973 9.509089491746845
Sc 3.793483045017742 3.9615146901590754 7.442017224859091
Sc 5.93506511218062 8.995413708315276 7.094377714948621
Sc 5.205552783681142 8.10267644660287 4.162792654843669
Sc 5.6616584480747845 5.243101249437444 5.397430445087477
Sc 5.145781707042155 6.485606345813058 11.477840169632856
Sc 5.728902952138688 6.172306088576849 8.357714164180523
Sc 7.329866827263901 8.195256970307565 9.80101555693616
Sc 4.940477011399974 3.7035969240687727 10.219995664822008
Sc 7.869831311234589 7.415549928481034 5.2509268196355
Sc 7.033018085859107 5.847637716622303 2.7429758287341843
Sc 7.3638918822976995 10.418221182784357 4.805298115077536
Sc 7.813873308140942 8.731748663775239 2.3469188952160422
Sc 7.620655883708038 5.056074201250104 10.5145959620214
Sc 9.07139857397509 9.211680853251975 7.269643260977758
Sc 9.938510904525554 6.619330881787043 2.961399743209939
Sc 6.99113694929371 3.5746216681433736 7.711734384608139
Sc 8.73435450550441 4.59281650069754 5.1828550224764625
Sc 8.80124589058805 6.143831836432923 7.919384708037163
Sc 10.14065095055268 9.400245466211318 4.217053202855745
Sc 10.853817584629986 6.945920180656089 5.814188871005103
