28
Energy = -140.32792622 eV
Sc 5.708610757810601 11.548835077872173 10.166216071453062
Sc 8.213015163095028 9.862750855788397 10.856760282148212
Sc 10.492586640734629 8.016535808775192 11.832805526345354
Sc 5.746494002045554 8.650374851395215 9.499436084977372
Sc 8.079170190195157 6.916200550670568 10.493305648564213
Sc 10.144964901727409 3.111948294217337 7.8649022970815405
Sc 4.634825617425009 10.462657000200515 7.52244353605343
Sc 5.427672954792984 5.535141683652545 8.881867635406175
Sc 8.13135347632919 5.078629887746477 7.98772685790909
Sc 7.6415659516161805 10.75320159706962 8.004372615395324
Sc 2.8611281728807003 7.238721039052393 7.9543986793656645
Sc 10.276179746037679 8.627250462894947 8.966737309836716
Sc 6.651210652160378 2.67556195705246 7.631566181699056
Sc 10.707296431764552 5.746327858575596 9.78452291147715
Sc 6.701021667659947 9.734070510649836 5.0922513679072425
Sc 3.520065940452749 4.017586293076533 7.306155328661476
Sc 7.935698494819691 7.890478244999313 7.404470729261538
Sc 3.2170492909249413 8.941754967422264 5.113887646971992
Sc 9.862128262663882 9.044658114025603 5.388380105974302
Sc 3.006681601887458 6.0323923908318005 5.126199297685033
Sc 5.839853217893944 4.688761223375794 5.620545670546107
Sc 10.525521351053225 6.166240289218487 6.688152632595679
Sc 8.853979282651327 3.8427645249110163 5.36999515666358
Sc 5.331292019876194 7.436053440968792 3.516825434133599
Sc 5.18873737496946 7.540053710780973 6.521976001217579
Sc 10.567933447585913 6.586363690453305 3.601040775454379
Sc 7.962350292625747 6.727700765761745 4.778732212089406
Sc 8.462185828293011 8.679656764601448 2.714442976407434
