28
Energy = -142.29842409 eV
Sc 5.231196623486958 10.645365939191377 5.98580603816156
Sc 5.974916287656015 10.647092089037278 9.01136124370883
Sc 9.212382491073331 10.667151893467437 9.167086735338824
Sc 7.715267099183008 12.211380721214056 6.790707847880214
Sc 10.262496993652984 10.654333497264378 6.214342863385204
Sc 7.826403768383734 10.623322096793093 4.279572177031959
Sc 11.728726866804706 8.965249572284236 8.41460647445675
Sc 7.723502100007035 9.263552851796065 6.841653417824105
Sc 10.705856722178671 8.737871241205422 11.267529238917952
Sc 3.5629434278240044 8.935873710431059 8.013534805213975
Sc 7.4820699025327615 8.892954840312312 11.272494678644104
Sc 4.297119305173225 8.706078524853861 10.963987781147795
Sc 5.916251649999607 6.182314848796567 11.512477751002415
Sc 3.5175717338438997 6.2252177045491415 9.522691873636308
Sc 9.046190181538623 6.233266144128228 11.696041003122515
Sc 6.0379967354036825 7.54554250213387 8.892501571450017
Sc 9.180179795118358 7.561837593938129 9.024837744608837
Sc 5.1698904669592 7.519458040362431 5.720013571091891
Sc 11.588134890056711 6.250677925759576 9.915301138062306
Sc 7.742951302106195 5.912642191546865 6.472542219237396
Sc 7.8922270596057515 7.559091892502242 4.069371258075746
Sc 10.399104407162552 7.541211497267494 5.961560130865576
Sc 9.468894682938744 4.832813977108391 4.4798203437160335
Sc 6.230761099420816 4.836101375425922 4.338124982956835
Sc 10.23733071711008 4.809507450466029 7.53187359328709
Sc 7.761003504123042 3.075434194651494 6.582131472193632
Sc 5.202070707299394 4.811240850555122 7.377031894465602
Sc 7.638983700121091 4.687098034706881 9.362086778908525
