26
Energy = -130.12138342 eV
Sc 3.8820733191405083 10.412791284201953 9.128587132602737
Sc 5.32033808355449 7.974492570575106 10.073759315494812
Sc 3.7195926242319763 7.774110750385878 7.542269315054518
Sc 6.7239614966963535 5.293691125128898 10.423063655930335
Sc 8.18697657605106 7.8943961914516425 11.46352263782971
Sc 4.471915280935699 4.922431919120997 8.399336278037236
Sc 6.826515154661693 10.604759616643907 10.042482401650341
Sc 3.3146683205815033 5.39641611999252 5.5866453317884055
Sc 9.788828119525284 10.537643273389072 10.745946010958239
Sc 6.038702194102463 9.775889214012132 7.240986639134909
Sc 11.130215141155603 7.88499613250049 10.452787472814794
Sc 8.806279322982222 8.59655086534082 8.718909224460404
Sc 5.317283468646019 7.488549327550023 4.903931155244601
Sc 4.726204577353928 5.365433595004976 2.9173322414967506
Sc 6.053328846992983 4.466870797635565 5.390803758929886
Sc 7.240605101252831 3.5753584515044463 8.158073447421566
Sc 6.738234499338751 6.548037601519691 7.596678174819211
Sc 9.379596343696145 5.627076245425746 9.127832864204997
Sc 8.434447106917125 8.3516907117153 5.657853977839236
Sc 8.9341195674101 11.246768740189149 7.6461937238542435
Sc 11.628849088485513 10.110835213209935 8.446329943487923
Sc 7.63946440751583 6.207911088992924 3.4584962216677035
Sc 11.118570062026794 7.3718595769303965 7.120269456901464
Sc 9.115060572892947 5.307684525642593 6.008871941322055
Sc 10.669828668849663 7.2312932196351385 4.095208024931702
Sc 10.958442751667793 9.95612114805947 5.559276498054164
