26
Energy = -130.75922886 eV
Sc 10.25452536334773 5.756877581784786 9.794742048200174
Sc 9.048874387136832 8.129619585415291 11.550536727332275
Sc 7.945266094876566 8.069581851820399 8.818562174892266
Sc 8.624784397359614 10.700102657640858 9.888455817307388
Sc 7.281660390297355 5.570891135493354 10.702041413680504
Sc 8.180128020094482 5.326229749209951 7.896683367498634
Sc 8.521276681666027 3.0186004832801308 9.41518250545324
Sc 4.966150937826658 7.479137980909815 9.508250068040992
Sc 10.742020507673299 8.72412564030919 9.085192780801862
Sc 6.07287773205231 10.05036789793417 7.712352455039727
Sc 5.270842630589456 4.447570472813403 8.516474840170506
Sc 9.18185699912034 10.339423988348823 6.853486669331636
Sc 7.250542368519239 2.8667827732893594 6.636815355743902
Sc 2.953150066488789 6.175953178228225 7.184779236356051
Sc 10.297267120076022 7.076039293567083 6.5268127695692195
Sc 5.716033863708824 6.821223957381918 6.85182500501165
Sc 3.8760980920105297 9.003337638258419 5.795324810033631
Sc 10.146638055780866 3.690938656622118 6.903587582826486
Sc 8.031714702434027 5.401065329822542 4.945951489349155
Sc 6.352789482993331 10.391555975578065 4.565233362976193
Sc 4.892583184232929 4.625327762104872 5.298742047670772
Sc 7.719138096125 8.260015021676942 5.842141237851914
Sc 2.909165783785943 6.819660650182329 4.156040354991466
Sc 8.980961750742589 8.626048651750988 3.6259017009303656
Sc 5.796407611043283 7.451821518986543 3.7409251219657778
Sc 3.8268450695106457 9.460631930145436 2.8712649910604227
