21
Energy = -103.74920947 eV
Sc 3.5427716368659623 5.215867796621068 6.898902738083539
Sc 4.726770056995872 7.954248030633148 8.467079493037687
Sc 5.0619776653939805 5.1300700199507485 9.842346260450308
Sc 6.7914713337595 10.099372910581483 9.598946436517434
Sc 5.382899377940701 7.5823485023428745 5.297200606083467
Sc 5.520355719821152 4.686173205699011 4.517421397989963
Sc 5.325651946244469 10.708256061056348 6.635590534992859
Sc 5.274543243839245 7.895972716927975 11.346280439717496
Sc 7.987454488228285 6.6842186133732975 3.792079497176043
Sc 7.224850401943801 9.811268684807189 4.252106814018665
Sc 5.704651785903688 2.8349337345699985 7.03243337954865
Sc 6.163307802357271 5.460072166030279 7.316949136859601
Sc 7.505968499841441 7.068891251701615 9.591055785635128
Sc 9.852107402380875 8.844432338736187 5.260256640831795
Sc 8.55438347030402 11.373114615822976 6.664949463382658
Sc 7.322804481408935 9.025674044754545 7.116676287070593
Sc 8.243835852656447 3.9594637001467983 5.445102346819787
Sc 8.480786092752211 6.644473030008017 6.662784993988452
Sc 8.639868540802857 4.249597042518067 8.357833150655242
Sc 9.927215526110672 8.73292859884677 8.277978755223613
Sc 10.83349450805995 5.766811905623472 6.103248482847953
