27
Energy = -135.28426637 eV
Sc 10.32877794033339 4.3827878898703485 8.162794017387482
Sc 8.808761181277948 6.780313011535029 10.083597700364212
Sc 10.458460593399108 3.1413897510257534 5.2560797507274115
Sc 8.186091579786893 5.928654801322662 7.16491045142912
Sc 7.678483628512219 3.0413628496717915 6.779432171890677
Sc 7.521334878656729 4.152446456947205 9.600807215936033
Sc 7.482520155495507 9.173626560384488 11.582393894718248
Sc 5.232378892539226 5.309336208793378 7.776652699469674
Sc 10.593680513424028 6.088588206795673 5.334079570775249
Sc 10.753011598611549 7.4946937213359615 8.079809092603599
Sc 10.640191178772298 4.808236940126217 2.697621877292089
Sc 8.147981082389006 4.529517279793389 4.1836903876140905
Sc 5.832895648368442 6.578854791573804 10.602961870413274
Sc 5.206708090089639 4.0474377521896105 5.036166592525329
Sc 8.831418372617351 9.778427626440763 8.988977889618821
Sc 8.807486330245371 8.784726852400913 5.97047312200742
Sc 6.436020305122692 8.243046374151739 8.059366644367374
Sc 8.701420632807148 7.332984654180504 3.24804464183365
Sc 6.216607659682073 6.933554300995043 5.1445681685884646
Sc 4.868387684564996 9.37734985849057 10.360264138691083
Sc 3.364318021376354 7.795012275938443 8.37820833220394
Sc 6.612430858812928 11.648622772127634 9.916413839632176
Sc 3.2771893726643806 6.311447551146213 5.682419198697625
Sc 6.6952089067711045 10.988591484998592 6.856561832228186
Sc 4.290434490443239 9.277616279691996 5.89847161705282
Sc 6.692552499035306 9.698964495197815 3.9878479108428753
Sc 4.011334863572671 11.078023176455517 8.231919804603912
