27
Energy = -136.11187007 eV
Sc 9.841114053573973 9.773581616188883 9.851685751167318
Sc 9.578502834120336 12.103078277456516 7.7762846771762675
Sc 8.617228676185437 7.169672478633592 10.842880077300153
Sc 6.7705819315155535 9.453698513610677 9.160897601366932
Sc 11.637067384351505 9.939006554339418 7.220228865443423
Sc 5.756052148316245 7.8690553292843175 11.688697571883976
Sc 10.534633350762903 7.095719797379672 8.354324537752142
Sc 6.246544424657539 5.0613827531709985 10.582392512605994
Sc 9.219698136391226 4.464583257071755 9.395619874433123
Sc 8.866665149114061 9.340592739591893 7.118562542900886
Sc 9.79349257193911 10.865895393905774 4.914798720930833
Sc 7.0054619911855545 11.459568188402264 6.323390132318705
Sc 7.488521022198851 6.510900009934161 8.292115465685232
Sc 3.5248221007494425 5.8088956844792055 11.524653734922312
Sc 7.151362733877146 9.626145432396411 3.893092166752977
Sc 5.1546193891434475 9.036130015177033 6.312607420460142
Sc 4.46240415537259 7.324593102989177 9.180773192441576
Sc 10.512850245499559 7.80577839886913 5.200933155591962
Sc 9.353726028260994 5.087893080871487 6.2871989803770765
Sc 6.671650366093121 3.668015072985961 7.516195177237058
Sc 5.270378599399824 6.924181123697607 3.6082398864693794
Sc 3.903755748909603 4.3587982711567435 8.748624477649471
Sc 7.432157580196551 7.327636112502471 5.4826441070177
Sc 4.953454700687689 6.005839062274067 6.499437562270999
Sc 8.40322605866463 6.757412967740293 2.987084571969917
Sc 6.819063568662771 4.511874732871143 4.594845495305452
Sc 4.155682920286289 3.477444375632417 5.590303312724861
