22
Energy = -107.92658374 eV
Sc 9.113712427460973 4.222379820380545 9.328909546381402
Sc 9.31056167659819 2.380965269346493 6.973116955240821
Sc 9.20840596247478 7.372232074063759 9.237663762120235
Sc 6.577532642471961 5.908397533914734 10.077165193352137
Sc 6.757690131649502 3.8141806823196482 7.700022765986938
Sc 9.627203749683463 5.367540957704839 6.74716792804044
Sc 6.982909365055723 6.984164287223307 7.259247872773085
Sc 9.072874976983961 10.436737532669778 8.553464601275053
Sc 3.9094355184140723 7.435930472108882 10.381795306259823
Sc 7.696646661473079 3.9510835134445776 4.837180959982412
Sc 4.253749126535029 5.516400685832261 8.106916552108997
Sc 5.922908235484818 6.6340621839407445 4.506582659872837
Sc 9.112338581812182 11.445732622334269 5.6668610653113625
Sc 9.54397543407085 8.585464065396483 6.352622389048152
Sc 6.544023160809312 8.871213538723296 9.638568551193117
Sc 4.714003990478167 4.08849841178266 5.460842165841712
Sc 8.991824326421213 6.555036968683979 4.105202313787716
Sc 4.2726746846289005 8.555898182623638 7.600242143788141
Sc 3.116248544503261 6.71781794645772 5.565005761878189
Sc 6.706039183057356 10.19932265623517 6.845984837486263
Sc 4.600149165800581 9.291874328150982 4.676338350729586
Sc 7.579107189951319 9.260675361653357 4.138250853927493
