28
Energy = -141.7669329 eV
Sc 6.729163433866903 9.031427956789809 3.731917007503899
Sc 7.7344714287817204 6.306962760993719 2.7115727792040505
Sc 4.019215526599519 9.384513149453301 5.027942332548905
Sc 9.765203026217488 4.944632361407326 4.314131508350661
Sc 5.70685925154745 11.758295913873791 5.100593726589144
Sc 9.633201130957142 8.116424904711975 4.5104367541952755
Sc 8.696874499183084 11.119366253281687 4.861582619909176
Sc 6.780899598398933 9.176413285444967 6.755598939536706
Sc 4.927051661303372 6.47935729597589 3.9857253963563206
Sc 7.539044652352997 6.427995675029973 5.745965642624996
Sc 4.6761382168561045 10.508832244694997 7.885969968702187
Sc 8.165194924089299 7.258835654844078 8.868298846917458
Sc 7.533434621879475 12.072463956442643 7.415329310748207
Sc 7.3980598098744395 10.172183288136717 9.580908878378361
Sc 10.344191311672223 6.259044578586354 7.064966673223114
Sc 9.618778743868171 9.477112755492723 7.279543222245669
Sc 9.23601680051019 4.680925505087243 9.639079157793422
Sc 5.403774905320547 7.828843350050695 9.547469984191094
Sc 8.837069993738139 3.504766611926619 6.8767517623061485
Sc 4.4838649212935335 7.131109855454915 6.873131117197883
Sc 6.323979596605327 4.822635528395726 8.069839165692889
Sc 6.257326891308998 4.910136386654298 10.911952028157225
Sc 6.677198160259865 3.898650816551133 4.476524065611157
Sc 7.466459388533695 2.35196187683361 9.529036473767773
Sc 3.511892719862517 5.434474840375174 9.15873681160573
Sc 6.120241179100877 1.929939875625083 6.847576416853322
Sc 4.045984628019131 4.079856739087159 6.265928243739035
Sc 4.5149261640852085 2.7150899012068868 9.297161954866644
