21
Energy = -102.58114683 eV
Sc 11.222793633166665 6.6277141567391915 9.40603269987661
Sc 10.193446531763906 6.657575319128754 6.523484550025454
Sc 9.091258028251065 6.559707344278464 3.532077486635785
Sc 9.797356939801631 9.105870806462146 8.322204014188006
Sc 8.839150555954797 9.12448315382056 5.409449758686797
Sc 8.493310749578429 11.613721688913545 7.157998280262092
Sc 8.415377494298376 7.319310537828777 10.43203907866771
Sc 8.899524478825718 4.848141267734859 8.632882654884085
Sc 7.910111637367736 4.832124886303566 5.577742742628312
Sc 6.682195969819502 4.917601922502836 2.8365508876074923
Sc 7.276294610844695 7.352674173870376 7.48935837049508
Sc 6.482048690469852 5.021568378996531 10.36664950507499
Sc 6.196388653208911 3.5906404727071215 7.7432085471916805
Sc 4.900306419970309 5.059834151801932 5.311034773996869
Sc 6.97564059218039 9.953383245558314 9.251079758444398
Sc 6.447898478119198 7.487398171584764 4.3726329464862
Sc 5.406144362454509 7.768276594749718 10.72085836953789
Sc 6.049707207679296 10.047531879913167 6.299085393356447
Sc 3.813162832491325 7.937557526139767 5.796158550124669
Sc 4.645771284413826 6.199738544881917 8.186459625344877
Sc 4.1663243081033965 9.24300436452823 8.46467666230746
