29
Energy = -144.63671466 eV
Sc 8.411700102912311 8.891332489815591 4.01429737057071
Sc 8.562513727927973 5.6727536113495844 4.160185278372446
Sc 5.758462380052066 7.023725708181106 4.192433065992762
Sc 5.273838194851598 9.70915497982999 5.438242514513239
Sc 10.357869850193245 7.558377180993349 5.7494971452025245
Sc 7.993277716009591 10.179005656997509 6.516794880328343
Sc 3.3734406553898717 5.263546894579498 3.808727842881531
Sc 8.959084657759988 2.482689344019401 4.635901757088448
Sc 6.073972966791265 4.005367872863761 4.153997003794968
Sc 3.043923621239987 7.695443431059905 5.54674461818104
Sc 10.838778187998162 4.492484911029639 5.563160570680538
Sc 2.90077777029852 10.487834253116574 7.3106963147699275
Sc 7.511726404487005 7.237965227387071 6.947152583873152
Sc 10.714691039336094 10.650207048363422 5.864903957627462
Sc 4.729924982595216 5.393186533930909 6.446462458626581
Sc 5.670158188866154 11.533482112044881 7.807454156945718
Sc 7.834086575490121 4.174581835560133 6.807408089087613
Sc 4.822375049832061 8.335903494498721 8.13254911807614
Sc 10.154259265522326 2.4753726677463472 7.525275178210016
Sc 9.236044430566539 11.867012907955607 8.41637020811086
Sc 10.202784815869833 5.625055919700592 8.192247584183145
Sc 10.166602329246764 9.01233285249638 8.349893759131188
Sc 7.254481667075581 9.651472268690483 9.450583398850231
Sc 5.951656076925701 5.435015202770778 9.286329830317765
Sc 4.234637262832866 10.528090728573622 10.118481822691185
Sc 8.320365182843696 6.915318510764662 10.2451662520852
Sc 8.41580953481762 3.87133373073409 9.855604735522215
Sc 5.556125332456744 7.712497656685325 11.189768287750397
Sc 6.825024162133366 5.147820507315065 12.094746891121996
