29
Energy = -144.75801384 eV
Sc 8.639857232204738 11.044761554149268 7.748157546676197
Sc 7.280305843038438 12.125859858818398 4.84949402944189
Sc 9.897394703999446 10.695077513354914 5.080962665964189
Sc 7.09198974363593 9.42254127811057 5.859258648233516
Sc 8.546310378118573 8.566996377178741 9.734682946814292
Sc 7.938396819344587 9.479268661917525 3.081265304274235
Sc 10.032826382054031 5.869960116568343 8.927911542926914
Sc 5.952667377502176 9.675860275698238 8.793780992395765
Sc 10.683294641595033 8.02572720407791 3.820990150282465
Sc 9.78545439305262 8.21681235479908 6.870838657777701
Sc 5.093313106610041 10.329405582031042 3.748225073224852
Sc 10.932837070516127 5.645374369359955 5.7946272515161175
Sc 6.0127525985414465 8.005106958015835 11.531212312490723
Sc 7.367028614528272 5.938964768958405 10.062835895619303
Sc 6.747474100474358 6.939961769831371 7.3083129346661835
Sc 8.507438258717805 4.416134071596281 7.006951469206787
Sc 4.301789405935181 7.058721913043317 9.263853655132257
Sc 4.082948445556715 8.740654151927062 6.493530096118522
Sc 5.498688782233387 7.4037325110366385 4.170196636723261
Sc 8.35858701839476 6.562396713775114 4.566901010650609
Sc 8.02986107094235 3.0717621372924526 9.618056815897488
Sc 1.5986616356697894 7.185635298833759 7.794057335759774
Sc 5.040643843969365 4.688310670107588 11.037835332800226
Sc 5.57667757375145 3.8223850725501713 8.170438085798944
Sc 7.53204545127815 1.7927492364811919 6.609175535826997
Sc 9.078295888651958 3.469184668134224 4.335765208530443
Sc 3.8898802847604377 5.769846653853251 6.570943990478129
Sc 6.28574966118916 4.123043958051593 5.078114112196733
Sc 2.5416199937164086 4.634785184870074 9.062594741473116
