26
Energy = -131.17246879 eV
Sc 10.991408605389392 10.052969260334773 6.84672511345946
Sc 10.891067227803315 7.473092478434617 5.191332778293677
Sc 10.520643470412503 6.809366758647701 8.177582321920056
Sc 9.277886283040388 9.950657458436282 4.4311013246255815
Sc 9.876381724636076 9.527181376606098 9.507425944839571
Sc 8.108526222415318 11.179107119165161 7.299618008704286
Sc 8.368750919742412 8.49904554791415 6.822458399727191
Sc 8.538158614647427 6.715595748439274 10.616438896286116
Sc 8.100534067707391 7.0609539838254385 4.155508348924638
Sc 9.496192730437665 4.852059541258886 6.094071217316093
Sc 7.133543053378591 9.177933477109992 9.578399026102002
Sc 6.173154242988317 9.338578336494395 4.708441923831941
Sc 9.312009535739547 4.03007666916181 9.09594049718473
Sc 7.3444013839510704 5.94081028881299 7.983693127542211
Sc 6.925140060994399 4.441010903837138 4.687770056054954
Sc 5.053670178594319 9.283765821584566 7.535081337066477
Sc 6.571336105577773 4.243890963503567 10.294651849774352
Sc 5.19137616438773 6.6445337708608125 6.027600992566728
Sc 5.178375044384214 6.996693314104401 9.86935882984054
Sc 6.842153265811658 3.0494429787098247 7.360466963492994
Sc 3.131640285821882 8.57491017049889 5.18420204326598
Sc 4.351547572697122 3.599430574551296 5.250611442421357
Sc 4.671490028240378 6.2553655609998104 3.368558269250309
Sc 2.7688560934217006 7.36775222618466 7.956001260695774
Sc 4.270351823850129 4.673477869200137 8.15331816569649
Sc 2.3437629709367056 5.722592810392469 5.401775302111279
