29
Energy = -145.19093062 eV
Sc 12.954236394918876 6.74691305784828 9.251954665712429
Sc 10.521309702227237 5.325603718382092 8.812168899506624
Sc 11.095305898553425 8.410055494849965 7.951350926289569
Sc 11.874235942169168 6.239832206415427 6.1713524759628955
Sc 10.100718643493646 7.806896689896204 10.52505320471656
Sc 7.829534254787061 3.9414512873289884 8.35648321326322
Sc 8.447896814374547 9.447279445995656 8.476614029405518
Sc 10.534386745236551 8.932930726690433 5.021319212131574
Sc 9.622020864679564 3.7878672557546422 6.042299968831556
Sc 7.358774412532792 6.727448520057479 9.41816405239512
Sc 8.90278581655873 6.601373821872573 6.778791131786915
Sc 6.329183998313438 2.1236579320485167 6.644338944994933
Sc 9.23997823727214 6.491631804545709 3.8851976682678813
Sc 6.540241773039548 9.291485420274409 10.90864711597349
Sc 8.489259181014205 9.207607100459912 2.7344343094408425
Sc 5.0218906387099045 4.495293035141917 8.299178068158584
Sc 3.637105374323398 10.267568803291741 10.410371157873984
Sc 5.575325871262666 10.047071965287738 8.150426319524254
Sc 7.555836262505785 8.90082388296832 5.529278584554355
Sc 4.328929039258484 7.462665435269284 9.802175829669393
Sc 5.478906073810326 7.238612101367821 6.948398122817641
Sc 6.342204420249505 7.177266522556967 3.5047087232351037
Sc 6.736912399018634 4.81032058838507 5.455606995933441
Sc 3.9439103819132786 3.7263447874665316 5.686584398951158
Sc 2.87459987625849 8.996848884248037 7.61840956496849
Sc 4.426279183574178 9.328447789805299 4.9304191652980185
Sc 2.5478867906528593 6.0545031822520645 7.258680285295094
Sc 3.7497217043952276 6.414820478744282 4.537631788720897
Sc 1.5025838716377262 8.13735962477765 5.158728536326275
