23
Energy = -114.4993771 eV
Sc 10.615658036768984 4.704873693370168 9.329370889905189
Sc 11.014143715031487 5.826233064722285 6.453749669681254
Sc 11.508369539259427 7.6760858869979645 8.906776406319125
Sc 9.350103902530439 7.063882779293245 11.058848053685791
Sc 10.089038713598306 8.892842042575273 6.220244578681556
Sc 8.877772583673224 6.649168501838919 8.288683304120427
Sc 7.508508757452147 11.051150490511075 6.727075177726795
Sc 8.283326713199033 4.133034553752529 6.849540805765547
Sc 8.99168148502593 9.523318044399604 9.11665012254293
Sc 7.903698401516998 9.554572583015181 4.022790943071644
Sc 7.267284218065122 8.269789748495384 6.472890467322153
Sc 5.87392460896064 4.767871712459646 4.899975800425776
Sc 5.162770873420774 10.541424672597977 4.952978944842474
Sc 7.099680922613173 4.847868801056397 9.993573186277565
Sc 4.572384938820171 8.926216991570751 7.495123312438435
Sc 8.533495942817364 6.41314831847678 4.640483485385184
Sc 4.709612124060872 3.528204104410053 7.5179796622264705
Sc 6.509139728353925 7.842338804860284 9.91574242278874
Sc 5.288107165451865 7.687254791465016 4.277387053636867
Sc 3.9326244003735935 6.007862009195555 9.319518107521999
Sc 2.6386886108725087 8.973679806089695 5.193616120028136
Sc 6.0121225229525646 5.953317552707243 7.545657301585796
Sc 3.4806229089373955 6.169154912163589 6.234218877038877
