21
Energy = -104.24803546 eV
Sc 8.774976538199862 3.652303073058022 7.559505941399224
Sc 8.045327026289087 3.9015307065501736 4.379193640931177
Sc 10.637690340502791 5.206018837915079 5.505134503117402
Sc 5.29328605962925 4.632902418686624 5.746736359270133
Sc 7.93996127200805 5.870801263599211 9.753244038930266
Sc 10.427525701680912 6.246949392984697 8.247352783691072
Sc 8.97203230063943 6.671088267688869 3.4696227960810417
Sc 5.892097035446142 4.297430949568462 8.605779800187289
Sc 6.056581033281644 6.113515134223109 3.4139805706539015
Sc 7.947785285413474 6.135666640080824 6.300597471442283
Sc 9.853352992248846 8.378835910015455 5.9695143724647615
Sc 5.854968534050927 7.626061828876001 7.599593031487824
Sc 3.90330221473536 7.437628945106039 5.373211427139974
Sc 3.3939082286397024 5.6694684492681935 7.934989360440969
Sc 6.840027644522095 8.69592448959379 4.6865739890131
Sc 8.557487634110037 8.59792424228124 8.81385544869469
Sc 5.0334504058118785 6.9084768914697925 10.30308002848485
Sc 7.654932489017333 10.519040619676563 6.907222714218461
Sc 3.1571788811894748 8.56570554962836 8.385876006200604
Sc 4.741138356942086 10.260854643705013 6.496012496674012
Sc 5.768003557067312 9.964271592474702 9.372484194884489
