28
Energy = -139.04516917 eV
Sc 3.9580024996028103 8.959017011124915 11.064157767102342
Sc 6.364560960326319 6.74708809778466 11.452841026353608
Sc 8.608763684588734 4.694931126618286 11.696065600717882
Sc 6.883029961679476 4.6817547587147414 9.295041241195236
Sc 4.554077594808798 6.872135272233353 8.858967176249527
Sc 2.2699975061281052 8.982420178369118 8.64979610726041
Sc 4.9626365580803915 4.779071520041499 6.486447727955339
Sc 2.7784295167630715 6.832381498010908 6.225110700610617
Sc 3.2946124261763137 4.792641238762077 4.03935566708089
Sc 4.210785450306473 11.190078355510135 9.140857310709258
Sc 9.841939515581355 4.273619833115876 8.976590045519774
Sc 6.54341966019716 9.170850732803379 9.389052247606202
Sc 8.86389817934957 6.955124988062534 9.801412532306848
Sc 8.132462469786638 4.167518041204927 6.384719743250832
Sc 11.189337432155195 3.7392617403786463 6.062254611401872
Sc 6.88572479044105 11.501508437299593 7.262668846622803
Sc 4.793109248246683 9.180175881734593 6.8676260527468465
Sc 5.203408247391643 7.032074446141616 4.444176892857063
Sc 6.284549123727015 4.337393028497491 3.8459248535375643
Sc 7.10456221992794 7.097699863757525 7.110113969543884
Sc 10.197006022582329 6.5246211517017265 6.817910845809875
Sc 9.446045088547681 3.761711249857191 3.656474926782729
Sc 8.375511291460882 6.589499702981939 4.236836217494426
Sc 9.1373513921815 9.531052367573022 7.494837060131044
Sc 9.353071647226427 11.726332658758592 5.52065698721965
Sc 11.415537303668167 5.9336272252204125 4.121905716783061
Sc 7.389360001890914 9.574668194904556 4.984869259833437
Sc 10.312700548831709 8.9268336941129 4.83930721830202
