26
Energy = -131.54025484 eV
Sc 6.134405303925975 3.66369617709482 4.406679621066508
Sc 4.119346025399707 5.668245092307483 5.217603613075963
Sc 8.133012709385907 3.0813708773360675 6.600284082793667
Sc 5.415750118190323 4.019813948189002 7.639815729784169
Sc 6.549154826821116 6.711400619369309 3.3153584633725477
Sc 8.903425759878681 4.712495897321148 4.20286312627522
Sc 5.329772290764083 5.51573070088012 10.502341325677973
Sc 4.534847183814012 6.996061024445734 7.995584222112161
Sc 6.956829749999584 6.075473737400262 6.112237535090996
Sc 7.972547816680037 4.172320011387718 9.5734150843815
Sc 9.80079885532574 5.545147690142511 7.193055418668675
Sc 5.012951903302654 8.603591619870942 5.282098878187451
Sc 7.4182915118135915 9.828776464204848 3.920935273427414
Sc 7.820124220370326 6.395094014297523 11.909410441206932
Sc 10.261790802205697 6.257618940553081 10.167626505921897
Sc 7.581591366323897 7.059135502561134 9.022362212871405
Sc 9.29792998269204 7.687009083938131 4.887345659322183
Sc 5.735804142725163 8.574332660278422 10.751056156484795
Sc 4.79101141658606 9.952925887248135 8.04254379958402
Sc 7.543427899682956 9.13571342813896 6.9313261480567165
Sc 9.086115005951868 9.078113000369667 10.710760070669487
Sc 10.361661996552007 8.49588661977117 7.925824964703581
Sc 7.1516316947220355 10.887968250247445 9.34618065650252
Sc 9.64695500685281 10.784785703723927 5.608033904837534
Sc 6.883834720128194 11.777802897997931 6.446793043681211
Sc 9.761658048955146 11.426189388166012 8.468525317749453
