27
Energy = -134.31663603 eV
Sc 2.69730081295969 8.328822084704159 10.792386126950433
Sc 4.933227050315354 9.354733279078827 9.170063816217422
Sc 7.83155238961348 10.420413505663975 7.634090411662174
Sc 10.639976732111478 9.661346570607458 9.090974422062834
Sc 5.5841646014958375 7.527870593999125 11.574279595829145
Sc 8.025438577952903 8.434644254131106 9.871370123463823
Sc 8.77206090261305 6.738121831091079 12.135259457023865
Sc 2.552509597396211 8.346761182381071 7.776365058955006
Sc 9.942746706263428 10.239859662371291 5.2806476281663395
Sc 4.6757835686413705 9.498026862674282 6.036729330609175
Sc 9.510302079926586 8.000224522974058 7.11423743426243
Sc 4.133265098904165 6.31953120081256 9.1848942867107
Sc 6.513102688817979 7.28960248874801 7.470765218251351
Sc 10.07954812311546 6.180818468579528 9.463988869869358
Sc 7.38812310496753 8.858643986116736 5.182597303940705
Sc 7.199955267414059 5.4933657033622 9.851389803578831
Sc 8.027914190153659 9.31095965931665 2.442510337715616
Sc 4.069569852568144 6.447481717848219 5.942743597840407
Sc 9.591581562256 7.183701036137973 4.104849117858042
Sc 5.335025334282512 7.849979748686275 3.2864813323382016
Sc 5.902850423085168 4.089684985296112 7.452476353421063
Sc 8.729403307639277 5.1116561480705744 6.803377646294687
Sc 8.496807835661526 2.939861166873902 8.682527399832946
Sc 6.816644225046347 5.5940931673567285 4.6766492169472516
Sc 7.721365243446244 6.303750000498344 1.993634869279892
Sc 7.64094593671653 2.6013573954907216 5.616941272334683
Sc 9.446180576086126 4.264432373863134 3.8114827914508016
