24
Energy = -119.99605679 eV
Sc 5.184081180974915 6.651188523558389 8.301071650357823
Sc 4.001211067329059 4.051964878653379 7.570663478717916
Sc 4.4687983442949 4.364738746622474 4.760856238442063
Sc 9.358090094220248 9.459987473099734 9.07413824151795
Sc 3.618215037208106 9.133651724976533 8.049553144424284
Sc 8.092166557259642 6.816831083322751 8.810164193145466
Sc 5.816352859715793 2.1308567317463174 6.204201808853967
Sc 8.019050426435632 11.690738253090156 7.633576871238664
Sc 6.757228143432222 9.024541083886806 7.120145236495487
Sc 4.093968319750969 9.430498888428282 5.24166791866474
Sc 6.73366422764375 3.5456813539324457 9.088128043173988
Sc 7.565842155520273 4.104486764381212 4.137474307356483
Sc 5.741651172577715 7.0038902895658355 5.026900960432785
Sc 10.218718394173704 4.703021178176864 5.7637125355665635
Sc 7.109940898082457 10.265371483153357 4.734997277915965
Sc 2.9791629725395703 6.6838518728398215 6.224465575780831
Sc 8.642925650743509 7.179450395645571 5.534479828932034
Sc 5.11338232162801 11.525803490363778 7.100977375510886
Sc 8.728533730862289 2.3038502589096903 6.7041529032809475
Sc 10.853483901336986 7.142583081556047 7.611903149702262
Sc 7.074622468332165 4.799805960383547 6.70949260049446
Sc 6.262759781949802 9.733388560192562 9.688129477574776
Sc 9.745770043559007 4.389179614085737 8.571525908208095
Sc 9.839037898139718 9.767524930430625 6.269030167943499
