27
Energy = -136.39400797 eV
Sc 9.078561690188305 6.168171662875221 2.7097383637546257
Sc 6.3113677745120045 7.3766072903493685 3.2943471986947137
Sc 6.920721621236586 4.555684832710505 4.4771487030436194
Sc 8.968520173543109 9.105923745031848 3.4500338243048203
Sc 10.270535451015103 4.57911414132213 4.926076547803061
Sc 3.7278722123943617 5.990229333379144 4.713345886367824
Sc 11.155785162305385 7.462119137818956 4.626308215806952
Sc 8.39954135872926 3.907597347256482 7.188632915099437
Sc 4.048378597835666 9.144262743562946 4.227959184342225
Sc 8.332856040811901 6.911476788138316 5.5350657097836535
Sc 5.412424713629201 4.4694060345336 7.22628176116876
Sc 6.85227752029543 9.982432723208325 5.404415100875367
Sc 2.8512931730767925 5.767153799166403 7.818770342226636
Sc 2.3097814125258624 8.292712757078348 6.46606353314352
Sc 5.313306204131454 7.565693269415474 6.540934656206377
Sc 6.93078045544364 3.596552995883865 9.851067386275618
Sc 9.596701585405562 9.275324461965432 6.76859994295753
Sc 10.650543623568879 6.434128485931795 7.484772706189753
Sc 9.773699210630534 4.826141003489368 9.890786722126832
Sc 4.300661551800067 10.497689598543694 7.0132456821246905
Sc 7.478450600893287 6.446819357403676 8.64625319903945
Sc 4.943677268422383 5.813560685300128 10.178350298124203
Sc 6.9506990807035995 9.554735185742553 8.41211416611955
Sc 3.921899527701633 8.380856647652795 9.095189673588768
Sc 9.442363737474228 8.015031057602277 10.073236451444336
Sc 7.6525113089728345 5.878184434708921 11.68547528014956
Sc 6.377142201882991 8.428771052458071 11.050410484010529
