23
Energy = -114.74820315 eV
Sc 12.51154877443211 5.9583427591303035 7.826207820089018
Sc 5.588151700512252 8.634625109002569 6.532509677657155
Sc 6.311105993132916 9.2938006531956 11.398212741994652
Sc 10.203356886706866 5.358868676022206 10.39510753035067
Sc 9.373942738674053 12.917814998037507 7.532733769279473
Sc 8.092043449520691 6.646555093769512 9.12178363872733
Sc 7.28572962484814 6.359921166540153 11.853869130437928
Sc 6.344932448131758 5.613733605977923 7.034689352940412
Sc 10.351000963931114 10.727958647060852 9.069373689385637
Sc 9.313874138156494 10.37068149743256 6.096099630767721
Sc 12.037270996038515 11.293260567494116 6.740672613845775
Sc 9.54093658796839 4.871135674717822 7.4368634497657
Sc 5.261896510743955 7.282709044277343 9.397094087006218
Sc 7.525284590510749 11.920912565333825 9.895826792445785
Sc 9.298746819325036 8.644946482681975 11.152585194168038
Sc 4.8216547511558066 10.461165428988895 9.049936382796878
Sc 8.512633489101695 7.453514088856475 6.053414215949497
Sc 7.488095547102069 9.403081461070785 8.57695624326632
Sc 7.331822280052367 4.104448095824403 9.702927101974446
Sc 6.6150393942687975 11.70204509649964 6.962809214347861
Sc 13.037675768257076 8.940179158793221 8.612747721413184
Sc 11.69961204721131 8.329778081486579 5.965169434559732
Sc 10.472534932835707 7.749096320176535 8.451977285207665
