35
Energy = -180.70740202 eV
Sc 8.261742118541335 4.598745807748806 11.377215250583788
Sc 10.594071412526459 4.970444812486721 9.453248882153094
Sc 5.649995649752607 7.363372599337323 11.504765737549707
Sc 8.291321365687397 7.234396067153104 10.171493247002886
Sc 11.2243444075905 7.672251663031496 10.407214607081539
Sc 8.457361276450595 3.1729157446546092 8.446507823097807
Sc 3.674344862352363 9.409462208357255 9.804611437413557
Sc 6.763047692157193 10.100708639314702 10.423463091728273
Sc 10.82521494287939 4.12296810688025 6.620541070608373
Sc 9.600876297717496 9.784049103959788 11.555245146064706
Sc 6.114730249039817 5.072005973793373 9.272598803771118
Sc 8.702833584891046 6.012027468838461 7.436858864801104
Sc 11.450389896821342 7.247501332852951 7.451417727401768
Sc 3.3123742915941805 6.328814455458631 9.787034227433018
Sc 5.702300021577725 8.013750927221308 8.546468046580037
Sc 9.206844136302431 9.33121000674015 8.335663675288435
Sc 11.667848790955645 10.40187429219214 8.973792733578838
Sc 3.2847410145471416 4.839837184430714 7.0321596144635885
Sc 5.630880880341533 3.012608737095051 7.0731352580232985
Sc 9.116249890945554 12.070978106589846 9.719638184487936
Sc 2.8664108469840985 7.744851443397489 7.318278089350166
Sc 5.8324710984466455 6.0317679957737385 6.336735780133534
Sc 4.796224877168343 9.743047516652554 6.183709483518655
Sc 7.924849343171011 3.985330817414153 5.301151193728267
Sc 7.6561834773095185 8.4926155799535 5.663950720215532
Sc 9.855703912540891 6.495707876192267 4.707753316665225
Sc 7.013921116640204 11.295379542575468 7.591972575815734
Sc 10.503189983009351 9.511357893905284 5.442864721051082
Sc 9.927192951351653 12.022432017366933 6.913672800130101
Sc 4.731133051141884 4.169748132361308 4.395319149072058
Sc 3.90704448097293 7.217173816993239 4.525528109136314
Sc 6.870672697741615 6.3856600422027645 3.472522692004393
Sc 8.803004303646249 8.916219959095478 2.9179030295505983
Sc 5.895095064449703 9.313403625753505 3.3266152152525463
Sc 7.884471019148073 11.248193129478723 4.670703159485054
