30
Energy = -152.38161699 eV
Sc 9.457213665748169 6.467668045637425 5.018877446100834
Sc 6.813071894144981 5.060003273168378 4.4768959803188695
Sc 6.92459265039105 8.109077511779097 4.057836608033111
Sc 11.365032597666762 5.327710970191342 6.899834643940982
Sc 9.672403487592367 9.521912913462584 4.279351061767263
Sc 3.8497376088144897 6.753474560011321 3.784724821581005
Sc 9.31754684475485 3.4731644045305363 5.549985927279817
Sc 6.693834833632907 2.8649961900099545 6.7380398290967225
Sc 4.216340779951587 3.989898763669814 5.2003504663620115
Sc 5.160212938050573 7.0678634446361635 6.348344718354119
Sc 8.382700734897476 8.710373473177974 6.964423651205419
Sc 11.360011759421656 8.482552700564257 6.676790875227059
Sc 4.455502236489982 9.825841593581787 4.106207876368922
Sc 7.138589442643204 10.966036039744319 5.328931124596655
Sc 9.971175517555158 11.335650767420509 6.610148073833943
Sc 2.395605089903952 8.618216955319301 5.835110581101467
Sc 2.290631602526271 5.7915133676351545 6.451055367196038
Sc 9.569858436899645 3.5173596304999095 8.532176903228466
Sc 4.542238409492623 4.553466844370047 8.116010989739916
Sc 4.763061327744822 10.151113064257965 7.031621435405541
Sc 7.744138521020673 5.599521029115497 7.5679352790377
Sc 6.8605998501307575 3.1335396193781575 9.717166087148565
Sc 7.519327301883293 11.289627722007644 8.469919057482095
Sc 10.190471259648602 9.856650669787214 9.198447901147938
Sc 10.230733598122308 6.776407118685107 9.108954737049613
Sc 3.4168233344038685 7.502686283166643 8.696322687448589
Sc 6.142607667062654 8.670555992995187 9.05824307112283
Sc 8.834602788970281 4.958451320924744 11.10158997566535
Sc 6.204010510015742 5.992016829685132 10.207259239514352
Sc 8.328229624850215 8.116569397432913 10.834707043173866
