36
Energy = -186.24172179 eV
Sc 5.166518061806831 7.490297459170016 12.14627342402101
Sc 3.8821221645979325 9.680076838741732 10.197109791576773
Sc 8.903227015403559 8.334004507621502 7.485298979403158
Sc 3.3306814578551696 5.76087898362872 6.043154605114216
Sc 6.616018565544108 12.035813691279541 6.537982980557288
Sc 8.338632766314015 6.462683915540948 4.90183507526591
Sc 6.9437789840190565 7.115081695244041 9.73466142219177
Sc 5.600975863339601 6.933182149928922 3.657737801390345
Sc 4.451396309997391 9.705701606981059 5.167019292763192
Sc 10.285552858849494 3.4970794103443126 7.842634115144829
Sc 11.468978831780804 9.007741072468482 7.908292586638462
Sc 10.590183096258869 8.567060927891381 4.751883031518605
Sc 10.295877941246681 6.129185575622839 9.439521824426551
Sc 2.8457425631296753 8.578817233597327 7.436556460713621
Sc 11.114818157917693 6.035448960393929 6.319695637104293
Sc 6.030615556055321 9.64562520560819 8.155412744699708
Sc 10.575119818612261 5.856177500826444 3.1225249262122277
Sc 9.659279176901574 11.070213893474634 6.140756894266748
Sc 5.131130724954529 4.026836706085778 8.208485758199455
Sc 3.677897150231785 11.460223706200585 7.576472996985345
Sc 7.808697817336643 5.230051546214288 7.5789735091289785
Sc 8.412199108592018 7.9519236618933515 2.3907414001403193
Sc 3.9090193274876857 6.581548716712416 9.369824674156472
Sc 7.4147784291225785 9.434779707429943 5.014431811275049
Sc 6.035292121686032 4.2103276195959 5.188835296614143
Sc 7.553475049751077 2.3161044674890254 7.270584537871253
Sc 8.170403175208731 6.4003377661753795 12.08365512761095
Sc 7.724670358637197 4.932258036633241 2.4606028901624333
Sc 9.243171519717968 3.568156497416358 4.911614733661394
Sc 8.178958768674482 3.738978777519725 10.044485808982964
Sc 9.606430043033045 8.759725223058542 10.479642868237327
Sc 6.90155661341704 9.841824220020005 11.190188742318798
Sc 5.662187442608946 4.803644122568479 11.174764996013813
Sc 5.739212321145711 12.210519032540782 9.592995232657396
Sc 5.541282971542112 7.145101997837461 6.657109887637276
Sc 8.621457670533825 11.139894426822643 8.92249341312805
