38
Energy = -196.25185297 eV
Sc 12.34968192861454 6.076341824031253 4.432350196129349
Sc 11.492108593375402 9.07083605521964 4.008544136850455
Sc 13.16625781701859 8.424013450353964 6.423690161905255
Sc 12.528812272081996 5.706020509200489 7.629439187320646
Sc 9.429495271118551 6.861666968113829 3.2482833909780355
Sc 9.881774540523407 4.055567155834539 4.110466786300755
Sc 10.603049227027432 10.311125585289009 6.699193960648252
Sc 10.439956498792352 7.219669282802391 6.182727129333938
Sc 8.427288391767922 9.516000543699699 4.637074680931247
Sc 7.043847231164352 4.562689545779015 3.085408850159275
Sc 9.737229260445181 4.2434242632561485 6.948298900391987
Sc 9.754028864585326 5.769955576169187 9.409164147493613
Sc 7.555592625329501 5.825100994546315 5.623193083223701
Sc 6.361290086091758 7.701271035742409 3.1675781001026038
Sc 11.330912154687802 8.29422891962669 8.958824301396234
Sc 7.582023612550308 2.7212973402975575 5.494260464332011
Sc 7.139674191748934 11.049800497769095 6.931146178396702
Sc 7.607769982874936 3.1313415138933434 8.820906733849778
Sc 5.266353036667175 10.648543611038418 4.442630611714929
Sc 6.779835177772453 6.011201062392906 8.708754154794082
Sc 8.395600768204476 8.382992636755297 7.769883881123303
Sc 8.189366112612179 7.978942098207719 10.792760892628879
Sc 3.4158826149484414 8.209743313972758 3.7703863763367815
Sc 5.588767508776127 8.411429425076372 6.1233077032803855
Sc 7.4656040450145005 5.000000738077591 11.41822268479648
Sc 4.635002161785452 5.726754646042922 4.752650303200168
Sc 4.127158575978485 11.002720544413013 7.317755746194426
Sc 5.250354675508438 3.882085130657148 7.038065061450638
Sc 5.78588595228973 9.314949217790739 9.168130760450545
Sc 4.794839803068867 4.080493891694307 10.056408968872748
Sc 3.7992955830790827 6.568717717575209 7.834861707377524
Sc 5.151986718688561 7.042816046027857 11.174357836145397
Sc 2.2975787619928214 8.925218550331486 6.394087231675783
Sc 1.7454342672433845 6.139632256244104 5.517104945140545
Sc 2.7954977988217 8.92412401894752 9.462120149081823
Sc 2.42320766681205 5.964327569200912 10.45489239934586
Sc 2.1486213882201586 4.168055896674799 7.974313686876965
Sc 0.765964127146997 6.88199339458485 8.211102508158387
