37
Energy = -192.42480255 eV
Sc 7.48520466898392 12.120312078330802 7.339821815699728
Sc 4.324865753470743 11.725620662375269 7.934912904097589
Sc 8.256908811556146 10.703378919867554 9.99180525506799
Sc 8.87680000467143 11.951271770010537 4.633522353442107
Sc 10.224745223342834 10.610219024268496 7.67077133045509
Sc 5.823500084146339 11.194745427067952 5.078592110018505
Sc 5.235467097269346 10.177881244469614 10.642605902018603
Sc 10.823048681510226 9.540076230102924 4.863861957479321
Sc 3.761244497296905 9.155711493531054 5.963653398702702
Sc 6.075232431168268 9.553827369976737 7.899565641401217
Sc 8.021827748145068 9.429429097968287 5.735462188959233
Sc 3.245677095599774 8.824350241769313 8.924534226780196
Sc 5.7726826315990145 8.284433560806939 3.6702684148867792
Sc 11.527838707084337 7.731735433050606 7.018068220149946
Sc 7.442745266685186 8.222249901577914 11.525439241252956
Sc 8.769043297445682 8.090838821208855 8.569345453656087
Sc 8.653319192014232 9.399060510079876 2.8583701203911995
Sc 10.622342281846798 8.613385281961728 10.49766280832203
Sc 5.940458919164669 6.957906429900947 6.3182653933116475
Sc 8.922939618307701 6.6387480652621305 5.594261771333641
Sc 8.079292774383518 5.318886083200462 8.238451278960833
Sc 3.232078408900752 6.285191242948083 7.158587205437963
Sc 11.07573759735454 5.84708386436926 9.16539540863658
Sc 3.978000125702776 7.537139269553766 11.671036166752824
Sc 8.031278183942717 6.546551499670033 2.8104506822584443
Sc 5.675859285157883 6.961914814213543 9.369334319653072
Sc 11.017448102799733 6.741662908885064 3.687122154840047
Sc 8.966965383113237 5.573830886895628 11.126762417957929
Sc 10.844542802657873 4.548113366778329 6.532361299116055
Sc 6.355922524803897 4.700942304779038 4.4799284833327135
Sc 6.049479318855215 5.4218767489897175 11.906797647091889
Sc 5.272143246308413 4.045777879362365 7.35297077508553
Sc 9.346434324379521 4.139501081728455 3.933879611559895
Sc 3.8178999271916183 4.896082550704808 9.961192307732844
Sc 8.068791113620032 2.954878788190345 6.598951571794271
Sc 9.777854289577938 3.105861011173967 9.225176012503805
Sc 6.751095201789217 3.268782737146158 9.857031309746851
