36
Energy = -185.34909739 eV
Sc 6.734772387956433 3.074541446356312 4.017034028886895
Sc 5.184583013501697 5.553292613081452 5.134815472040589
Sc 6.19422141290637 6.400237498432594 8.003533573592973
Sc 8.444128712502891 8.21086579713972 3.2258790486781113
Sc 3.2742869958014253 7.284724778855156 6.896588244925632
Sc 9.541071644399928 7.7686510045014625 7.44566986925729
Sc 6.687538163864588 3.5036105483264843 7.091054518432853
Sc 6.924455369044992 10.738864748420779 4.253652255494351
Sc 4.2491233589858135 9.591961048130516 5.221931356972547
Sc 11.588466786974768 6.235109567811211 9.436302705436976
Sc 6.237326976386893 6.979899696608487 12.432872363459074
Sc 8.47446427122208 11.066640251331583 10.371931189213745
Sc 8.999749450263588 5.020093659350508 8.684707686452228
Sc 4.054858585544122 4.310447095273284 2.7615480579497103
Sc 7.812483357388681 10.491261792329308 7.412005716349537
Sc 6.8330105683987075 8.208174890206552 5.718305657914038
Sc 9.881561657450597 9.83132542279798 5.279232296242235
Sc 5.497366809014759 8.192044490994949 2.953521150212663
Sc 9.116599928087304 6.197650534994496 11.444729753686508
Sc 4.187420948527673 2.5487816227201407 5.385486820622747
Sc 7.5390713718742095 8.213149476455875 9.87457638652446
Sc 10.99642471244748 7.133458523266521 4.501901750475254
Sc 6.340097489848 4.705070993475715 10.393711514844373
Sc 7.008761690701906 5.604337207148294 2.5136643990534107
Sc 11.356331402183388 5.227172578770685 6.68602428542679
Sc 10.529764436517574 8.835183783464139 10.392074190055666
Sc 5.6217135300392815 9.830388059250591 11.400741348461064
Sc 12.340771989687829 8.180367001558645 7.125751934201855
Sc 10.64979924847375 10.697216861118783 8.072692720169112
Sc 8.373969603992421 9.020448396590448 12.620528518120716
Sc 5.106132526009203 9.395622265137666 8.25024541127162
Sc 3.901764047464084 4.459804236658541 8.02461037315645
Sc 4.225513791763363 7.1075066088977055 10.143184456275813
Sc 2.223685107736828 4.723730472053499 5.377331051861072
Sc 8.427569168806254 5.546363307525583 5.273366640217376
Sc 2.846649198675363 7.131195398285569 3.7831958232904728
