30
Energy = -152.76708332 eV
Sc 7.307189182818994 8.482225023368715 4.002204774594719
Sc 9.076052127692027 5.999615918135264 3.809587394783785
Sc 6.042163943628706 8.132549299487689 6.8716837178482475
Sc 3.1749768925319453 7.4602681179925705 6.438959513595712
Sc 9.663696174039904 9.938083483997765 5.024061784878521
Sc 5.6192620673731675 6.017505101032677 4.722810877669832
Sc 11.561170703583857 7.641278744684412 5.138706815464944
Sc 4.416631357052575 9.290664979667039 4.651384432494375
Sc 4.624278089446781 4.932614763542758 7.481409445427654
Sc 8.880673081015779 7.011674910583634 6.442273065569507
Sc 5.4046670140653585 2.804113196485141 5.611280449342612
Sc 11.522639922130159 10.045961165099953 7.37252654017132
Sc 7.757037169764651 4.334613300609114 6.210814847164307
Sc 10.881649070172212 4.883202938548422 5.907083317075382
Sc 6.817592736628712 10.948343691092177 5.740847068144033
Sc 8.651715492790117 9.58906555322391 7.83500143096259
Sc 4.322260411955977 10.247948210764672 7.653967749780673
Sc 9.542481875463672 4.73677645339869 8.777790519830837
Sc 11.269829548715524 7.196148535955297 8.12254685337903
Sc 9.536423064257109 12.284269814994257 7.171160493554032
Sc 6.7374388822795295 3.045377937601654 8.715006534691073
Sc 6.887189725112784 6.137008171794446 9.038675476858703
Sc 6.945693273962185 12.046522600937056 8.59982002868735
Sc 4.082464133459614 7.492446599454995 9.446507948210343
Sc 9.099767639880211 7.584146154021277 10.361092112712328
Sc 9.564750640964514 10.908834919637254 9.989226051332336
Sc 4.8568304401835345 4.621286548365675 10.59263550884212
Sc 6.4914953765108 9.403803928218906 9.948942072107387
Sc 7.904825548368521 4.648555072750052 11.359778173784717
Sc 6.247188211531711 7.025128661934245 11.852248798421602
