32
Energy = -162.59842425 eV
Sc 13.007896505429015 5.676541285613653 5.316846015689465
Sc 10.559867959687491 7.269691908803585 4.809134735145103
Sc 7.5983134444670455 8.67077849502877 4.469694502630702
Sc 4.826499580371217 10.1092258373373 4.158038917372161
Sc 6.816710226546688 11.289688172262483 6.192857045019186
Sc 9.739976863678317 9.761494650451635 6.481187527328103
Sc 12.535354528538907 8.318041147035844 6.749058981750486
Sc 10.115421612180235 4.354635591165147 5.450355998501833
Sc 4.9351580961898005 6.999657192449493 4.108377499871847
Sc 7.710449236684608 5.538441667476387 4.126514439244474
Sc 5.480319162788542 11.749718217018684 8.936043524686449
Sc 7.920877251068379 10.074371710564357 8.958521735517742
Sc 8.573137520517912 6.949225459227144 7.032492620618402
Sc 11.32455595587657 5.842149044354902 7.779899858737689
Sc 3.7208601961333048 11.397158263319856 6.51756184844711
Sc 7.245334525132799 2.7646032775734324 5.69868963922285
Sc 8.697596911424633 3.972220264492207 8.00304795433808
Sc 5.626144814455022 8.632618357830541 6.731561562202088
Sc 4.975596042076103 3.8093127046393813 4.164745543272107
Sc 5.963280184146826 5.417625086608406 6.579913624148792
Sc 2.9248630654553707 5.299672028763178 5.674406806659584
Sc 10.425957533866931 8.417174849988669 9.147688811046242
Sc 3.7060723167677234 9.48789717056034 8.841248525218347
Sc 6.782131494286724 1.7924113249332845 8.508938122261366
Sc 8.361446171381946 8.604278330149524 11.50856267856381
Sc 2.807610495381626 8.398512921916925 5.988703446355263
Sc 5.594145126661544 9.622197061979723 11.1646444813511
Sc 8.996953101004204 5.900503169199864 10.165888992708139
Sc 6.495788191041497 7.411089021865574 9.436142732189396
Sc 3.725707676626471 6.4271452151339306 8.333474662636448
Sc 4.405950248947332 3.0551818483942306 7.1916192235042935
Sc 6.097849630740804 4.477151728458741 9.566655151211423
