38
Energy = -197.22498925 eV
Sc 6.360798752413285 9.73882233832895 11.104069462969596
Sc 9.87418055700427 8.702311835100158 11.102731674889823
Sc 6.094837174539277 11.59841395804821 8.430408074291643
Sc 7.563001878185727 7.169277761347729 12.318382192274482
Sc 8.177644948894256 9.674052911101153 8.89664545773115
Sc 3.9681948776740184 11.6657642112742 6.50560455062997
Sc 6.958636356333741 12.340752182295047 5.208361857915976
Sc 3.8078997272779733 9.710619043538468 9.096397950540736
Sc 4.9012102088755425 7.074629494938606 10.941191962996964
Sc 11.093166354607954 9.829245746411996 8.245751638261071
Sc 11.313314897663306 6.794191013393041 8.9305669795401
Sc 9.025026925244068 11.998812394465398 7.421585807814804
Sc 10.077828124005148 5.66044225088791 11.726952052130457
Sc 5.8129171656929595 7.828489704022453 8.17563964313465
Sc 8.272169217890372 6.545541313280879 9.570805937075818
Sc 7.448493021564786 4.2072118349148795 11.212650454023898
Sc 6.607420737863977 9.713581497858627 6.011175366404868
Sc 4.854720640414592 10.784891778299109 3.809525263670371
Sc 9.314256777571435 7.758867099010004 6.843540758506457
Sc 9.903329531792672 10.213474522118329 5.282066729437667
Sc 9.789682350195319 3.9272118402901994 9.083926621296685
Sc 3.5304425523133616 8.758577831910419 6.1465286728560855
Sc 5.452382456092819 4.828817056909782 9.060574699306091
Sc 12.146481182137567 8.048623572895284 6.057578591643345
Sc 3.060770175260641 6.5166824834206185 8.422649622531125
Sc 7.5929597266620705 9.665821305748928 3.207886512962316
Sc 4.799409924624917 7.826311457937943 3.524829988319473
Sc 10.041016778090349 7.386116778201716 3.9421500498825983
Sc 7.8565020469633 4.889994329397042 6.939102902191864
Sc 10.816712512730602 5.185236147790473 6.186658636469735
Sc 4.847514288122055 5.852554025970972 6.07756632791327
Sc 6.961160482842488 2.376728129300909 8.447193190688589
Sc 7.1977446095267466 6.9767130167059745 4.712528231003366
Sc 4.006547510930776 3.2160361364355117 7.050330638461172
Sc 9.293467582270477 2.374245611431313 6.341800500503752
Sc 8.634354498419897 4.348902614139336 4.04547687850316
Sc 5.477518779423146 4.6830184140806645 3.471933604041945
Sc 6.470692047225481 2.809480750938387 5.470640236418642
