31
Energy = -158.46722344 eV
Sc 10.128885098347387 5.486643785047759 9.436349536461615
Sc 10.579996699065754 3.6750540827597917 7.018472486022433
Sc 7.929860052154172 3.1145964334910747 8.82876411084723
Sc 7.371607276801208 5.769630812716296 10.21225134164968
Sc 10.414412985298489 8.337059917408212 8.669905921176873
Sc 8.52993575037068 8.515222424872917 10.993634809772622
Sc 10.788967819025938 6.700859256314402 6.298379004468547
Sc 8.177059513233818 2.6394291203845794 5.704536562499286
Sc 8.135212548104555 5.392437890542173 7.140262306683337
Sc 9.457250615721174 4.976605557484779 4.167767856493619
Sc 4.74605689337414 4.688922214324935 9.532231338347408
Sc 7.377239417297258 8.354497948036709 8.248314635255667
Sc 8.98492135659966 10.876666621683254 8.913055219005281
Sc 5.221296354703125 7.768002363287412 10.491617209897218
Sc 5.4916038094409405 3.5582172088215183 6.744066157139581
Sc 6.313319882661857 10.604050078214827 10.102193000982641
Sc 2.5365261970257604 7.01617855267308 9.136784539021953
Sc 9.893493878337779 7.959052425467814 3.5451959439864162
Sc 7.251376283441026 7.248827353520541 5.01679450515889
Sc 4.945070274803012 6.616690881666711 7.223189011995222
Sc 2.5891918662300606 4.6687888025824 7.374291806040487
Sc 9.299316840833212 9.534740676187514 6.0566047016456706
Sc 6.46120128239054 4.519640325247485 3.839875165212547
Sc 4.096857945810253 9.49353565429179 8.239025152979407
Sc 3.7906177476482794 5.198705100298208 4.763937150192798
Sc 6.683750298679888 10.964776350248465 6.909244700718627
Sc 7.627987026060198 6.816421330289068 2.08107775074107
Sc 2.381619582254786 7.531656678087124 6.010389980630873
Sc 7.237910088177269 9.693031651385127 3.5625473122461964
Sc 4.832829706486993 9.29230733688295 5.390456446574858
Sc 4.845603634737089 7.464000668207291 3.1663863331485533
