34
Energy = -172.27352949 eV
Sc 10.39564660807055 2.565428901693332 10.149614494315573
Sc 10.0202984140862 5.527640084468269 9.722480480093864
Sc 8.427973612933835 4.180194217424222 11.748057137438805
Sc 10.185568368022567 3.734205939148542 7.3328817996930695
Sc 7.7340808509500585 3.432360129823357 9.023072672976692
Sc 9.794131260461846 6.751163032272704 6.621980850719371
Sc 9.65497161540497 8.686528955469212 9.454829491971385
Sc 7.898596467397889 7.270758124623737 11.46511968393254
Sc 9.983355104699784 5.01761240078367 4.159163622327184
Sc 7.309681545913307 6.462413563346129 8.552943259704223
Sc 8.583575964419762 10.401420217180119 11.597937437310028
Sc 5.602503433308814 5.1596223442166185 10.762198458622372
Sc 7.5655090230920745 4.711749568605085 5.938094509656591
Sc 10.856531349599654 8.145095246557617 4.153302904917639
Sc 10.61213788209801 9.824778938596195 6.687614413170067
Sc 4.837859423649864 4.277488530175887 7.976534701924882
Sc 7.632253472477339 9.057114502863916 6.727711070284399
Sc 4.603658202413558 4.331350678516999 4.845513988240641
Sc 5.426397482810592 7.043380277920642 6.047810467788856
Sc 6.584544689725265 9.334139011950198 9.631980173956595
Sc 8.665919562792645 11.366134414514171 8.532314333632662
Sc 9.78160171728518 12.53402914239503 5.902744155069039
Sc 4.281424936282653 7.224501436855144 8.931610174077548
Sc 2.568996584945583 4.899727803963571 9.753012504148234
Sc 8.708144225157138 10.367200875452884 4.200740940288514
Sc 2.313323286711553 5.70351173684893 3.6150067765533476
Sc 7.9489483437648225 7.247530905550483 4.142343153469103
Sc 6.98870282497897 4.608850850156657 2.9673625714986565
Sc 4.6575806434427465 9.81372106579263 7.209629924253754
Sc 6.821386662993694 11.88356696841516 6.1174378843923005
Sc 2.629126530282685 5.852000339207811 6.681847774725794
Sc 4.946798673261908 6.927690490438779 3.044712352989319
Sc 5.59281738968554 9.769440499754044 4.310329696442923
Sc 2.970622525688285 8.363729488517526 4.928444195005826
