39
Energy = -200.87520147 eV
Sc 7.197052924296545 2.8792880718554055 9.831820336893339
Sc 6.037080705995827 2.5409687919067476 6.9184693299278095
Sc 9.016625307834456 2.4914791904447937 7.627548126672009
Sc 3.2395897752737617 4.21083372585244 6.344898511950319
Sc 5.823240484668135 4.784867526317364 4.626795467161148
Sc 8.776479728264011 4.071480500977482 5.109993554098746
Sc 11.21066060448346 4.521705122170536 7.04607464134433
Sc 9.489177902091601 4.852909568643322 9.536100362507945
Sc 3.3085760239062143 6.696833851850559 4.400948788631936
Sc 9.480240349833638 7.016979926751239 6.1279585754798696
Sc 4.582134994477543 4.128795463772581 9.170993879110657
Sc 1.1152195353688115 6.62455056695997 6.493146684765154
Sc 4.123139980669491 6.760439037325976 7.605840904345542
Sc 8.272540889393527 6.54961168492855 3.363221415823946
Sc 7.178013907910763 5.113147138343101 7.574738741830653
Sc 11.39814634943763 5.928319635746141 4.145294053924064
Sc 1.798277688304224 5.241715928934573 8.984700384305173
Sc 12.943644890948532 6.855476221016689 6.4640528650391085
Sc 5.562125115451575 7.128178481063945 2.381047820510776
Sc 1.7798358921912025 8.254452839348346 9.0153167521415
Sc 6.184813432511657 7.727963788239591 5.390293226797111
Sc 6.779643035987496 5.923617783217333 10.668719843968699
Sc 13.273686765790803 8.401066626447376 3.993950242775371
Sc 3.92672277604541 6.89863037857423 10.623976713052725
Sc 10.924838553782681 7.334809106487659 8.713332277594342
Sc 10.28967147677485 8.796203684044567 3.7288157205235626
Sc 7.5446084208487605 8.207275287670145 8.597670669712267
Sc 4.172060366745601 9.493824213252797 3.5140624818111745
Sc 7.200406484963572 9.576098228359617 3.356240235116567
Sc 2.7682190869986583 9.235728849980152 6.225042629903555
Sc 6.317133580093694 9.043335376229388 11.197819552839674
Sc 11.532244403464214 9.38378996466805 6.350138935966935
Sc 5.5411843425503395 10.572233014637456 6.043887938791753
Sc 4.5585442798321365 9.545614222241987 8.786010876113712
Sc 9.12542963428452 7.907245405313933 11.14301168665227
Sc 8.54108670636318 10.034208903342217 6.172522405471361
Sc 7.180665462230904 11.166186424407611 8.947671775748347
Sc 9.94623990097233 10.112491745352289 9.035781152150404
Sc 8.659548479766224 10.919075712644931 11.623110249863858
