33
Energy = -168.84752709 eV
Sc 11.088234291107593 6.195284706801897 7.717136285389715
Sc 8.932991576771125 9.10483642457157 9.104300025977414
Sc 9.148640712361042 8.133039880304079 6.065363180531579
Sc 10.353117429191924 5.652363471912637 4.538122140332078
Sc 10.207162049262765 6.913953000553166 10.69361324234766
Sc 8.596613864302755 8.037561614339864 3.0532166141199433
Sc 7.757329673364423 10.597301101983474 4.70287080627041
Sc 9.966087524114515 4.110856712751836 9.766288905920394
Sc 5.934207291320092 9.810413326818331 2.395752809860847
Sc 8.500152744764582 5.13619858800059 1.9910579298666182
Sc 9.289750183415023 3.7104731652681187 6.831159567334548
Sc 7.766189948082041 8.47819802074889 11.824239639309802
Sc 8.290310577671528 6.113550015109476 8.309990269039702
Sc 6.488226088468441 9.709516456078509 7.356287163344726
Sc 6.093946837986853 8.033516469795455 4.854911548430935
Sc 8.761419036399944 2.916111482345471 3.9730337577323502
Sc 5.745221598500138 6.6190923092630625 2.138082857111277
Sc 6.294849340149934 10.568246616429345 10.435976320162638
Sc 6.010903377010223 3.6126966969174914 2.931680259181379
Sc 7.458670353074755 5.4063160036082545 4.9508012764206
Sc 4.63843032190574 10.678359232085784 5.126546120711382
Sc 7.609283807811318 5.5246949450331515 11.246039717907394
Sc 5.9466195089503655 7.735106566106489 9.443578827135331
Sc 3.7714600591889513 9.882729928092706 9.038826110489865
Sc 6.261348621172657 2.9215452411372898 5.96442842837261
Sc 3.478987945835216 8.352090930602747 3.393167158965462
Sc 7.0407966191224824 3.481490964111605 9.015377738199735
Sc 4.480993307109562 8.202609525781346 11.73666539607054
Sc 4.15697994418909 5.450313878060744 4.584698806740932
Sc 3.615219799097989 8.104061835042163 6.534175202494663
Sc 4.7670314433584196 5.083698631152402 10.500330840980828
Sc 5.244454822121275 5.541181460847186 7.417761676399788
Sc 2.943893089265495 6.987578385297428 9.279006627593217
