30
Energy = -151.8619883 eV
Sc 7.784335292032449 6.645185443212327 1.5589238353045611
Sc 5.966692647979616 10.175413057959329 3.684098343699706
Sc 8.581721010999097 8.646356161306791 3.8223639993728207
Sc 6.881259486821558 4.554252721454854 3.9090104432704718
Sc 7.872143820386922 12.155737883030348 5.021141330179859
Sc 9.558195204963479 5.84522625314112 3.7718303610864066
Sc 5.613689908627457 7.213168774621611 3.301626593432249
Sc 10.282036748873388 7.4473498503362805 6.147319333357036
Sc 4.504452810614778 8.561570318152533 5.76955487616995
Sc 5.280622077867757 11.660578159200309 6.310902421712567
Sc 7.225210228087563 6.6364821210989335 5.9152900657966665
Sc 7.350889236103353 9.564289058054708 6.438440814554144
Sc 4.2274985261568165 5.44542100598314 5.285540765187867
Sc 10.152821665231123 10.619531643719567 6.0766897018883785
Sc 9.074672715445327 4.323323528824807 6.422999736283186
Sc 6.015208501244269 4.1592646528844694 7.241235933920536
Sc 4.24431465582796 6.68066796467239 8.168836768635328
Sc 5.297011399264446 9.600481494597881 8.675917034054068
Sc 7.883441012205312 11.652028917818114 8.203965797899716
Sc 7.981675087488307 3.8892070403212093 9.45044844642988
Sc 9.580050769008363 9.068441412740146 8.57891440063833
Sc 7.150101594314465 6.9663146165931655 8.99772225708815
Sc 10.096880451367985 6.023483455270708 8.764458992798914
Sc 5.191750500381852 4.623499466081018 10.338828345920813
Sc 7.490464049008358 9.415288340537835 10.767229668746644
Sc 4.937479739789106 7.644315838885155 11.011251791947531
Sc 9.873239915150455 7.58402586298493 11.265930543422003
Sc 9.873717226400602 4.523469511755474 11.538732618515112
Sc 7.211296397501166 3.1542304644594314 12.235345656879524
Sc 7.4181938177485796 6.1224614771931725 11.926515618699007
