38
Energy = -196.14632586 eV
Sc 5.887594182469895 2.5661394064718475 2.1181573757077348
Sc 7.975363644453001 4.518806652059133 3.128100290735376
Sc 5.163772081229275 5.525508468597199 2.354168315729682
Sc 7.527412507937601 7.610214005561605 3.155378499863727
Sc 10.251134470085177 6.552563407437883 4.170835102351986
Sc 3.9407257798930533 3.428289881958317 4.126583905983757
Sc 6.644677782551709 2.653295326805361 5.15938648593614
Sc 4.570094200024915 8.306206674094055 3.9893440806012164
Sc 12.73593609362076 8.087954648254199 4.77718924637852
Sc 10.07441517636396 9.596141715730955 4.344677386722554
Sc 8.821403027575961 4.680527908447925 6.353762556352613
Sc 6.165981405277666 5.604452666841545 5.158637327907663
Sc 3.255849001134515 6.095971740945432 5.540903108408909
Sc 6.840160921559682 10.185630748501042 4.762410487563592
Sc 4.029607390642201 11.254267574265198 4.707068736418862
Sc 11.058371081141585 8.832944316466463 7.12763352980684
Sc 11.653086090300091 5.916508746438649 6.748461487311421
Sc 4.473890864410298 3.685647928037327 7.129954297301035
Sc 7.2655723173342395 2.7508048876506908 8.38252371558648
Sc 5.420381246363772 7.999584669250243 6.833829474022825
Sc 10.171332274171114 3.6976528732924114 8.864323413661777
Sc 8.404970396120211 7.881167298611465 6.116208904844316
Sc 5.501034096202436 10.93154021743695 7.3954804881120495
Sc 3.5045493721291243 6.298199107172752 8.664330158250598
Sc 8.640996196126382 10.757209817485384 7.237762015241033
Sc 6.471396824320502 5.592202962845273 8.405639610692239
Sc 2.888187572498663 9.205552699398142 6.596652161649053
Sc 9.511314976436354 6.640852316155892 8.890889564168683
Sc 4.347257752838641 9.193377366385848 9.555201376647963
Sc 5.0509837541809 3.752694843938996 10.215208545626869
Sc 9.829320087719342 9.782571692382612 9.957578737602773
Sc 7.24360001451284 8.678824675062332 9.139804111098938
Sc 7.918385736929945 4.599962204951656 10.773498149206757
Sc 5.545673429983884 6.728539473359028 11.067173655843614
Sc 8.422628870694766 7.705483959240266 11.707666164464188
Sc 7.269463533907125 11.499126595551683 10.099462635535515
Sc 6.106756942456817 9.563432300218123 12.08093635108648
Sc 8.754804389324995 10.683257045604584 12.63963845242735
