33
Energy = -167.922429 eV
Sc 11.25743464502759 6.763579153748905 7.121483161525745
Sc 9.478558320866874 8.333412383162436 5.184072291214435
Sc 12.795074761634915 8.198628255934226 9.296883626718667
Sc 8.051183279511584 11.314906818301932 6.22855312693865
Sc 10.681735934559853 9.81552127988002 7.670995726946098
Sc 10.981567329814212 10.184148642362565 10.62646504691213
Sc 8.608734760598052 11.442325724579042 9.16511921433361
Sc 9.904108039865719 5.108113573974491 4.879061154742775
Sc 8.103547625674171 7.010254833388505 2.6241903686479993
Sc 8.086454277648945 9.348475991846001 11.151093186569689
Sc 8.366077646381363 6.1978522046104105 7.007280793216259
Sc 7.588299723696889 9.912517943737717 3.5944897782387684
Sc 6.309513309580207 7.282565728089245 4.945279086879439
Sc 9.901181768182076 7.578473004403949 9.609854243984298
Sc 5.669962383243695 10.976689271545947 8.593754244834937
Sc 7.477645786887688 8.904336023358885 7.802507305364317
Sc 9.67515447525497 4.444806971383479 8.871589417197582
Sc 7.145584588234866 4.498716953837112 4.080354753890072
Sc 7.348967668553017 6.133120952460541 10.154388070125139
Sc 5.221096818501485 10.06001076017375 5.499883413704389
Sc 5.116920319407449 6.015156724333566 2.4224026050827194
Sc 5.031101391746905 8.920307707388549 2.6020792251438687
Sc 5.587024822490861 5.333111091604967 7.5484429674263325
Sc 5.572368533729237 8.47110485004024 10.183190249311602
Sc 4.224140685233744 8.026963230922659 7.651627834510674
Sc 7.707062545666983 3.2569823443887778 6.701576175987533
Sc 3.3805708410948507 7.3630710057108715 4.7889350701436815
Sc 6.460453545569979 3.321922269046391 9.521210760403253
Sc 4.329037626475772 4.494293344734725 4.897924703513249
Sc 4.262166451425783 5.65344066993329 10.111716274132792
Sc 2.7021472002458604 5.043335147546957 7.4289620580587465
Sc 4.653052253766932 2.546411396301065 7.1717972176340545
Sc 3.291233183530052 2.9080626856610308 9.709254924915824
