39
Energy = -199.87834612 eV
Sc 9.770943059181768 3.29627154784847 3.6201694404460425
Sc 7.664879568168711 4.0922664870090015 1.5165590910961813
Sc 12.023207756593244 2.5098099946191423 5.627450071701763
Sc 9.288466445589421 3.1098509761313533 6.567942161214365
Sc 5.71107667524665 6.2451816404728495 2.4707626101499467
Sc 6.765045665663738 4.056930389844453 4.365253582362482
Sc 11.272914469139153 5.354593441274805 5.367702537723953
Sc 8.715496861997758 6.1960154807 3.414483900821509
Sc 11.654283682723825 4.262498160338764 8.144292293644739
Sc 7.4723925165027385 9.10353705515238 3.539387902098537
Sc 10.572128669674814 7.1713136054283755 8.367738434436744
Sc 8.882859626614891 4.648081831032431 9.38073590536126
Sc 6.3875550818934785 4.561756714050262 7.406220363380718
Sc 4.493131786425045 9.063009700109866 3.3748645008022566
Sc 3.6242406219824277 5.339658318825078 5.253068247280581
Sc 10.029618461179767 8.464920821936577 5.3803824749687665
Sc 10.992601191022665 5.89366814217409 11.073126886962598
Sc 8.6171206145522 6.050120090722647 6.417788464466452
Sc 5.9288267573924065 7.040737993128802 5.238316966093952
Sc 7.294958864834213 9.227391880077883 6.66635917236098
Sc 4.5444029499662575 6.912905319797772 8.143900314249148
Sc 9.008765346296979 11.279970855066306 5.165222076263066
Sc 3.5796287542636307 3.904437296496977 8.182879094923114
Sc 9.701279398161486 10.22144885737637 8.046369883014485
Sc 7.5515041986875175 7.34752983637965 9.070861494689803
Sc 1.6168447776065926 6.050944382912056 7.583346451323065
Sc 5.735227455845388 4.936145913968604 10.358569671314415
Sc 9.799801177712931 8.71865968922004 10.964040123480565
Sc 2.938342895190027 8.32537999113045 6.064723383110113
Sc 8.037195001610655 6.42409637981327 11.91555464309413
Sc 4.810388568634081 10.604078229468483 5.753177201010959
Sc 6.414476350254799 11.919914182382888 3.9098357157777186
Sc 4.856656144022385 10.004319659839362 8.61682087688721
Sc 7.030218909957265 12.107191077416287 7.245177874852542
Sc 2.190319082135263 8.576530493031031 9.126109704817596
Sc 2.823780609937278 5.873644009687199 10.431291051659532
Sc 7.415469722054217 10.263398987205967 9.9930627678479
Sc 5.244293496870013 8.025252963214538 11.017148303232041
Sc 7.493982913165751 9.17205738900235 12.809358707100976
