35
Energy = -180.24548992 eV
Sc 5.04721779971694 10.873391886146988 9.66610886642866
Sc 8.172758282909628 11.448305577187906 9.563584982966812
Sc 7.184628930306277 9.535065152740865 11.576571788010082
Sc 4.090732906888858 10.443058526110839 6.654991919899545
Sc 9.988104179835851 10.825517792246421 6.997039609835838
Sc 4.780117396470514 7.708504073752048 10.861669955817382
Sc 3.1789228717147635 8.664997741673666 8.564541670301066
Sc 6.907785046845127 11.255082784805593 6.861648351641233
Sc 2.821700732605477 7.718151378858718 5.567209020794657
Sc 6.753504901660423 8.762320832875305 8.76878021046872
Sc 7.6693237503496 6.455763365386738 11.088666717823966
Sc 9.612489446233687 8.848149704816084 9.461893416523564
Sc 5.708805284907851 9.585600967402545 4.342077625351598
Sc 5.0194861286222645 4.692944529445721 11.223984423142662
Sc 3.1417265612114353 5.781809817483939 8.800076865053528
Sc 5.304843970524092 7.578151181561151 6.590571037306851
Sc 8.336672711754156 8.542087876243867 5.993988395723713
Sc 6.145828157161577 5.520307041506542 8.57982074501816
Sc 4.47961930487233 3.052403319708192 8.763425654068158
Sc 7.484087846343538 3.3509015331047003 9.974682294737338
Sc 9.245688316371682 5.922436238393544 8.341700149070373
Sc 8.422596166200446 11.138854571009364 4.241156715811237
Sc 4.190697811199361 4.723772026894158 6.117839212125856
Sc 11.194284332576894 7.868116177604277 6.807297476414203
Sc 10.785095528091837 9.451089044836326 4.283657566933063
Sc 8.12538053377543 8.258131367467206 2.9783737600953617
Sc 5.533821453550445 6.49924892774147 3.7448159909516954
Sc 7.828350005010725 5.460804426761085 5.659794476361124
Sc 6.8668727016616184 2.7846208620545223 6.934435271764365
Sc 9.647600348203497 2.9159768106181447 7.818832689742478
Sc 11.23855434764824 4.847850540961041 6.333607962894552
Sc 6.156988671984574 3.479549180918207 4.10266134666954
Sc 10.303014921459264 6.448015645261923 4.131003563445622
Sc 8.089746946976904 5.113124226487067 2.5665385531983658
Sc 9.238402396294028 3.1474714636846963 4.726040957693981
