31
Energy = -158.17023386 eV
Sc 12.519838169577056 8.057290021848708 10.609154396718184
Sc 10.347426839903708 9.100686199249473 8.659217393494638
Sc 9.020099703573589 10.493642305329638 4.5978984998688555
Sc 9.902424819444082 8.923767720295436 11.614489833121278
Sc 8.555877826703968 11.581966020998907 7.665712787626534
Sc 5.772015010634045 10.87595684601927 8.26352307723176
Sc 11.983620011178713 6.626528183697135 8.057322360520343
Sc 6.337101140189237 11.630685770914782 5.4375096892462755
Sc 10.01809819284912 6.333968961866331 10.308433990216704
Sc 10.00643378806708 7.743683018164799 5.84456470210679
Sc 7.640444860897249 10.233172225107058 10.344929063894766
Sc 7.127445358628241 7.350034054151274 11.68913215082548
Sc 7.668262863701921 7.6503411904757215 8.876883594400827
Sc 7.358721602735475 9.164543582200992 6.496038310966526
Sc 9.027084434658528 7.806814686267765 3.0104801569051767
Sc 7.20217722500798 6.427949273208706 5.218962683753071
Sc 4.811681813624555 8.488182960396298 9.663720296427488
Sc 6.286593219975228 8.999387460113873 3.7238851139940716
Sc 7.174355406401379 4.694343992768057 9.74961327335236
Sc 9.148632479407853 5.382741921953647 7.469378488878865
Sc 4.5830157729481344 5.788806049158394 10.673690346807055
Sc 5.416194925016736 6.057134557370787 7.639879307271872
Sc 4.389875694005778 8.795887577791406 6.481579473111232
Sc 6.796559674617137 3.5435870941808463 6.718541423290141
Sc 9.091174841076981 4.861097213711294 4.161867770933228
Sc 4.24402705079507 3.5675786800980833 8.859180282029055
Sc 6.804546359301422 6.131716224375843 2.251678101912448
Sc 2.787998159505242 6.223280896631846 7.980740438833337
Sc 5.992000504131355 3.912937071497026 3.865803834757327
Sc 4.345481984080105 6.438539076152217 4.500361299229518
Sc 3.8410538758468724 3.9098314296281855 6.021619709771813
