34
Energy = -173.6473846 eV
Sc 10.364434299280196 8.238156459378127 1.837972293765549
Sc 7.725400730041989 6.793100111442556 2.5832653161365893
Sc 7.944683281034237 9.717119865010641 2.5642794124754937
Sc 7.256090038233088 10.737853065057896 5.405523555122502
Sc 5.344958045044302 8.772064130903006 3.815765497433427
Sc 10.22708955037989 6.559038153805168 4.348629286475068
Sc 4.619846880635389 9.716450888471174 6.739628831548937
Sc 5.235156815390973 5.696797668174413 4.367008674342909
Sc 10.012656196976739 9.525347439311979 4.650608760454691
Sc 9.349972212353022 10.837992510783383 7.662110320785662
Sc 7.603434357597282 7.6675804975022634 5.449004038178517
Sc 3.010656164018427 7.504811084770223 5.4273139146484475
Sc 6.429519497067076 11.871773759069328 8.161806303401073
Sc 8.035947167819455 4.533549282043381 5.094918853286797
Sc 5.16028361972277 6.6501330473430516 7.346221698100446
Sc 2.683266140414 4.7463124976363735 6.000139635776235
Sc 10.20217913023829 7.832086410989731 7.27820658907801
Sc 2.6615703411463083 7.913766438664159 8.395483239692213
Sc 5.5047594479824244 3.7419975406984296 6.790138056086201
Sc 7.1937437208715656 8.876609486403323 8.61605944260926
Sc 10.654916607924324 4.652249023589054 6.8307010740700695
Sc 4.623964144117611 10.166696527235008 9.815603427817168
Sc 8.09993993564566 5.670845022893198 7.98698197248934
Sc 8.177200899456896 11.589072613681989 10.401418537227912
Sc 3.2351256128547052 4.925526821031844 8.805045722027623
Sc 8.453510466809439 2.7280484809266423 7.885998389944388
Sc 9.746754480197907 8.960662846692427 10.195030849675458
Sc 4.944419396684134 7.154986746279266 10.361369487152357
Sc 6.111614065023437 4.2849732480365645 9.723634875168282
Sc 10.686244536873696 5.819039014957604 9.617538911998377
Sc 6.8958880902540445 9.347913880365681 11.627465684539967
Sc 11.308559322777466 2.7994937065964685 9.116832242614375
Sc 7.935181344741591 6.566066423386594 10.924669462341054
Sc 8.960084663311765 3.643072287387021 10.635840421747469
