31
Energy = -157.87963578 eV
Sc 10.604411009069338 6.597161572536703 5.087682931713285
Sc 9.320327872276495 3.5360739004191837 5.297007664691921
Sc 7.97571441228414 5.374554625710716 3.279967892381371
Sc 6.405563032930244 2.593691225376553 4.584986548297196
Sc 8.919701706812459 8.49200273239784 3.0388173108440153
Sc 7.922961282077288 7.502194036746749 5.3506190289618
Sc 5.9041029173734705 7.595407758941561 3.1790066263836008
Sc 9.122106010767606 5.622650806742978 7.685928311131228
Sc 10.530206454108002 3.0252818435485724 8.233153099423557
Sc 4.3424825603333295 5.401878405568631 4.527109591669723
Sc 3.235496987245505 8.533199614253064 4.872172062553084
Sc 7.49505603486633 2.5297094690159203 7.555243484151597
Sc 6.7991005913722695 4.875843433517279 6.033830596100565
Sc 9.637910074324292 9.72150387981321 6.034701577941541
Sc 6.55237316858653 10.090624612294171 4.688012429922144
Sc 4.4935447648345015 3.433732947111353 6.940947913264853
Sc 8.48475707602591 4.143457061773974 10.066370721394339
Sc 11.15497926655419 5.31105825451427 9.962564034436127
Sc 5.368200521962706 7.710320958039828 6.472098719131974
Sc 3.0007844211247465 6.271448646015392 7.162694433832078
Sc 10.84369310299206 7.958012941439875 8.187093334475579
Sc 8.81799036880607 7.257538597053066 10.586510743872587
Sc 7.27386094966179 11.094214465269493 7.479766708393381
Sc 1.8946625341818617 9.211686809742968 7.6861762562776335
Sc 4.37078588616117 10.5413897567204 7.100049485243942
Sc 5.954366360282165 5.655430511477916 8.779750635036006
Sc 7.696542626806063 8.269696318464646 8.223527644314084
Sc 4.163796286402251 8.240250111399702 9.273310076880554
Sc 9.401634305237812 10.217209982984077 9.471413828888164
Sc 6.356496169836186 10.102873909047206 10.106631687445551
Sc 3.329211658819954 10.996126121967777 9.749562852804818
