38
Energy = -194.46145293 eV
Sc 7.159229924634756 13.612891456170697 5.793089461232397
Sc 5.68902816142978 11.81701401691007 7.795313922963134
Sc 4.591100934265973 9.146639588978053 9.176856945908506
Sc 7.539324841964542 9.79103620282779 9.61180367355383
Sc 3.406689662930041 6.682571372078427 10.512655333452221
Sc 8.700123739541814 11.44275227632299 7.29220314258084
Sc 6.532838986505415 6.8987980682801044 10.459183601710352
Sc 2.2168043241192676 7.065642050713715 7.822613820301694
Sc 9.504441401099283 7.69401472762051 11.245721482441612
Sc 3.819181632778074 9.355774870844842 6.287994066934018
Sc 5.165362250143513 11.68045161185366 4.861609250831453
Sc 10.47747164572156 9.248641821591967 8.797406523858944
Sc 7.973591507249774 10.996739650755774 4.412188618565321
Sc 6.781092899600433 9.256004327727455 6.676986186538172
Sc 5.203919538987144 6.621140876333918 7.6468179491399875
Sc 1.768418414485014 4.50414730316918 9.478281673662257
Sc 11.322091623917682 5.954009934238463 12.864662392547613
Sc 8.460092055207049 5.087687676223732 12.267218962407318
Sc 4.8343611907555655 4.266168790326105 9.654802491315378
Sc 3.7944093319044243 6.6670237660038545 4.861680218296957
Sc 5.678629643512288 8.828359926625106 3.826434967468907
Sc 3.384956647663616 4.374592206773485 6.905345069692784
Sc 8.544361815249452 6.954060457766477 8.148970827131505
Sc 7.909220157080428 4.184887971167909 9.466043392343854
Sc 9.772093673024623 8.781419026707326 5.851355472442028
Sc 10.625137024763005 5.163138792417376 10.06144246282588
Sc 7.133579432798883 6.2681375993501565 5.037220807179912
Sc 6.433801265152561 3.772679548476352 6.923677318553458
Sc 12.405304642701404 7.444872160099371 10.50069390901425
Sc 8.516124167004957 8.12067922391837 3.050600277131071
Sc 5.1056414244087405 4.049142690967152 4.186968842866316
Sc 5.82285754677556 6.208370157323665 2.1831259007727652
Sc 11.5075670747522 6.71582236027464 7.545637220576653
Sc 9.560071302532815 4.271091574131267 6.960310247968449
Sc 10.156747040880642 5.966334236644585 4.626099656615321
Sc 8.08497588731227 3.389542326915736 4.262810102151289
Sc 8.602638053287501 5.229217423592296 2.0992916039240734
Sc 6.514437351777391 3.29274721301981 1.6012427400308862
