39
Energy = -203.21381231 eV
Sc 3.37030914145765 8.748215484608101 3.6637520801721917
Sc 2.967634278369402 6.086900817024198 5.4007264422739825
Sc 4.564738657936633 6.269102041590266 2.6302591161967164
Sc 6.469227430384314 8.91296114845456 2.8693636072873843
Sc 2.676850786669715 9.085082988053694 6.704482627508852
Sc 1.8990596953389358 6.347884166580681 8.330009115264271
Sc 5.206797991408732 10.514469652052417 5.385471929718687
Sc 5.632909779591574 7.377100311213456 5.14264230477713
Sc 4.183163152309833 4.3733808097139715 7.842381871120876
Sc 7.615082156526509 5.9486042782362905 3.0769545926323523
Sc 5.481068752599292 4.279887225729848 4.778533494625326
Sc 2.6986301369754084 8.729541965740719 9.89710716058142
Sc 4.666616755547603 7.426143171812887 8.024314655859664
Sc 8.394750650824406 10.562160307493526 4.811183246523082
Sc 4.815922479825808 10.634226789983053 8.603748144678148
Sc 4.123068280566823 6.081378085260851 10.613417744845764
Sc 8.698579491316515 3.976294980693851 5.134937558392169
Sc 8.650076458377784 7.423768763467871 5.561176893046183
Sc 6.976773817858251 5.257382009613602 7.15971875896935
Sc 9.601959026459857 8.365992292665918 2.92095996173775
Sc 10.985867511134659 6.044347498566153 4.506689443444378
Sc 8.907396192018778 3.034472326934234 8.293961723084108
Sc 9.876242762454284 5.7737986007329924 7.904122627398249
Sc 11.397101879794915 3.6854725921414464 6.4018919503614935
Sc 6.497406185184262 4.250147087143704 10.081807791789876
Sc 7.362866674443268 7.095138453451779 9.501435207335556
Sc 7.090065588530534 12.29560726738115 7.211421592245323
Sc 7.275691024670999 9.363387918316189 7.398994327109626
Sc 5.589877515103674 8.860207831163397 11.049505561721935
Sc 11.13309989845837 9.029418013783111 5.525897376529593
Sc 11.836660091422045 4.0470518364119865 9.2878033269729
Sc 9.813582314849222 11.329920667793738 7.39153033096384
Sc 6.796464184878042 6.311980174736649 12.364906731768029
Sc 12.52017115956999 6.568066181605068 7.257910443155196
Sc 9.287901278449716 5.065002783100607 10.895341279765615
Sc 11.666733530903729 6.839299087898854 10.308868914725677
Sc 7.844853141967754 10.732829028584801 9.852043327957388
Sc 9.05328529115856 8.19471014307085 11.472261919979925
Sc 10.11346230667269 8.653117723330634 8.49187833190734
