32
Energy = -162.59451715 eV
Sc 9.470738164591152 10.162951264854234 6.820876701845976
Sc 9.832136480612544 7.3483581898583665 8.095888527051185
Sc 5.117740608547319 9.928644389416315 3.0748527756692017
Sc 9.340914464453293 7.267492581765203 11.123724555679006
Sc 9.815338418373381 10.537939059948165 3.680515402569472
Sc 8.911906091746502 10.15852141263742 9.917018993102586
Sc 10.045539885729145 7.686749737569082 4.980559567530685
Sc 7.520150446156782 11.31407441804304 1.9367503109205815
Sc 7.290325714280345 8.126401459649761 6.169961282955225
Sc 10.049400191886637 1.8627026559312856 7.8872841121943855
Sc 6.999458189428879 7.855106734634869 9.255185686129796
Sc 7.700768332160182 8.538380061758378 3.1185018305195222
Sc 7.174439798093774 11.138491779826362 4.934415815655913
Sc 7.840964668984688 5.4779576436544986 4.568213916258005
Sc 4.5622787298052945 9.498205250452308 6.070215135042857
Sc 10.191467273000983 4.638940317290279 6.445800784279724
Sc 7.960551685368899 2.662932729865366 6.036442055015642
Sc 9.83842361524634 4.537788918862136 9.510916996540809
Sc 6.606471922076408 10.71025962593461 7.915327651055523
Sc 5.724479114266158 1.4052490973936276 7.378986792910998
Sc 7.491459081925528 5.226940192635267 7.727452609636043
Sc 8.552437790704252 12.74188813057952 8.277322098766154
Sc 5.145979005501948 7.054428154610789 4.378509327335452
Sc 6.4997651087125785 11.780747717724191 10.564524254644748
Sc 7.590095274993045 2.537092390086928 9.300717361529266
Sc 5.346241041533186 4.162175830047209 5.923070000194472
Sc 4.629002281977551 6.784771826672183 7.543630895318837
Sc 5.010923041944066 4.0154375387576415 8.999331101923474
Sc 4.462735485071459 9.458830946336 9.530753382281539
Sc 6.57304928366812 8.86290491900716 11.790383659439373
Sc 4.560035243159918 6.752525665451293 10.701645018614933
Sc 7.158596721338211 5.199932256350603 10.926095602985669
