38
Energy = -196.45537903 eV
Sc 11.55396764245148 8.083939548155106 9.244901449084928
Sc 10.271259585451883 10.086947373658715 7.083174449586418
Sc 12.09097415468691 7.699383272962286 6.375576947049462
Sc 11.312938148740702 5.171095345690628 8.262576173875884
Sc 9.032810321315518 9.667629486927225 9.952818292497662
Sc 9.581250648116917 8.444292633759783 4.452666778539494
Sc 8.03222215298189 11.971786574224902 7.956301754057136
Sc 9.156172210214033 6.194462609414868 10.267986871213147
Sc 7.381368691243587 10.56344020278065 5.146953785681032
Sc 9.365665624423762 7.271436859010144 7.466045787254926
Sc 10.519856663076704 5.485458865015702 5.043235747261389
Sc 6.264474800013264 10.999283770992303 10.089645383352439
Sc 9.186916109632547 2.8511639894305274 9.495238514827161
Sc 6.703244760427579 8.340575398409856 3.0252417399839353
Sc 10.355917328195973 2.8352114144818903 6.591043154957046
Sc 5.116236321317853 11.441371466961659 7.092174149873195
Sc 7.937315459273556 4.412814525022338 7.5669689940895974
Sc 7.003487389155048 9.215898587356952 7.797980374073969
Sc 6.5250846225137344 7.844568855037895 10.68313313949652
Sc 7.350159941641341 6.4019781032624365 5.2031267081987
Sc 4.808363246768809 8.271110747284926 5.660415150789128
Sc 8.670314606182181 6.036054268127065 2.571948416965154
Sc 6.355224029342412 4.689918533882171 10.384155838969294
Sc 3.7486076629086282 6.30080270451105 10.469750063801566
Sc 4.0543896625079885 9.142255322136359 9.202986388468444
Sc 5.499291254858549 6.4058153019111685 8.065920399211292
Sc 3.9341939198635676 7.471611677283691 2.783317209574907
Sc 4.108113546413985 10.410963066829282 4.047753166958109
Sc 7.943413429698921 1.3688398875857088 6.832077173871568
Sc 2.4931850787973704 9.958886422252943 6.697338932434587
Sc 5.842559192881079 5.098469472220517 3.1209317422694705
Sc 6.098593797324109 2.243173188328079 8.859922811711112
Sc 2.4234708417435527 7.017588780954383 7.6563431429205355
Sc 8.271381011647366 3.4642845991985554 4.4019706810350305
Sc 1.8397545748571311 8.09680259358653 4.664076798424957
Sc 3.74417053215499 4.151251564459167 8.335488258150555
Sc 3.585613524665815 5.508065613416536 5.219350949356103
Sc 5.587300508538066 3.3234933013738566 5.970619761834025
