37
Energy = -191.46066511 eV
Sc 6.4130769778185055 6.6193806402547475 1.3514869421795954
Sc 8.388026466119248 8.773547896368822 2.201559807757782
Sc 8.41652315277014 5.979749294203976 3.5899460524918676
Sc 5.391448538274203 8.811544798979567 3.3024638881292265
Sc 9.652276747771365 10.693262327851043 4.263588440488001
Sc 6.933588252760775 3.4406922078744686 5.105982372462735
Sc 5.379475939142793 5.989327260833494 4.179810345840028
Sc 10.715089424003628 7.815249570213407 4.415250897029239
Sc 7.880365602262965 8.579313348247993 5.106287590235827
Sc 10.391275910639193 5.152824879254408 6.120600720224371
Sc 7.490196183456239 5.901414104939788 6.51881210127889
Sc 5.348627938372648 8.177099606565575 6.530290859443329
Sc 5.877671565829726 2.3141873090206366 7.876893249572733
Sc 11.696068494286054 9.861245945656911 6.3973095024732025
Sc 8.77323574227996 10.792080275937666 7.266978855502431
Sc 8.570630054161464 3.180824081529965 7.7232276574408285
Sc 4.640601201988959 4.870378601251413 6.873218972650151
Sc 2.793010897086342 7.398475733219906 5.750808674569214
Sc 12.242873752496102 7.33272942360007 8.10846951658877
Sc 3.0452511416470425 9.43850504234185 8.150753217731328
Sc 9.694528159618049 7.842237572185045 7.464782825537145
Sc 3.707074724307027 10.354779569431017 5.452033352416921
Sc 10.018436868430292 5.255471079772145 9.18040783668858
Sc 4.227940029991295 3.7669061774697568 9.914959579262131
Sc 6.611214402442915 11.179420009283959 4.906252199950365
Sc 6.811682978878355 5.243636959566487 9.289789512863011
Sc 7.139733137593374 8.240422040932247 9.001216207332442
Sc 7.111644236017621 2.7884661790455243 10.619405560850591
Sc 11.071740457819256 10.07972821191342 9.157404075046134
Sc 5.672677406529074 10.887907621958497 8.003705300140123
Sc 4.1661446633387795 6.835893753849857 9.102928039326304
Sc 9.8977956473683 7.864546311613302 10.692196473859507
Sc 4.883634736251768 9.299249875920495 10.722169173326645
Sc 8.05274663449375 10.519071432932451 10.406554252920564
Sc 8.443839106992021 5.361834073773257 11.879244378378917
Sc 7.233495519711503 8.050350174927503 12.01761112541099
Sc 5.311653786839503 5.8918143020163845 11.806759352616108
