34
Energy = -175.00161712 eV
Sc 4.111488591344726 9.791805891750164 8.64997664444357
Sc 6.559942138465466 7.904513689626149 9.030171904996358
Sc 3.6499176192018585 6.525871652783988 9.172698319946823
Sc 6.550111692166917 10.293150337570507 7.005229247702072
Sc 1.962697505569982 8.004681621591759 7.152783454550968
Sc 7.992093107473206 10.286855196081984 9.754384248434128
Sc 3.8843030888948498 10.120721683730752 5.501107101141584
Sc 4.95279434448242 7.750130572634998 6.668760327916283
Sc 6.337514274584982 5.1261614330081535 10.10573257347804
Sc 8.993759321904664 7.340884622921242 10.808864310053032
Sc 3.882881563421489 3.4340512657646602 9.39965383223293
Sc 2.0056838085184223 4.6949993550896 7.064034614809941
Sc 7.008910409857973 10.599024301614733 4.062393711178466
Sc 9.516940244897693 10.67542999693764 7.10269240878955
Sc 9.375679973817842 7.73925738814572 7.804145223852281
Sc 10.930764320859906 9.491424172178219 9.590974894794495
Sc 3.0014700428219796 6.5692779610919265 4.7273995893575025
Sc 3.5423756020177706 3.5141595653108424 4.409894484302134
Sc 3.917485598350465 1.899093776348057 6.876420308881091
Sc 4.845750853527509 4.7253947322372145 6.798585553960107
Sc 9.949873767568912 9.78249422095393 4.375257839502872
Sc 8.274987160222805 7.787205380388961 2.6352126298116048
Sc 7.670338689707232 7.832901604992317 5.317765247888831
Sc 6.69153782518516 2.6527475488361305 8.348791650240607
Sc 5.237686625126815 8.343600901765704 3.4680768081852276
Sc 9.290449995679856 4.634660373260237 9.526945714490921
Sc 11.656621275543221 6.539539041261745 9.102530847881207
Sc 5.822954902342592 5.483768101407685 3.767571187193049
Sc 6.516390961197064 2.825915145136587 5.244767233070765
Sc 11.973078810477764 8.869643310665822 6.783876338624768
Sc 7.611260617591686 5.3845729618321 7.247166590219038
Sc 8.68752773106797 5.019280709180811 4.29000765426491
Sc 10.647806994964602 7.056143459312105 4.785038257045447
Sc 10.565049923584363 4.822745864561757 6.772945821654207
