32
Energy = -163.30410812 eV
Sc 7.683102761793998 11.281897174000578 6.916452179606027
Sc 7.111941183261782 10.84731456902296 9.947876919201299
Sc 4.975756151710142 12.055326869173204 8.27679945155413
Sc 9.022718739660192 8.707255641014779 9.188806100856915
Sc 4.839546367415115 11.217078083664239 5.501548501781261
Sc 8.968357614390348 8.408777808234722 6.239029751484107
Sc 6.808301523018663 9.425103193431024 4.235539355050142
Sc 10.903984977364743 6.412143554253818 8.11865629659322
Sc 11.323491757845263 6.771476176703322 5.1107557697491455
Sc 5.77495233975841 9.117083488633376 7.635668756955802
Sc 6.741747304472789 8.007853103737881 11.111178391041202
Sc 2.877140590904377 9.877655260505238 7.529268260447768
Sc 4.301545424664449 9.97852397859133 10.329096714539958
Sc 8.981348017805201 5.673747767466489 10.501284004079608
Sc 8.623007936134595 7.038116181525434 3.438612006237211
Sc 11.693619241354714 4.0434592078507094 6.158099205303749
Sc 10.041514045636402 4.306839684960814 3.6518568386396932
Sc 7.014807031383984 6.404693935974552 8.56855053747267
Sc 8.82523616232346 5.223429080466107 6.27025208825952
Sc 5.990322728356365 4.9730170131202955 10.900537550534786
Sc 3.7752615932837355 8.533187821922601 4.542847056222419
Sc 4.062278103961466 7.124016080412157 9.62388031731077
Sc 9.093046705984447 2.321651475961631 5.884112578880835
Sc 5.613303594923621 7.082708872704554 2.5888663959055815
Sc 10.193127750769925 3.522918735274874 8.606226928879504
Sc 3.099297389422333 6.917278994384379 6.841077063900097
Sc 3.965659431772613 5.135386635829738 4.425522046350963
Sc 7.312949586190062 3.365978284328356 8.622194662779897
Sc 6.981836855549984 4.462507672640866 3.3612572693955123
Sc 6.051542019398738 6.630854054865725 5.566755652214042
Sc 4.573338776427012 4.623572436962599 7.941554489645794
Sc 6.145703498944736 3.3390357607049013 5.858931402600933
