34
Energy = -174.08841399 eV
Sc 7.048890212230898 10.910201124420848 10.684034909159681
Sc 4.755445216576526 9.230671357987058 9.704616561486395
Sc 2.9748085811428604 6.873088854183551 8.312274140506217
Sc 7.199093427991564 8.224727058550869 11.833405965694551
Sc 5.520311199392154 6.2794166735377 10.12638683004518
Sc 3.5802945785215976 4.110016736184863 9.093197902922755
Sc 1.4350130298950488 4.497233222066196 7.105162245276477
Sc 9.584322629162493 10.739788728908472 9.239765899135412
Sc 8.4036560119412 5.429945768430516 10.370232119984482
Sc 9.389917973199154 10.347506639226442 12.292765409556669
Sc 6.577160769883681 11.150873925867945 7.726597108772097
Sc 4.822813093826779 8.785848597096141 6.574610710483381
Sc 6.543839277307649 3.475428527838824 8.922041573313976
Sc 3.264270435483265 6.210521805219434 5.367136268029173
Sc 9.928635949486273 7.978343940971873 10.49159455386497
Sc 5.585117851252515 5.801127226373389 7.157541342394382
Sc 7.4695300533388975 8.438448627373132 8.674347043060042
Sc 11.20983036377361 5.425433542676156 9.192700502264387
Sc 4.1168344318196075 3.353860856335279 6.222733240963351
Sc 8.689582972236282 5.908830935872038 7.347401877671112
Sc 7.4206730736180475 7.734270003250743 5.1641936372410635
Sc 7.248022791395081 3.362536192776236 6.0393867657042595
Sc 5.881709698583985 5.200178185160025 4.0680472653253625
Sc 9.558471798284241 3.211613867878742 8.079034688216751
Sc 6.467710809114478 10.558005324259367 4.515310084793767
Sc 5.063894061552142 8.107787115867344 3.4113078998079867
Sc 9.04526521697643 9.997819345785251 6.293708895860155
Sc 10.878868569477877 8.039345428260306 7.673262187591711
Sc 8.896055074982382 5.10181147694974 4.251639482898198
Sc 8.990427904993924 9.819406512630826 3.2124430063248965
Sc 11.248588176720975 4.996977786550403 6.24482216943945
Sc 10.452672933604244 7.596974132459885 4.669970759245141
Sc 7.794257646071651 7.2314177683987735 2.2284932028422557
Sc 6.5882380054116085 9.934248576343814 1.5041177751042154
