38
Energy = -196.89300816 eV
Sc 8.04815039430419 12.511379592951634 7.112085219585221
Sc 4.89377620308408 13.010700303653602 7.597659973483155
Sc 6.48128283984483 11.317906929737624 9.806099328275835
Sc 8.509460850425024 9.765455053896575 8.190123518484322
Sc 5.997615328651342 12.32316856797773 4.78611984747141
Sc 3.4067220163871714 10.454001217815367 8.73665735114317
Sc 7.970166562802656 8.432652971260833 10.948522880495622
Sc 8.430451097239198 10.316717876051907 4.861547534316931
Sc 5.883808063376337 10.32499035347736 7.006963372645637
Sc 3.32699955235005 11.070954483458069 5.709264894871597
Sc 6.413452571159802 7.588624858559947 8.42751243359768
Sc 11.066358303983792 8.764430091053415 9.6970021803198
Sc 10.948470777368797 10.156953773427691 6.739472149862039
Sc 9.959744341040304 7.295386418275738 7.511668183525276
Sc 7.586545398408966 7.554594177214011 5.6739863595573885
Sc 10.601895580302653 7.867562730437674 4.655322340564915
Sc 11.664099291430878 5.681094570527042 9.286794839115586
Sc 4.979495837152003 8.819194610434277 10.61159439707601
Sc 12.76838337690973 7.69524252581995 7.25969943943889
Sc 3.184835170140078 6.722288232815121 9.347043203248164
Sc 5.440171999877025 9.176774730761325 4.2087700559557115
Sc 3.7615904815032275 8.058332217549387 6.691334451365992
Sc 8.575826121019597 5.7404929722946845 9.664882757087174
Sc 5.703847145060843 5.825237105410115 10.825232556796246
Sc 5.388168014331581 5.056981217199032 7.74605742655592
Sc 11.368668726885414 4.952509250902268 6.272626258336866
Sc 7.472987581805924 7.0371412724779265 2.8932922237950933
Sc 8.17523866774929 4.827622007543633 6.621398729934599
Sc 2.5459150056891153 5.100344121795959 6.838495331711249
Sc 5.069425821818374 5.964989805549505 4.857165017000938
Sc 9.833821290019287 3.138091868548975 8.362155775280693
Sc 9.506233354024037 5.226158304791308 3.976135068304043
Sc 3.862619529737453 3.287966486661278 9.00418147516519
Sc 6.976176089750739 3.286212863062647 9.804368937310153
Sc 4.325563546812888 3.023471354901745 5.838259823647447
Sc 9.50544499264381 2.5112724779798246 5.297786270217906
Sc 6.902400012103324 3.729564934404798 4.11536057056307
Sc 6.924674117897062 2.181429637586084 7.044552406890499
