33
Energy = -170.06386753 eV
Sc 7.987920015457899 6.02277600171242 2.34826343910933
Sc 10.071774079339724 5.283970081818472 4.969651674242083
Sc 9.557706950215035 8.34043561415506 4.0248323453547785
Sc 10.984347848652506 7.729080871039848 6.851544403422726
Sc 11.328494278669027 4.638003717932137 7.9132773220718695
Sc 7.876045726747952 11.024408493432672 4.449068924544507
Sc 6.4378683173331215 8.578276576785788 3.258107222412588
Sc 7.6894470264760075 3.5682526819425253 4.118746250016604
Sc 5.177795750553988 5.224727026966766 3.4208972856340947
Sc 8.94323226764657 3.050632896670336 6.870625964198935
Sc 9.119532264449246 4.042739818368498 9.90396344243167
Sc 7.178252786268037 6.453104195503277 5.085269850789815
Sc 8.708714724588292 5.874027573393031 7.620272274539529
Sc 10.330541050472208 6.878779170157769 9.961184181437876
Sc 8.125519350468315 8.9155743725256 6.599046882336328
Sc 10.346588048903488 10.761201031208815 5.967894920515929
Sc 5.956666700813896 4.100979413536616 6.547383118739933
Sc 5.21875117290244 7.13664092225917 7.3694763304748125
Sc 3.8962509682512425 7.721510163112626 4.61896979033823
Sc 10.042175504163879 9.937116936121182 8.969866346094342
Sc 3.1916245243680033 5.321859830440564 5.873341131868724
Sc 6.320398404180357 5.225704463653117 9.404430879100575
Sc 7.5582934278548155 8.265096983585002 9.536483069178859
Sc 5.311353382908394 10.02009299582727 5.881836972196815
Sc 7.720384740252294 6.357065709955804 11.82397324461028
Sc 3.339402604467398 4.999404779707336 8.726696095870588
Sc 9.194713918148535 9.052571734087122 11.931511898502919
Sc 4.335603378033562 7.238580446807861 10.46741329343464
Sc 7.563503999031593 11.550491127939633 7.5164077010880215
Sc 2.6418492377687115 7.894226508727631 7.618357656896004
Sc 6.136218125187595 9.081124595647484 12.003720247301933
Sc 5.093253093285232 9.916672304256881 9.02821138170213
Sc 7.644478453691068 11.18808521832669 10.524550190304895
