34
Energy = -173.84629159 eV
Sc 11.475105531082315 10.972298084660226 9.406926971606822
Sc 10.1414235225726 8.499401233015636 10.324921077918997
Sc 11.808987740726288 8.28200428749173 7.727751038994419
Sc 10.586616053921057 5.571116899899386 9.374800876248129
Sc 10.812986007250698 5.468724088809549 6.219272675137642
Sc 8.332129099517651 10.852561672870843 9.950218760318197
Sc 9.52129294418116 3.104601520169555 7.562918560800094
Sc 10.521501222564915 2.8221568449370626 4.751917835361116
Sc 8.529683854202485 6.217403134071997 11.738778300879423
Sc 9.608724424675739 10.29910134132558 7.244968251112078
Sc 7.573285149874818 4.7553650925591615 9.35534441122189
Sc 8.9627834607788 7.459675945702399 7.715213463390664
Sc 9.69841793788082 8.11592406127456 4.890120283552229
Sc 7.604886255238797 5.224671309108115 6.451258449050177
Sc 6.740069868373223 8.972288749919755 12.388061416687393
Sc 8.822457365738604 5.268400870428708 3.8305509938131945
Sc 5.466056092720559 5.8105005546655715 11.310096302102533
Sc 5.206285999827323 10.69111068891701 9.913711080387
Sc 7.554048847974646 2.694885820107491 5.130283862260337
Sc 5.136324024422218 3.9153239759743004 7.126103747151733
Sc 5.451547675816493 6.665177555364018 8.162910677675672
Sc 5.75434617846465 4.974627280656201 4.078565557460651
Sc 6.566300257939736 7.691344898081462 5.172187910860762
Sc 7.478005106784069 7.961541916613113 2.406614645655609
Sc 7.54103913549265 10.324557040947514 4.511375604966034
Sc 6.536416698048312 9.688689883829644 7.419684036250924
Sc 7.0578716237758785 8.04860415349648 9.916833002580509
Sc 2.954938480047293 5.890151986510282 9.068428345734727
Sc 4.062278967419526 8.216205023071062 10.789813594682741
Sc 5.540601616661391 10.293130191654225 2.221776414482329
Sc 3.688137387006439 6.635034898768889 5.83897324381787
Sc 4.46201201179335 7.678598265091754 2.9456961239786343
Sc 3.439918078786609 8.87167121954381 8.010202272053858
Sc 4.492818088375236 9.811479355997252 5.123030566798171
