37
Energy = -190.57316107 eV
Sc 8.075678321640922 3.5636696390451847 3.1176017615938703
Sc 5.008565593330153 3.79988788366264 3.6280536841687394
Sc 9.714190083961428 6.194528357182703 2.2845987135420938
Sc 6.513115632232703 1.3018518558117467 4.625069592294752
Sc 6.223633478104785 6.351803595248762 2.354064470334025
Sc 9.466691326412972 1.6473561252820197 5.292764461998515
Sc 10.546981598032398 4.503060445640047 4.953254736846096
Sc 5.063625446394171 5.435959466045381 5.853115726572637
Sc 8.099614615311472 8.618601745313306 2.5853758312525725
Sc 7.540018920188441 3.734942727352445 6.201488310325605
Sc 10.25741604145625 8.266773197229464 4.674494257092799
Sc 5.166146889742229 9.631001123110495 2.8726094492688325
Sc 3.5590518844409793 7.000888763806532 3.8180898594513324
Sc 7.478517052568501 1.0772096337884638 7.518144640243273
Sc 4.794320929378494 2.5426400879466593 6.8279574193064025
Sc 9.7111384602719 3.262706637326476 8.06577691106175
Sc 8.162892054370776 6.263915867339483 4.6932594651173
Sc 9.802181670823268 6.246294865564136 7.3462131267756705
Sc 5.984954591399949 8.182420314519874 4.9796326661278405
Sc 7.799380886204177 10.696268030974535 4.611255530944903
Sc 6.659946404508572 3.5720432929509216 9.199904663965986
Sc 8.145079760744656 8.72749562092898 6.7906543969588355
Sc 6.6853395164311165 6.406610452477844 8.123035744526643
Sc 8.685460568994973 5.719083454572542 10.258472315720216
Sc 3.9766798679009545 5.133121410599315 8.709560936937462
Sc 9.25312289944059 8.617661066652172 9.526321929845553
Sc 3.923939017126724 7.891858345803843 7.2786904370200585
Sc 5.38338327727391 10.695340997052785 6.528072444561083
Sc 8.255304965646577 11.419694500580327 7.83217793549487
Sc 6.133160256778364 9.202419807891397 9.270274403760826
Sc 5.769168927023097 6.107507564684568 10.992660981482047
Sc 7.502476353455519 8.29251047939662 11.949294574836994
Sc 3.5199905851900626 7.881514918080017 10.34141598966259
Sc 7.924187429856894 11.06591780570854 10.868115640573581
Sc 3.326259954327917 10.508566677710704 9.028374734975063
Sc 5.640631218649129 12.269193903371034 9.31010627083645
Sc 4.987473317476641 10.3473323113106 11.708433255156171
