37
Energy = -191.43797951 eV
Sc 3.828445758318038 7.6985400067433565 10.113210508557371
Sc 7.973783064526019 4.199309233042373 10.971963076574177
Sc 6.613600746010594 5.9701038323861075 5.502206693460247
Sc 4.796117652025152 7.591611246565141 3.6791148456298677
Sc 11.008512854309494 5.084018847823254 4.397276071629782
Sc 5.077991802537787 5.097888031193783 11.411662122068604
Sc 9.535394825269147 10.494535788376018 4.507296631885502
Sc 6.69371743920236 9.370020081047839 5.228938549614841
Sc 2.712287882519831 10.008476352791188 8.375999595622432
Sc 6.603841566978257 5.510555607124625 8.657669065340968
Sc 7.977490892856596 8.263230401925757 7.920120325480266
Sc 4.730413205103049 11.19076740085827 6.433420624047672
Sc 5.552940952755701 3.375491472770875 6.699458289020463
Sc 12.748459589127146 5.102743446041722 6.917534568386358
Sc 9.394747695613383 6.702894264621304 10.301581084601391
Sc 7.900635100082795 11.317773318670243 7.212767714512399
Sc 3.5258447154151806 5.69753911912847 5.745690966623793
Sc 7.369133951088994 9.343392876164351 2.5331705538569915
Sc 8.286686901399333 2.913293335007901 8.146215965540934
Sc 6.970692571160888 12.022586515332364 4.062329458778538
Sc 5.621276399158586 2.7465643765226195 9.734496148943993
Sc 9.597891538107703 5.545030421034763 7.052944830098204
Sc 9.083891666233681 7.602016350175633 4.8851633452498096
Sc 10.954008663277158 2.837097405448441 6.49079830308599
Sc 5.783654499845921 10.128322868157365 9.244247325131884
Sc 11.515935129164399 7.453180292045023 8.515085116722304
Sc 4.742944506895335 8.011162343040546 7.242088864845248
Sc 8.34362991329697 3.536848149439382 5.129219201017356
Sc 10.423549988590478 9.807714107535348 7.199687077350985
Sc 9.120567588027633 9.777634441339439 10.00692033539638
Sc 2.6588558268755804 9.01642455739197 5.352119028231884
Sc 1.793249277171858 7.279204783001452 7.7374233098256
Sc 11.894999258307047 7.8316856576484675 5.525717949525069
Sc 6.768651024216351 7.6639719015016485 10.91392598644847
Sc 4.574218960227166 10.482902987372267 3.3223566556771553
Sc 3.639110494335351 4.91922260402338 8.65660331164801
Sc 10.887285872078323 4.250034761317666 9.33508258736529
