30
Energy = -152.904496 eV
Sc 6.6359967881629425 9.843590698533175 3.4310661499080686
Sc 7.504414485180047 6.892760037353128 3.540815065386175
Sc 6.517155918567182 4.765943451970322 5.476919723556994
Sc 5.233928119631693 7.996080454354611 5.220050935639663
Sc 8.213184530213011 11.97513442882937 4.980576562327387
Sc 11.367809106667037 7.755609498683409 5.9785911643497345
Sc 9.793917364989976 5.086919917148909 4.783981963435802
Sc 5.357265690614748 11.348754366567746 5.736934348585677
Sc 9.393318825222376 9.110362129524892 4.260322624622674
Sc 10.376277031595242 10.702486844412709 6.852171946176037
Sc 8.396198137504959 6.697844380026841 6.434795556200405
Sc 9.78113486848084 8.298398735447451 8.35959905096764
Sc 5.5596318381904535 6.825577431339141 7.956870375882727
Sc 5.95165036648149 3.796468481135422 8.39741293196502
Sc 7.448432530155652 9.501004459252579 6.533726188811629
Sc 7.506337092540617 11.903795662345813 8.094463090681193
Sc 12.386119040317098 8.725962396934214 8.80904517666034
Sc 4.876447963848416 9.95923939017744 8.46205846125709
Sc 11.02607100737767 5.721048724038293 8.16837713474292
Sc 9.765239221750534 10.686573116150946 10.129361490567868
Sc 7.9920132156236745 5.99461266219021 9.460071809308532
Sc 5.305095779264679 5.423032297367364 10.778904398841266
Sc 10.28112377122563 7.475319343714697 11.075854573168815
Sc 8.661373465284152 3.759733394622963 7.478537074228817
Sc 5.299773212665247 8.400558662640565 11.544919779265214
Sc 7.958944474363045 3.62443959622806 10.760322873114632
Sc 7.3236775993009715 8.914915187754003 9.619446893774457
Sc 6.544212354969516 11.305523330710578 10.981579598278842
Sc 7.495212533916109 6.380908327081842 12.440945715868098
Sc 8.204592753591786 9.283951681159294 12.408826430121945
