32
Energy = -162.66578087 eV
Sc 10.149074039686822 5.2423428316141125 12.117858564523893
Sc 7.481867505657796 6.16223285098088 11.747953150115983
Sc 6.901343294076934 3.4078209121959855 11.88773893930842
Sc 9.445339877987168 7.976573029385104 10.59576732511685
Sc 9.080013035093383 3.6522673875510514 10.052858404207607
Sc 6.362756830922223 8.470970430625966 10.094617539752136
Sc 10.829871061955416 5.732548971045368 8.979403742000951
Sc 5.057961809219533 5.57267345158198 10.208630117338346
Sc 7.784310148812825 6.165374713085186 8.681828364420324
Sc 8.117872080750871 10.62028308502379 9.016933254257477
Sc 6.517964767366393 3.292562131065879 8.768513337197628
Sc 9.069751665335513 3.798203175724731 6.960636973998819
Sc 5.049792986661875 10.95352082610919 8.51703726766447
Sc 9.89225969107782 8.41148802045251 7.654454516562389
Sc 4.261960905891671 8.076233132380032 7.89371545682041
Sc 10.385339873363154 6.098534539070337 5.632508711072897
Sc 6.9619675179619 13.20049187671982 7.815375662192728
Sc 8.635827525009017 4.480259391655407 3.6526633971152074
Sc 7.307419558977403 6.2200073176688 5.62871354441134
Sc 6.464616085169728 3.2451754279242278 5.593484279144271
Sc 6.951112168951906 9.014003762665181 6.818792188191939
Sc 5.668056481792534 11.560509328955654 5.673724120829866
Sc 4.8516729292131995 5.210719180525056 7.121474685777939
Sc 2.610781112391544 6.9796797996843285 5.737995759137511
Sc 10.148295346429116 6.82834173487467 2.5655213232197567
Sc 9.211181176562842 8.640439210434893 4.695982861691219
Sc 4.9385890720096395 5.312093947233355 4.043227376961064
Sc 4.953138473735319 8.30912229914008 4.534891798692547
Sc 8.662072741708524 11.40179516048924 6.069478579898111
Sc 3.1058467341272906 10.01716538206233 6.07381649205068
Sc 7.225451249484391 7.112951164213558 2.754850967038383
Sc 7.152713878752606 10.132540638781013 3.518074319332673
