39
Energy = -201.57611873 eV
Sc 10.094043289618199 6.814902458988813 10.602100342244192
Sc 10.220032059546153 8.334163369271886 7.983027643949964
Sc 7.035710164664236 7.018959661635349 11.852369606812887
Sc 8.4539796859645 9.486140596465706 10.313566246535716
Sc 12.069072128642814 5.885835126272334 7.818982362274471
Sc 5.96822911128364 9.967204618447393 12.354444332046507
Sc 7.458309895521625 4.1504944240053225 10.352622670871954
Sc 3.932061526536244 7.723585490591812 11.991669108102485
Sc 10.205285378356125 4.157261196932775 9.416732995197517
Sc 7.871364136514958 8.0820790548239 5.8705195427198875
Sc 10.697321053763506 7.470963000993247 5.010845725638583
Sc 4.8383654165307055 5.70021559545828 9.815321569942327
Sc 7.735180848856951 6.650217512157013 8.735798531132733
Sc 8.191790826912396 10.84072911104222 7.552290990192196
Sc 11.897985274091676 4.720071131335685 4.822135230593867
Sc 3.3514401837043963 10.418107235230897 10.771492431808314
Sc 5.6336203753435985 8.652048116705437 9.824051715115385
Sc 11.498441157411973 2.8883590576640517 7.102410999419624
Sc 5.85313633528428 11.628499490154354 9.522446375539648
Sc 6.300794751247368 4.172523301672684 7.524932586494436
Sc 9.474000837897714 5.1295903331854396 6.690637570440326
Sc 8.516327653228165 2.296193651525223 7.7221161494696045
Sc 2.9475971794791502 8.153078728673886 8.722562315156587
Sc 5.78012874853305 12.633703345582747 6.590891764410949
Sc 5.429832497479509 9.690747262284981 6.901839251769528
Sc 3.0926648001427908 11.15590034950454 7.675494040063954
Sc 7.236310499677209 10.836109860587909 4.623565108496885
Sc 9.361098899896135 2.8627749450859206 4.658161483640959
Sc 5.023856051595785 6.657830362818265 6.687280736700359
Sc 8.423926212781087 8.330121289889407 2.908238092910712
Sc 9.522063582913722 5.489702016052018 2.900611122676697
Sc 7.238934323667465 5.339406513247922 4.711185630564288
Sc 6.434485083142433 2.3859385119729084 5.198849653364769
Sc 2.7890217130492942 8.603350056302368 5.638499261489204
Sc 4.076270908231836 11.115402504034432 4.602880381301365
Sc 5.401008326517122 8.238384318804757 3.969104973856649
Sc 6.982981052487099 3.3451922946119574 2.50533386850793
Sc 6.55918876398529 6.1898787018813755 1.9367974553868654
Sc 4.566375403918575 4.894438999690796 4.006498492465807
