31
Energy = -156.30017036 eV
Sc 10.976900007668686 6.357668082483562 10.747769731239655
Sc 9.548110501495646 8.817952953156947 10.32808120839666
Sc 6.786213341466477 9.097787349990872 11.534347067159072
Sc 7.997500061891119 6.214259210411007 10.966128639590828
Sc 9.340026791764023 4.002652686685332 9.227887127009792
Sc 6.480487560580301 4.497642276445494 8.541816062153837
Sc 7.303180483999528 2.5079826161070162 6.264439496461374
Sc 5.38994832476873 7.294209368957325 9.513121555146647
Sc 11.263907219827672 5.935942412880281 8.015822874897484
Sc 4.467781087954147 2.5669080238631343 7.4405965899913316
Sc 11.286666543714604 8.82519802396201 7.9745981041278045
Sc 7.035188200441028 9.882381950657393 8.668669812868298
Sc 4.38289316187241 10.112202643990305 10.042996255934094
Sc 9.810000086177219 4.0549734689361205 6.364654127487804
Sc 8.473794629511424 6.997565807056678 8.048152213585901
Sc 9.603463953448628 11.307961577221588 8.592587184964197
Sc 7.056563013542136 5.452941269519129 5.6242296118216135
Sc 4.545945561899037 11.053358059917535 6.976490512597012
Sc 10.1878670168117 6.7951376623806645 5.303393111790213
Sc 8.768015576205652 4.253158518862403 3.623557988935287
Sc 5.847103944908173 8.138118227745162 6.475966464373279
Sc 4.1024597785608705 5.637094759155125 6.918728517686331
Sc 4.832136750766088 3.6562982939955133 4.714068745107609
Sc 7.444238677448969 12.143644814127795 6.655613439459809
Sc 8.830979931427104 9.501724310979927 6.1487359667269175
Sc 3.145140116187547 8.569393182818018 7.7101265872214215
Sc 7.702099784658452 7.560834680609041 3.715538779745608
Sc 6.327198658278066 5.0648061840998135 2.481816382325607
Sc 4.59673640412638 6.810986783674575 4.10206445829652
Sc 3.2201309440490604 9.453649011182645 4.924866778456641
Sc 6.076023421419406 10.247471268733683 4.512716767073755
