37
Energy = -191.98774711 eV
Sc 11.620577433813075 8.388188507764772 7.545064669500367
Sc 10.131764530937819 5.885942311006305 9.349316129271074
Sc 10.79604167345742 5.101334407888455 6.374543554671639
Sc 9.262963792232126 8.819408873808952 10.036290913593433
Sc 8.385385691910953 6.476996892093628 11.909579194650341
Sc 9.751160308831148 2.9639727697456113 8.299596235704566
Sc 10.7751530647945 7.408536807177191 4.565403871994812
Sc 7.714259427852566 3.7738340835127864 10.412549826448082
Sc 10.329599596235209 10.091731338300466 5.18082756915233
Sc 9.255895121584722 10.942703965517264 7.817396198208012
Sc 9.086854231557957 2.4615372407404728 5.4957790962384205
Sc 9.075660919449474 7.81791245960351 7.01451458146537
Sc 7.22337153771644 11.285007397324886 10.105571195086766
Sc 6.9866893577203255 6.415098055748199 9.271594372303365
Sc 6.189687965207219 8.631374706330595 11.287878319911611
Sc 6.884727236969566 2.2209422819818605 7.76137034430208
Sc 7.759722536620374 4.7937752491540335 6.787932182512222
Sc 5.542286986379443 5.602284110525398 11.726733491689714
Sc 7.30352656060667 6.980007123759325 4.7261755884542564
Sc 9.397478035644536 5.021919162211373 3.573618071415351
Sc 8.713346348240789 8.690525145530444 2.743018261608684
Sc 6.280468234870826 12.123715315240602 7.415100905958205
Sc 4.7680958241907305 4.2751074445605175 9.019049924497079
Sc 6.781285109620782 3.7819158676347007 3.966859641575282
Sc 7.393907750529492 10.193741480471274 5.107772304721875
Sc 4.306726434819277 10.424594784238554 9.25216957912656
Sc 4.928927968380719 7.008839522083 6.674534380008618
Sc 6.6562680427593595 9.252580134363564 7.98362483101063
Sc 3.882528162713338 7.257618611172956 9.612071649110819
Sc 4.772012558562471 3.8348635929468644 6.151751411259533
Sc 6.975898191492056 6.229096080266805 1.9510743978551202
Sc 5.3960695703547366 8.638320980116466 3.221015733417937
Sc 4.408447689999081 10.077090760986676 5.979009706227208
Sc 2.466620692233174 5.712585275416916 7.030165638565794
Sc 2.257928866733286 8.672728229574437 7.534236991662272
Sc 4.4756845517313275 5.7036865861475965 3.8366284892288305
Sc 2.632530866306239 7.865430035753799 4.731212254276922
