35
Energy = -178.8828821 eV
Sc 8.605376423817154 7.741300309814609 3.0259263787121005
Sc 9.399977007504372 10.671718724061693 2.2962906942152004
Sc 7.9648268712303745 4.717609156238751 4.099892629929954
Sc 5.974546425325073 7.075004099353587 4.550588077743536
Sc 6.915580479741748 10.096051330204638 3.885773502537492
Sc 7.437809037661396 2.1905704276700124 5.7132069521924995
Sc 5.175739447788128 4.228115150733402 5.523192642759903
Sc 10.994906993971632 9.04648271544841 4.096308964044537
Sc 3.081810445411626 6.767159249347117 5.738144552032862
Sc 4.106290296980833 9.543288288054116 5.287898964450846
Sc 10.234162464947715 6.305037370247813 5.361297859183184
Sc 10.004856856980386 3.3952359191667116 6.520023717668896
Sc 1.2482510075059825 9.239012588148134 6.179639989389272
Sc 8.260872494772144 8.530337988665693 6.00256969016232
Sc 9.386679081723408 11.207670002168355 5.359637927970166
Sc 8.769011536351023 1.0481996473207802 8.035955852350247
Sc 7.591333309298397 5.331623048006787 7.016584403367131
Sc 5.368893018608803 7.89905910150615 7.546748282779797
Sc 3.403784956219201 10.062630571043139 8.233128304184515
Sc 4.127824480628258 5.175415310378504 8.222447368669886
Sc 8.244860549938487 7.832622365519726 9.136893863811192
Sc 11.015080308284281 8.857090959655988 7.112302644355844
Sc 6.491181267323374 5.404069945126014 10.189580502120446
Sc 6.4139776103787485 10.85417998771094 6.881960822148067
Sc 6.271678398282581 2.8004038094439485 8.310765800530188
Sc 2.0479643961634797 7.460571265483246 8.371394646104548
Sc 10.641644118121116 6.061164561018058 8.389172137561912
Sc 8.939227954095324 3.7988919345677004 9.358864737460005
Sc 6.2011293170784025 10.016746692643927 9.884447477826074
Sc 9.029698205753212 10.682296278336922 8.57365174834844
Sc 4.263086240060801 7.584886263899693 10.336133326492584
Sc 8.833224294222715 9.846827733662609 11.606605059761185
Sc 10.997448418841323 8.655520850502029 10.152197698920999
Sc 6.844253570931808 7.818487458689641 11.950481719205646
Sc 9.415764687922033 6.332971762410061 11.344310860365548
