34
Energy = -175.17071931 eV
Sc 11.665313431732942 9.596024409457577 8.7073756022127
Sc 6.366132744179477 9.370205577833667 10.542564291820428
Sc 9.241752579460513 8.09058059302382 10.716382395100469
Sc 8.8829502766013 10.977709917348509 9.550538335861827
Sc 5.482636345206436 11.92799868063355 9.262819063690818
Sc 6.535147225784889 6.448039318203048 11.672396322114272
Sc 11.088578190503807 6.282374572087275 8.611608887549348
Sc 4.255961662302452 6.189257856750067 9.555872757705755
Sc 4.202267475808506 9.109976978249179 8.126621656309133
Sc 4.39446876934299 11.706149622022036 6.521159910510425
Sc 9.383758569604518 8.663657065300141 7.731081377392982
Sc 6.920606312364109 7.206841249203269 8.75380405128646
Sc 8.740539936595006 5.24309074571197 10.127031518712005
Sc 6.918971847466019 10.222138531810693 7.412630759108003
Sc 5.998849043777992 7.704656205005742 5.707943344772839
Sc 6.202704191804684 3.752812204748823 9.82084230014681
Sc 6.3129025788548345 10.58531420469582 4.417117634606658
Sc 9.784347824573022 11.262291353406642 6.664774411702519
Sc 6.154040434529932 2.0075138903475613 7.066878545737704
Sc 8.791073699244444 5.996647516962177 6.606905123306034
Sc 3.6492125731926213 3.5137130782282657 8.093402726455755
Sc 11.403053283481508 7.598468247586861 5.891587400719667
Sc 3.5838932139470465 9.271738145952948 4.937691429558859
Sc 3.301405855101075 6.303386153844888 6.616416170902688
Sc 8.893832127381271 3.240843239451685 8.007798764686358
Sc 6.5157747489009035 7.992108060911708 2.7975473637444535
Sc 6.012615004181645 4.8450432525324745 7.038057335509626
Sc 8.710850543868592 8.782722108950011 4.792689590563604
Sc 9.385316292884388 5.9897298424201795 3.735938277006321
Sc 8.26309396447455 3.2695858156894015 5.090511879321068
Sc 3.9577943061770617 6.485485553925704 3.6879844690953583
Sc 4.230516163970645 3.6364779376353273 5.054808986737496
Sc 6.500571797244411 5.218502877406466 3.78744546933614
Sc 11.083279067001829 4.414060715885244 5.993199822426778
