39
Energy = -203.71867421 eV
Sc 9.851514739172433 2.62957910019697 5.997264686252123
Sc 11.402551608927334 5.37454592962572 7.503744536379621
Sc 10.47980780749332 6.017341686324575 4.509176403595605
Sc 8.379915002708712 4.014920307087973 3.5569263720155337
Sc 11.88703111842794 7.862273247066734 9.57170452223371
Sc 10.405178029048747 5.750932912927372 11.301985334020136
Sc 9.602594452636556 3.649125465819415 9.05982839608667
Sc 10.005135013612696 9.053398309828657 3.697068697860901
Sc 10.88861128418918 8.376386793991546 6.684899802776462
Sc 7.926504539717541 6.83138604025764 2.6775079871540326
Sc 6.681360467514728 2.606358458293837 5.26025214776424
Sc 8.486169177258077 4.876528796455144 6.574628695870312
Sc 9.12237622240817 6.858079541418325 8.884375064019334
Sc 10.024952230378922 8.849912133607612 11.710692459784918
Sc 8.202817358038901 7.788103098594823 5.563135784588399
Sc 9.486544548656337 10.050866507446935 9.090519905286275
Sc 6.110170366006931 5.685057367589427 5.040078406787577
Sc 6.918508124282886 9.617497692898585 3.499608159745119
Sc 8.732824066903559 10.637143942833118 6.123066061711848
Sc 5.187628945145016 4.215276195127032 2.9803238616189627
Sc 4.888528935594781 7.473881822017109 2.9640592889698487
Sc 5.91670615809718 11.194673265274579 5.647073824375658
Sc 7.754614972977154 7.253475831577238 11.548529804431295
Sc 6.772020546480761 2.7515827035677436 8.235143827027205
Sc 6.8793182339869485 8.771255396163742 8.252056308262928
Sc 6.028406503820856 5.7295047802264385 8.116900336130705
Sc 4.902520739636982 8.38504433691902 6.008813260560165
Sc 6.337848298644466 11.656442228268817 8.494586089366637
Sc 7.250245197170947 4.585913704202947 10.656954882722141
Sc 4.204986579178474 3.787196958827522 6.606797293638753
Sc 6.88617142321248 9.963772500325122 10.964737643713061
Sc 3.0872095052550903 6.152167788552866 4.885686967769666
Sc 3.632757520142699 10.237807843538505 3.9740330575230156
Sc 3.4271864568875654 11.410505931707581 6.866398081390915
Sc 5.02157250892032 7.042486195675523 10.549031730799298
Sc 4.275372650065307 4.098178418597989 9.746160618914395
Sc 3.179497511953034 6.549056879848647 7.990678422582936
Sc 4.058386405807296 9.50246312636429 9.02790625824179
Sc 2.030079589425704 8.901232531420927 6.211130292775767
