38
Energy = -196.58900565 eV
Sc 1.674536629122828 8.39231553442339 6.5528808999627195
Sc 2.860758671892242 10.459627633695149 8.299399441710746
Sc 4.0900082029298686 10.032647176430418 5.273833327958744
Sc 2.3693773608668 7.554524823589668 9.574923778944772
Sc 2.2689566795948735 5.418426880241744 7.278893227772091
Sc 3.6688648447515275 6.824792818660105 4.814576353911241
Sc 5.078125772654429 9.233126926524912 10.249688430552629
Sc 5.732855710759105 11.174636100119157 7.759770771360707
Sc 4.536105670896225 8.177303109243454 7.4893348629992875
Sc 6.9962769843452906 9.079630748193567 5.994748589631767
Sc 4.411794942064333 6.507107547694174 11.598965747230919
Sc 2.762339446130363 4.375276631790079 10.227599422033098
Sc 4.3237278466452045 4.044075344021078 5.655659924485482
Sc 5.947942447583912 8.08235932381098 3.3824318467418535
Sc 8.862497818839536 11.211028343520171 6.568284091306716
Sc 4.570390557960943 2.6651701864755175 8.298574436057732
Sc 7.954824827000183 9.334438715063511 8.874859022944124
Sc 4.918492761669023 5.56891103565436 8.667827533551588
Sc 8.572920540470076 10.101149585265105 3.460283111461045
Sc 6.574958112303804 6.0157136982565245 5.8402621587008055
Sc 11.372144212950138 10.781783562421317 4.911487140429758
Sc 11.009235057919813 9.306649478203811 7.941426815911713
Sc 9.799277548608258 8.366594746768646 5.418723684873413
Sc 7.251897680186481 6.607134971595417 10.322335472034311
Sc 8.593465258970586 6.936100357668579 3.0923979218903255
Sc 10.160429542413288 7.655998956774618 10.373894907178611
Sc 5.840653413949032 3.8854427396074906 10.958921077259392
Sc 6.088506446750891 4.837574752486599 3.2688034609015455
Sc 9.066741161345556 6.527594773452372 7.698287234767668
Sc 11.380936069684074 8.433555973873139 3.051422515762417
Sc 6.901673482542372 2.6991123129295946 5.814275413802162
Sc 7.39808244562096 3.9001447952312307 8.382511321156382
Sc 12.913688610098067 8.287235892027415 5.7356253467678595
Sc 9.762911953013816 4.717273291337495 10.086574425414057
Sc 8.845058732772987 4.5013283767736265 4.618784144496595
Sc 11.94941499080723 6.327690878464623 8.164259205295842
Sc 11.376396660124867 5.875798657355975 5.1051321083014285
Sc 10.105475658414008 3.6757551191622415 7.133951931537985
