30
Energy = -152.3211146 eV
Sc 4.297496367449431 6.679893733975604 4.2574882763649
Sc 6.1079976005497985 8.87274642604489 4.168775693415444
Sc 9.055930780784701 9.403886270636724 4.658094332043019
Sc 9.924059176961817 6.497406840976122 4.565369189760219
Sc 3.442407126029981 9.289213171799368 5.793326001601718
Sc 7.143680533721592 6.571839117770288 5.877177649984474
Sc 11.410067565640132 8.671403445431686 6.530377017917949
Sc 12.213990149228428 5.48075797276581 6.219533653019393
Sc 6.97938019890773 11.280203726495406 5.796800857803328
Sc 8.571089074473832 9.108488468346868 7.444500277687792
Sc 5.7993806255194515 8.918473632093002 7.386331159569392
Sc 4.12478027541652 6.682345703586466 7.184918626406084
Sc 9.939239185651353 11.558584037455162 6.7181838155480085
Sc 9.805167315627706 6.30805247158789 7.547569619062437
Sc 6.629352219122059 6.094472103817207 8.8987784486841
Sc 9.431346391968606 3.9261088865833162 6.46201806211515
Sc 11.590351348120166 4.201198597196524 8.81426198030985
Sc 4.643163382066151 11.579535443865737 7.780905902482269
Sc 7.490728185862778 11.352828287343765 8.970289662996429
Sc 3.3266191223033226 9.200142751753484 8.965546350881942
Sc 10.616396870657542 10.091821317926396 9.418770218077952
Sc 12.111600646406757 7.2220947702213145 9.315625187287011
Sc 6.059748170595039 8.587859219471547 10.391012476579728
Sc 9.068050191956461 7.594779127415095 10.022754384257157
Sc 8.025057575756056 6.709769308071964 12.298202742123719
Sc 8.840262750974587 4.370031025301166 9.756154948628009
Sc 5.032772758427508 11.201876759938703 10.770014892365316
Sc 8.221855741091165 10.044288794684102 11.681570334023876
Sc 10.689988941399939 8.396573489022353 12.277676062028036
Sc 10.883006838662887 5.578292209755371 11.502939288308363
