37
Energy = -190.23856022 eV
Sc 6.471765232602516 6.377624806346519 12.111250262505722
Sc 5.416063340919239 5.766645075206581 9.35400917043352
Sc 3.682847007190223 4.468160214261887 6.935506046148722
Sc 5.2426447097068225 2.3388074472299403 5.310028019271
Sc 6.681042588025583 3.3450200613975545 7.708677567249776
Sc 8.3840121673371 4.929050363781487 10.080080851298193
Sc 8.131945488489015 1.4520019546432374 5.961409116884646
Sc 9.451720490528965 7.027156441234412 12.075452366419002
Sc 4.8593020038727515 8.683604725662155 10.495931159776335
Sc 3.4846322956214006 7.614468272979217 7.769522430309096
Sc 7.245047532690178 9.237509758966967 12.490977771843978
Sc 2.1403803221097846 6.6065415506947875 5.327342057363756
Sc 9.972466521250409 2.850364278601646 8.145784092914505
Sc 7.707811939533092 7.932728136406204 9.750934145760779
Sc 6.047704709308794 6.213960577997911 6.373051974147019
Sc 4.52460569203722 5.097833180785771 4.040391334972893
Sc 4.0376267683066125 10.927748354466233 8.332901303701334
Sc 2.1616853341212634 9.615640407132119 6.067786183344788
Sc 4.5084040034719015 11.347000940495972 5.471329686334994
Sc 9.827522750953733 9.797616389416307 11.048577877862858
Sc 8.891993778148608 5.318450464490386 7.073515710335138
Sc 7.5374721092518815 4.065214555286287 4.582933659948942
Sc 4.465569992078295 8.317141674990637 4.628440280761274
Sc 6.077080141117705 9.178209788878663 7.315957760988924
Sc 10.519256457641816 7.2896629477108625 8.973740426062035
Sc 10.476511741171425 3.203372587817827 5.32063560638466
Sc 6.955199201564214 10.960205372427877 9.931470536488906
Sc 8.692691454208067 8.224294430868317 6.010496664336732
Sc 7.260175122521708 7.06615536225775 3.5842159257552995
Sc 11.81924494443571 5.307158703481855 6.90978587986987
Sc 9.383496351288695 10.261923011827118 8.083631826807242
Sc 10.183366866418414 6.132106644974822 4.3756372589292445
Sc 7.097957802259126 10.108483423921665 4.312543905447526
Sc 11.503136562529974 8.467074400832416 6.101914380261562
Sc 7.085060397339539 11.915496448331398 6.878779673624078
Sc 9.865226402373713 8.92021036021181 3.3282872425218
Sc 9.781550533810114 11.08812185533334 5.28626560091875
