37
Energy = -192.1385162 eV
Sc 6.274342175860394 10.99567736619908 8.887163126899408
Sc 8.804219881477913 9.377876418631423 9.976549595638273
Sc 6.231914960570464 8.445020347247361 10.893899156920241
Sc 9.402343379686824 10.153776694079971 7.184568790998446
Sc 9.46527097167915 6.936966502443677 11.909222846036853
Sc 11.138909781452146 8.02908956595334 8.610289997762951
Sc 6.911321349144044 10.869153757749316 5.781623952452443
Sc 6.764132225013978 5.514137422866873 11.7512441713385
Sc 3.7025158181738327 8.786788925281414 8.869613982005095
Sc 5.008594706249128 6.011202284825073 9.275860019293027
Sc 4.085184816653943 10.123067329853328 6.145949892666256
Sc 6.669347454484738 8.49243804922346 7.823914601149954
Sc 11.367177720609524 5.346274703562492 9.909307762214265
Sc 9.209452187944088 7.176686111195076 6.457087175697566
Sc 9.107519594618992 9.567959057753058 4.127929368723317
Sc 8.460988001391721 6.241967775431384 9.306519684699799
Sc 9.138077760392825 3.9195443674264565 11.13650049825764
Sc 11.606045738436764 5.552512430081813 6.797205655805965
Sc 1.504978753003942 8.40374138074882 6.652395004856826
Sc 11.678057767063086 8.379664925843228 5.505153491783603
Sc 2.1473088161686325 5.976343526371861 8.150900688855073
Sc 4.147892346377421 7.027890079087433 6.083874031289006
Sc 6.703171425097783 3.42271335114479 9.21063143199229
Sc 7.466565049532643 8.040880304238184 1.9204161042183976
Sc 9.361680892990387 4.165506862617303 5.140545338923185
Sc 6.751892373859138 5.171505604838616 6.578475154811758
Sc 5.321091525682107 9.80065853878614 3.323133763019355
Sc 4.096354816898167 3.727649125543176 7.280113949066575
Sc 2.521552418771474 8.539103810437766 3.9204076091249918
Sc 9.802134290709835 6.73835701207123 3.5804290614628886
Sc 6.836199293929922 7.752262675217877 4.739416233783917
Sc 9.518827135696752 3.6252819067168667 8.032656734646471
Sc 1.7937917012692013 5.681480121636345 5.128900271917079
Sc 4.69949452598072 6.798210195537141 2.8425735957766456
Sc 6.789554110116286 2.492061606825029 5.950208483513773
Sc 7.190758321936361 5.037408105749861 3.3485151967861886
Sc 4.569350019115383 4.261708890680728 4.482439174632431
