39
Energy = -201.4125877 eV
Sc 9.112858055138252 8.996899481543515 12.575690234713237
Sc 11.043305552116522 8.556320003092177 10.164306349639572
Sc 9.533495463258857 3.4263123447404302 10.088582227483911
Sc 9.674826593376693 6.146253277786238 11.690835505483296
Sc 9.647571145813014 2.682266830861511 7.0883276142743945
Sc 11.119293116835589 5.3768929270418795 5.599433481610407
Sc 12.750201131616384 7.47060103811743 4.001088792297139
Sc 11.89800416874596 8.041746281809836 6.909867628512169
Sc 10.551158776151599 5.874178212327138 8.611636092704549
Sc 8.322499026498027 10.81900452664362 10.45215583334835
Sc 6.610406345834795 7.403927530851916 12.503685765676927
Sc 6.852631416546991 4.971433431629598 10.638450051260511
Sc 7.170226556669437 2.029892994589441 9.09535528393016
Sc 6.645037107362012 2.4142652809165708 6.23386762607325
Sc 9.74682587105018 10.031248959665673 7.699091950107421
Sc 8.277690158627875 7.72982471044935 9.70799914945308
Sc 8.278776884608348 4.631880523245436 4.834575460142739
Sc 7.8376721223884935 4.636435347805159 7.870363539088388
Sc 10.716836356861517 9.557876132965905 4.601599916216988
Sc 4.435467812734693 6.650621961605658 9.85558026819963
Sc 5.301490366799895 5.150217724536109 5.2695408327912405
Sc 6.747539193096333 10.152546685941562 7.87302599867592
Sc 9.96598319368704 6.8730718330234115 3.2342832568502207
Sc 6.201886698424962 7.036233365428502 7.513506710514396
Sc 6.503147085663229 10.548256856637224 12.792821085093031
Sc 7.769311042591952 10.363898207994307 5.077590430851939
Sc 8.98390230930966 7.47746789454088 6.195340750630359
Sc 4.859969600934941 4.178858021522543 8.1719462786407
Sc 5.677109451453251 9.208316829938747 10.416521587396474
Sc 3.7445336924520127 7.359827369467163 3.61815091730827
Sc 8.523386415947876 9.474799937503496 2.451424929647485
Sc 5.394070534941571 11.993279559969736 9.733825797124931
Sc 6.912393939511199 7.305603141558672 3.7836258159907734
Sc 3.1833520980332626 6.8026135037780415 6.744107299576405
Sc 3.656956750729541 9.643994342448654 8.199201498275263
Sc 5.102167214508934 8.897321758872161 5.613772271356914
Sc 2.520368029709294 9.736060958398038 5.22056909919644
Sc 5.280000237954349 10.090291436605453 3.1185589360771075
Sc 4.785004164322888 11.707581315127925 6.158723823030493
