32
Energy = -163.98782722 eV
Sc 6.270246065613246 4.3645743104947625 11.728073124783126
Sc 5.69080655882003 3.5818543859731053 8.665099895029789
Sc 9.544097752621857 5.880572875325631 7.957870744548004
Sc 8.480936015133267 3.704347835074368 9.88456667384977
Sc 8.067346470007902 3.0404429321796793 6.742094433443598
Sc 8.646427050966832 6.456710238700301 11.502329316064131
Sc 6.210760490100536 4.026859436157132 4.27520466647172
Sc 6.859888527790042 6.203766639100473 9.496490285038783
Sc 10.806557425097852 7.798640827313254 5.8116737322640795
Sc 5.495187515182432 7.18872352163252 11.942238864878634
Sc 3.83145030858675 6.111885856498508 9.370399127363616
Sc 10.33916160185514 8.710789023243551 9.467269420786135
Sc 9.23175057726706 5.2027458219525515 4.655383083192919
Sc 6.963997747947583 5.696118435092924 6.442817638250344
Sc 8.279795864785402 8.836969233077134 7.566220945190444
Sc 5.173482545027873 2.0217866835620497 6.271432277838566
Sc 7.23111843824117 9.174032973997502 10.37945082369253
Sc 4.034268328715335 4.973554038531697 6.441162902225838
Sc 10.799455451716716 10.575259856684639 6.944490378535834
Sc 7.988466347894519 8.054264095565768 4.754360717393739
Sc 5.477721700580635 7.823761340105829 7.415740128375596
Sc 8.843962107762758 11.379504486689049 8.962526279573794
Sc 7.3338114941166275 6.253437666143349 2.423689002825326
Sc 4.192824629610492 9.025534708231062 9.792502014170536
Sc 4.979444927394159 6.963879691158351 4.337056496927542
Sc 9.908871360545332 7.632723755698877 2.5586610974956847
Sc 2.9474463462577205 8.298065252261015 6.877635462175388
Sc 10.113608387984543 10.156263592107639 3.995733355427152
Sc 8.023009217603898 11.276041706155546 5.810213193882126
Sc 5.853925484145324 10.87342443746327 7.997433466373559
Sc 7.360616076749608 9.431483995801456 2.5121749621625966
Sc 5.453147950310535 9.797131511397964 5.168491106063761
