38
Energy = -197.4852857 eV
Sc 6.744372271688216 6.011420965562613 3.5892176776251863
Sc 3.6361336506704984 7.348231635286856 3.7184735612383175
Sc 4.658289946854296 4.834740369408287 5.197850782637388
Sc 9.257715030724205 10.747106376189574 3.242050230617505
Sc 9.423428993025713 7.683459324421534 3.6275990028311167
Sc 6.474886063900372 9.065955978883887 3.163079990323916
Sc 11.030096411985777 9.706862808876137 5.551639443617034
Sc 2.200800760953115 5.52060250676551 6.258871030579848
Sc 9.582937714265912 4.572636834104295 4.108852328939673
Sc 7.140900302552987 3.55608029627731 5.95955597202972
Sc 5.350460610474398 7.715407401560165 6.024419686950883
Sc 6.764342165314151 11.990154831444436 4.27373979017933
Sc 4.469207252667575 10.379338307345323 5.296859568536632
Sc 7.959834491871267 9.547558547403586 5.711764987093368
Sc 11.342228211678055 6.445417099227502 5.7925362344387965
Sc 9.284437077986432 12.26055399652424 5.8560098417014705
Sc 8.356649772524413 6.308661452384698 6.112813512888122
Sc 2.3714745048721877 8.428974107581505 6.238987288647901
Sc 4.213575193122698 3.583488272665202 7.928876055729116
Sc 10.011992835219118 3.965089307880388 7.158290178857495
Sc 6.572017861651676 11.592921921422455 7.514591733822182
Sc 9.953467618580099 8.18106047571499 7.8866411759412225
Sc 7.149682103979601 8.60414702870275 8.725501403549242
Sc 11.743962832510718 6.00822411572847 8.98934126847431
Sc 9.366748004458119 10.996085881424525 8.596083454340508
Sc 4.273935975920185 9.708646658790776 8.378144475450588
Sc 6.106200095286388 5.718527982985579 8.05673014564045
Sc 6.944174184148252 10.460706031292553 10.665029115739069
Sc 3.2739438888126613 6.629689107623194 8.686641465705325
Sc 10.501281639175248 3.435646578473438 10.213473661597332
Sc 8.782683233228886 5.702199970474996 9.401331274464795
Sc 9.880606604048097 8.814171057740763 10.726942725690352
Sc 7.367605092944599 3.0504196810617956 9.052910639893947
Sc 4.9277254270382365 7.973288565568757 10.68911854381266
Sc 10.475324102926699 5.993761625283682 11.831727548299991
Sc 5.392696274692785 4.962098585929694 10.712743258003117
Sc 8.092904905539655 4.120350688089019 11.914927485692768
Sc 7.543651676156168 7.219210394570019 11.721095969978057
