36
Energy = -184.36299355 eV
Sc 10.525062907769508 10.909183937311788 7.56671804693166
Sc 11.639206171843469 8.146934828424516 6.261973730911101
Sc 11.241088571597508 8.312912861572846 9.165303654196103
Sc 12.01116870010564 5.638449286534773 8.278307038782248
Sc 10.256852239928055 10.295157594215286 4.466134675952001
Sc 8.340641806196096 9.200512697148637 8.176499995163105
Sc 8.786742198626072 7.946861519096844 5.5180923213269155
Sc 10.610045822718247 7.574523852845656 3.3083353468671968
Sc 10.476762830093946 5.224958059697112 5.576225615194184
Sc 9.893474227593996 3.4217257217830506 8.511180768782179
Sc 9.040151054614961 6.27276822259478 8.068132552128358
Sc 9.142685749887113 9.216115355399747 11.00837138934094
Sc 7.869593919713734 8.97744634217803 3.0186389955143706
Sc 7.8104097935173815 11.195140385292635 5.987922076385543
Sc 7.55710880347987 11.760448320237133 9.271405464145214
Sc 8.039869548219102 5.681767309056143 3.6783190265284182
Sc 7.488903276991088 1.4373963613461715 8.310415387707028
Sc 10.154862989657758 5.941178727590951 10.719318087264368
Sc 7.983264930609014 3.4542832953692315 6.130102570941859
Sc 6.9453564901716 4.298604253717827 9.078605110192054
Sc 5.2432564313512575 11.01497917020841 7.543650752265682
Sc 5.754028968708738 8.15002333385511 8.445625307651627
Sc 6.2738686538447945 9.714092343017954 11.014300447104869
Sc 7.18834725290778 6.925744684567765 10.722208997752292
Sc 6.397950218129237 5.945684862781437 6.354498198624971
Sc 5.740246101301885 8.917073254953488 5.420439643864831
Sc 3.8879739837851157 10.967161664509904 10.03455393374166
Sc 5.364363137952191 6.882290352561016 3.082720349916271
Sc 5.073042873656198 4.146918831885397 4.31001075290661
Sc 5.057678630281007 3.076787970777397 7.122803142915483
Sc 3.868156825514276 7.935272554118929 10.674710626250405
Sc 3.0373488578243797 8.759539879249768 7.880118535783545
Sc 3.9471435210528862 5.698604191921177 8.309296503217652
Sc 3.570070867670379 6.7827106422409145 5.410655422794353
Sc 2.445403347590498 4.175687482631134 5.839469800376543
Sc 2.6341503450038473 5.321961936985148 3.0173223063489294
