33
Energy = -169.35530446 eV
Sc 9.51792911428457 4.8415044977306945 9.179512373272347
Sc 12.165459811244894 4.812865375160041 7.174226253902068
Sc 12.765241337133453 7.599753030796535 5.934400580047388
Sc 10.516700867809718 7.1470313530327 7.563256924105023
Sc 6.550468608522269 6.191612006020039 9.485374906007577
Sc 8.918267933497507 8.174999206717384 9.863174699319941
Sc 10.420944955639957 10.108372221290603 7.631635572936728
Sc 5.221434971967144 8.675709366265911 8.012072584054428
Sc 9.554704975064041 3.159483363735029 6.601026787931758
Sc 7.105306236545266 3.136959389656799 8.470321486787507
Sc 10.417985498528838 5.7210915593841385 4.894909720425648
Sc 7.847541524944213 5.506884959783093 6.748957202036963
Sc 4.054867074821041 4.721807716408818 8.488686934591373
Sc 7.367490886112949 10.864084368597199 8.931287319371723
Sc 6.073423674627373 8.928447896112122 10.873752630488454
Sc 7.161426369580164 1.319256693788016 5.624702117882306
Sc 4.975688397888971 2.2808921533989266 3.5944376045253312
Sc 7.958242205100172 8.555258217124777 7.0285862067074225
Sc 10.108018874735796 8.752987119886608 4.938322792820507
Sc 5.383925665492317 3.516522588004449 6.0873198113636215
Sc 3.9228757263079035 10.685113604921304 9.598712167953554
Sc 5.280853732288947 11.540817531760293 6.9403642344600325
Sc 7.628261307809659 3.850990706770544 4.069145301460666
Sc 3.59313178826553 7.467878787713215 10.066186302643985
Sc 8.083028053011601 11.134914968132984 5.769545314856613
Sc 4.963995446675974 6.418427965912859 6.164916980893897
Sc 7.608417106588405 7.012546979600692 4.194737021426306
Sc 2.748989159753861 4.593706631065694 5.345876865552929
Sc 2.8699860060724136 9.821888469160088 6.623905028502329
Sc 5.497977452014672 9.272504790836475 4.967427874800456
Sc 2.2711278757200324 7.001003356402968 7.367036747163361
Sc 5.042156932859209 5.367862849991905 3.439775923736006
Sc 2.7854947954582068 7.519786270121948 4.473109362132936
