35
Energy = -177.95745625 eV
Sc 8.430004442506567 8.362408027237983 12.505487715282104
Sc 10.143651637923558 6.695369166578941 10.74355145739109
Sc 7.136531024887735 5.399640278623024 12.267930656154117
Sc 10.26237360305649 9.68123656878212 10.377793672661863
Sc 5.540920492357035 8.151332764226147 12.431848685712545
Sc 11.943582465430657 4.201915164865535 9.882001550688395
Sc 8.97974931778498 4.242632567397995 9.772598542330943
Sc 4.241185052776606 6.012756514120864 11.02219574799237
Sc 5.792176966037522 4.264704351010557 9.15700615988137
Sc 7.118552691456062 9.961553013816468 10.288063620418185
Sc 8.923099005160978 8.351174286600283 8.188014412363195
Sc 7.0575049920728725 6.916130103099968 10.037093337901904
Sc 8.451839738519823 11.611626157889402 8.404852574818458
Sc 10.686159339416239 3.2833113687159874 7.152498310982237
Sc 7.730574265832204 2.2863907784195185 7.7239196435823105
Sc 4.525883320524546 8.537706164181685 9.266189849602137
Sc 11.113187487304023 6.241725272573086 7.887623180970529
Sc 7.0956324206480135 13.470384089696884 6.460146281986343
Sc 8.813730079712837 11.28193612947977 5.410710090563191
Sc 8.654465105185253 8.110219802149112 5.132841001578682
Sc 6.597446922316705 9.602448012743682 6.946056023270596
Sc 5.197535718323525 11.67662531180976 8.179404850789398
Sc 8.330215893669974 5.1963706822467834 7.042513657726504
Sc 8.446130451737758 2.896917289988961 4.932380887237182
Sc 3.3813539441604874 5.944536928855872 7.985560662365041
Sc 3.770376610279349 8.993936220593882 6.4328579832616315
Sc 5.92239680710386 6.811124107069549 7.016872537803297
Sc 5.5353097914552905 3.8228893328476308 6.167315494124934
Sc 7.622639264599513 13.294247107005429 3.5506875873685484
Sc 10.237276658456052 5.426305523939712 4.7640197029207005
Sc 5.650760907346799 11.437832711954837 4.850092300337111
Sc 7.6928938433786875 10.3234882461997 2.8649115505411724
Sc 5.840301908225952 8.297106792289963 4.035374613839517
Sc 7.172873718254891 5.5465062025094065 4.225268020983078
Sc 8.38985445723754 7.342483326481559 2.3090270102021377
