38
Energy = -197.22156696 eV
Sc 5.533067480711696 4.150560242267636 9.29575651335969
Sc 3.396741214919998 4.090065690116942 6.578077912914178
Sc 2.700956496780611 5.495351945179858 9.259090802112853
Sc 7.637365051884766 5.115912641376037 11.535661575620873
Sc 4.956618993217732 6.341851860870097 11.306096225233976
Sc 8.577229607105448 4.2482829688554915 8.61565330357106
Sc 4.472769261975825 3.11616474739651 3.7785742097632395
Sc 2.6590983177821528 5.427081723629673 3.816452914076853
Sc 6.5948943038508085 3.5577002591140356 6.300669709359382
Sc 3.7863889748648747 8.340627181972133 9.491547309517237
Sc 2.2196307555232684 6.979525302490681 6.563342650841152
Sc 4.943627935160262 6.42452730016755 7.499633426007406
Sc 10.255859896329241 6.187646987309624 10.225243461355161
Sc 8.694286118396757 7.8709541395102995 12.113019135580531
Sc 7.263265982011161 7.284865017262069 9.41902657224031
Sc 3.6087611871783523 9.65303115175092 6.835287766656909
Sc 6.020040173774473 9.131135349395215 11.581559549437651
Sc 5.56343617426216 5.837760835715064 4.615932262421988
Sc 8.25659378082956 6.335512782755625 6.35882453168538
Sc 5.988857330715317 10.274602077202632 8.612921197319872
Sc 3.7089797840899275 8.327952533843797 4.2004262022741035
Sc 5.143175800622357 5.574386645647082 1.9222370006314
Sc 7.269861673211854 3.625527965389151 3.2556786223519083
Sc 6.362732096037966 8.564480202863766 6.124715552006647
Sc 11.351506516418928 8.892939648486951 10.685870300027997
Sc 9.61369956626804 4.073911384479757 5.220089058360719
Sc 11.074898367087751 5.528676000044483 7.499091873070311
Sc 8.676966496464857 10.218658865795412 10.153604034985767
Sc 9.844953564133057 8.400276072499413 7.96573250919609
Sc 5.857939853550091 10.91250544996171 4.91862735082886
Sc 8.440482824387052 6.334986761480648 3.2283091799337718
Sc 6.283947946529441 8.434599731990376 2.9288323379277
Sc 11.0548790512899 6.988793159106134 4.996523118603174
Sc 12.698616279068327 8.160164477160057 7.905972807522507
Sc 8.52660370704058 10.911526177575638 6.929711422481997
Sc 8.767618636627052 9.14609669565041 4.3954253462984445
Sc 11.325978714001552 10.941374995955888 8.552830394482891
Sc 11.337022876574327 9.940300751697118 5.835191396917382
