35
Energy = -178.36809221 eV
Sc 10.076372086068115 7.736084623988083 3.639706280602287
Sc 8.129146184717607 7.918780485617288 1.16247086249097
Sc 8.170176623782327 5.398429807975144 2.6706899905546506
Sc 6.31544290744462 5.713106571182376 0.3314638481729644
Sc 10.090887326473828 5.157763178853531 5.220566359236093
Sc 7.213416624554144 3.8447600298899256 5.330920005782093
Sc 11.933776765051833 7.379067570693174 6.1372571978415635
Sc 9.113404808408136 3.6376733232004197 7.8781797021506685
Sc 7.630705556948615 9.646737741477736 3.764629687683553
Sc 5.738475841724437 7.329789211087139 2.7855373661846157
Sc 5.325448713480957 4.323313673493377 2.9051952328629187
Sc 7.655635937531582 7.084193204402944 5.318167668906791
Sc 6.233950685413642 2.5109089660286563 8.05098660956003
Sc 9.609516802712578 6.724001197883719 7.881523108443708
Sc 8.157070625350867 2.2603717441098765 10.428868959472513
Sc 11.40277531734051 8.951381470837932 8.699194711642336
Sc 4.377054859859862 2.9488516662399316 5.557411182702699
Sc 6.672719943645564 5.493630796392696 8.049693868692435
Sc 9.622325999655484 9.41319595664929 6.235113718613414
Sc 4.708393906052621 5.898670527547012 5.489594006002204
Sc 8.595298695338258 5.2771687061520165 10.429204970680194
Sc 5.736554710757934 4.100297285214899 10.59675688883452
Sc 5.194654862992416 9.052922106097867 5.623338184454997
Sc 8.994264516464145 8.457624086298509 10.482683969875948
Sc 3.837357175232227 4.421942673341437 8.183335726373777
Sc 7.111791779031297 8.779002499037045 8.077414985878974
Sc 7.045813674075932 11.341445032098532 6.5085425468650735
Sc 6.114705320073586 7.239502559703122 10.811155953019204
Sc 3.3465790038812826 6.211239454753679 10.743757572355136
Sc 4.08727288823001 7.581676110580288 8.226426830241437
Sc 9.003423912193647 11.055039645543092 8.90280244660893
Sc 4.680710621043271 10.722222832145489 8.264853032449093
Sc 6.60223260790058 10.413484788447027 10.664222642797633
Sc 3.8042481455183164 9.110435550015788 10.755283755198965
Sc 6.567178387757519 12.947663584368494 9.069237646691752
