39
Energy = -202.73549298 eV
Sc 12.08985417402544 9.886394271076941 6.676451142751199
Sc 9.755628691638709 11.743055499335844 6.853281846820077
Sc 10.449139476243863 10.174892661164957 9.404486374676159
Sc 9.82962799600123 9.971636973173485 4.390204353338841
Sc 11.174918955856079 7.107975152052001 5.229206289584853
Sc 11.669650813136668 7.27824500733393 8.53983214020883
Sc 7.490880226779773 11.711856980677098 8.762668834149125
Sc 7.059167485586047 11.568237605894453 5.566251414327356
Sc 9.496272366989903 8.809483295170251 7.029811242239108
Sc 8.761098939269175 7.2705623819856235 3.1818614489892023
Sc 9.655403720657098 7.533292245112805 11.143934367298577
Sc 10.696346259694415 4.438157490977267 7.010459603729331
Sc 7.494393888937175 8.834255595266804 9.169833167194504
Sc 10.750161100151114 4.687851902359712 10.312300934266952
Sc 10.008732159613466 4.530439694582645 3.8402866445609702
Sc 7.011688741330825 8.673591220890431 5.427588175523564
Sc 7.885088867039324 3.103398621532331 5.829765584668837
Sc 4.816932343572033 11.302637241857605 7.513457353931556
Sc 8.98579076236705 6.15358778672747 8.71148618086679
Sc 8.368368674045017 5.965540392394258 5.792333305314014
Sc 6.983065622877951 4.812243646245884 3.1288660079755535
Sc 4.891121969154238 8.282713007479432 7.501728608786002
Sc 4.905689497481896 10.108731253170484 10.147063701899391
Sc 5.414471246983131 7.616358408942327 3.171591712656548
Sc 6.114348151502043 5.9243237392127135 8.740983631564477
Sc 4.202806223661818 9.953327364215944 5.0244922571102215
Sc 2.43512191360449 9.304790363918798 7.911919905506754
Sc 5.350301052289388 5.597202849368527 5.5551487808192075
Sc 7.879728687685544 5.044096505359791 11.256955669274323
Sc 6.330874930384577 7.512289885936207 11.57597858734448
Sc 8.086046967613003 3.326509286247653 8.87858266714568
Sc 3.818127989860543 5.050022202941999 3.0279538592681408
Sc 5.173473837245552 2.7335583133503216 4.474512710438027
Sc 3.7188028856441355 7.438376558270137 10.230501330732194
Sc 2.8536094982532347 7.178184343520481 5.245007669406855
Sc 3.04216685546167 5.618765402848413 8.10757817027162
Sc 5.1134816762560815 3.187021445879047 7.591857100116188
Sc 4.79249528038266 4.499779366772048 10.667078536306454
Sc 2.709915442270905 4.040306466964626 5.627026350520203
