30
Energy = -152.4455642 eV
Sc 8.782697009953766 8.790937698133451 3.4126550640737916
Sc 7.059998164997686 6.597112695790056 5.04307613008609
Sc 6.127363549643174 9.715136710497921 4.6379146593764995
Sc 11.14831422103417 9.737330263143882 5.124792118182408
Sc 8.557835104855098 11.497432967048812 5.030517007090151
Sc 10.329493487291112 6.627390554076106 5.066978305124711
Sc 8.80197953979023 4.006460855506614 6.159491237437071
Sc 8.698804554666937 8.750418047805029 6.308785457377498
Sc 4.8976040887887144 8.010172601375682 6.840148815357236
Sc 7.291830809196377 13.278283506394514 7.527871836265883
Sc 6.002503127762374 5.184095410620658 7.529140991156433
Sc 11.596172756190567 4.984200350167007 7.362323827722006
Sc 8.904209007306083 6.066650738171832 8.139551182408017
Sc 4.434197735758062 11.729675978001579 6.7372904096900985
Sc 6.733930096705333 10.598047576807826 7.547427495089428
Sc 7.165240561392084 2.388721336546886 8.039044273299785
Sc 9.935242655605672 11.091933064090748 7.7750160009329035
Sc 8.035692690782714 11.522992885401955 10.088986462539378
Sc 9.777787278945382 3.3399054299427418 9.068742171698222
Sc 4.29096799405374 9.632755368125757 9.20659142265313
Sc 5.025231562693727 6.741359372838237 10.158760263942046
Sc 5.282671373781907 12.323067034239141 9.613919799967931
Sc 11.37483933605396 8.074839465380881 7.8050295885295515
Sc 7.133448652424639 8.194370426093217 8.987468562807221
Sc 8.060212332125422 6.781406775994413 11.4261095247224
Sc 7.014886139402985 4.321158930817571 10.20032035209794
Sc 10.881847281153329 6.037515786147798 10.276558154594166
Sc 6.248939748932322 9.590485105356137 11.437161651776071
Sc 9.77628216193021 9.078859142423942 10.220120823993335
Sc 9.347841980371056 4.025348926647075 11.946271413596396
