34
Energy = -174.28418363 eV
Sc 8.32451687775574 5.299877805666628 2.932304695700376
Sc 6.382515159502158 7.329063596771476 3.6100197146962394
Sc 9.903569554194847 6.722229689931826 5.122741909085444
Sc 8.839582823454599 8.920435174112349 3.20684642332844
Sc 7.449584627543942 2.424143162819567 3.9453028119061244
Sc 9.895524096170725 3.6627463748763347 4.94070720611813
Sc 5.1799028765227115 4.618371420638146 3.625020507095675
Sc 3.4939251359979338 7.6085751412167335 4.356608197809128
Sc 10.776609071480138 9.750777471127444 5.436798106672245
Sc 5.7646787072320125 10.123280616270836 4.111672649126622
Sc 7.1730313286059815 5.156700071231842 5.902409680432208
Sc 7.9797634006339395 8.892888729659274 6.122204425537835
Sc 9.767276600267664 4.903794988536168 7.752919721022628
Sc 8.470296126427883 11.57995663551974 4.845494273579087
Sc 8.095144604020444 2.4042696114977575 7.09711820623232
Sc 5.275843545785754 2.581056646693011 5.877377815814375
Sc 5.195409114294851 8.04871976597025 6.76754430577231
Sc 9.30722823781473 11.02124037606687 7.816261122737193
Sc 3.942473234007283 5.293133407166141 6.386923451227541
Sc 5.842189121294349 5.134502610113955 11.438766642329576
Sc 8.42130009942293 3.89625589916791 10.32953340755665
Sc 10.215273756825573 8.06753599440363 8.044514463149756
Sc 10.449497171657287 6.2070047563461195 10.466832545333775
Sc 2.2580939569756087 7.804526423082691 7.175748072378109
Sc 6.029971089327384 11.371088672773617 6.822744234326006
Sc 7.502949551319263 6.667906017854123 9.166388340890613
Sc 3.2650057482531625 10.316432652882721 5.914472375030222
Sc 6.92419544836292 9.888147086599878 9.15448464597277
Sc 3.951966146800411 9.700925050671636 8.921773116573906
Sc 4.236857852462945 6.627365885187725 9.296648469865174
Sc 9.110882770997778 8.903419230220605 10.769056642964653
Sc 5.892639477150454 3.9915069278074053 8.56673900216489
Sc 8.304632753509216 6.325856207908186 12.43596862908657
Sc 5.954913520462704 8.172475496909597 11.362768783025455
