33
Energy = -169.07001487 eV
Sc 10.83734072476845 4.247497376317848 3.975076942771485
Sc 11.47045294250224 6.857295176320511 5.644554118003562
Sc 10.380352657432379 3.8966381594858968 7.051919195803088
Sc 8.584083355038848 2.5796252678063856 4.903229063138463
Sc 10.092405565118012 6.860975697795009 2.917151744429693
Sc 10.410306761868982 6.658385105312965 8.317499772152907
Sc 7.873162056267794 4.710408244707927 2.7223383366226015
Sc 8.604293238440121 5.730151852095285 5.573300522145227
Sc 7.345965124997575 3.2840501652403233 7.4411151869318015
Sc 7.8940116569491945 5.493780014721704 9.252702070708995
Sc 9.387920672457456 9.05936094527489 4.931724427414731
Sc 8.85226710974934 8.244421015031243 10.37830064611624
Sc 5.792351967010089 3.916355006762353 4.904667570484369
Sc 7.131147480119997 7.710299776445431 3.181015997131569
Sc 10.773118388252431 9.584618126376549 7.7300200691190435
Sc 8.030598455266965 8.583202571696157 7.540700795872252
Sc 5.750573800410835 6.942835177978662 5.773228936382883
Sc 8.610526945703542 11.463077826659369 6.7496249499692595
Sc 4.838845518185172 5.795711561823328 2.9064389185668045
Sc 4.732104992435521 4.687120244980543 7.629131902840931
Sc 8.610340673581508 11.033730878784123 9.647404904718453
Sc 5.098527022040685 4.705885312764164 10.495379396242397
Sc 6.889567392794836 6.58100737831404 12.005068835482536
Sc 5.603057268852637 7.516913569404592 9.20565274902519
Sc 6.302484424598468 9.930315361116065 5.32929304285427
Sc 3.020524715939878 6.048283598555508 5.514170472231044
Sc 3.987714462706632 8.418573599457902 3.8632703556692856
Sc 5.893976067418929 10.645661724796646 8.392918077640996
Sc 6.24314570177943 9.585146136847971 11.319632294961991
Sc 3.7067357885608505 8.820056381265502 6.9258487584461905
Sc 2.805358824621612 6.575279164721743 8.965890690633643
Sc 3.9708588838841496 7.275269040560338 11.84296585824312
Sc 3.4066311041024333 9.469565553235146 9.932120820642423
