38
Energy = -196.58677343 eV
Sc 6.134448491444488 5.303119973099941 12.413054204428988
Sc 7.665195542757948 7.586521781830552 11.185798032145714
Sc 8.49347036342551 4.8940722195663 10.239986908499636
Sc 6.811321177794589 10.036885402649622 9.888880250258945
Sc 4.54601145724432 8.023716309208245 11.421385363686042
Sc 5.870712202775003 3.070316881419057 10.172349516891508
Sc 3.4173257254648104 4.809310862003911 11.182435387490568
Sc 9.577407005783103 8.790127368346242 9.193983656164322
Sc 7.80733910788661 6.778016813354953 7.920644028277724
Sc 5.547137081274437 5.94514494477365 9.572392655379907
Sc 4.963392264296328 8.597292849893861 7.93442514273571
Sc 8.902248063539965 11.630659576032054 7.337828037067065
Sc 9.508994476378435 2.9831970827038043 8.181177497101693
Sc 10.878400415765125 5.837496332272799 8.263320892492704
Sc 3.2264470849463516 10.223766247544297 9.305716819619626
Sc 7.477917714036632 9.469942114127884 6.781215554183692
Sc 5.735292415943373 11.755477361071025 7.883073970403869
Sc 2.5993845707063548 7.016247083041343 9.256672266587001
Sc 3.6277882828291963 4.1907095537985155 8.155641416473891
Sc 3.5075878123987034 10.993222925564176 6.278102793915881
Sc 6.7672791584505125 3.8924167309088107 7.31463216387629
Sc 10.399029349439255 8.421379675283214 6.371526403242167
Sc 11.618600249566772 3.3020382062839624 5.955250457103638
Sc 9.309505303030464 5.154773683122686 5.869748982851735
Sc 2.4811762174748413 8.044175852894561 6.404277866312965
Sc 5.035761588394262 6.17534460344188 6.127520546243791
Sc 12.095251127879614 6.159615640206057 5.209588331282233
Sc 6.4539241275976735 11.657690475530238 4.948386143333518
Sc 8.871276771423336 2.251061538421897 5.3316805195251575
Sc 7.406779492390616 7.284918559329234 4.623116952298186
Sc 4.946042796876805 9.03065423147097 4.806655725088028
Sc 9.04054038747167 10.23826330682337 4.374638029066232
Sc 6.875248978892528 4.334366014479075 4.076333515138465
Sc 10.053696177350785 4.430413246111418 3.2665105717035896
Sc 10.097113592774004 7.523764338780572 3.365810516699252
Sc 5.031141625402934 6.678155245961331 2.9386451955629793
Sc 6.890718187198281 9.228184790884258 2.4926942765645683
Sc 7.8234060536309755 6.218975611961918 1.8276812707352714
