31
Energy = -157.73698666 eV
Sc 9.19363092068975 11.014229931712993 7.405613848357116
Sc 10.872699682700995 8.62791690765351 6.8552728485935965
Sc 10.138317843575829 9.201398523909791 9.737083296461266
Sc 6.194333858772246 10.77590859209229 6.342408637284277
Sc 8.341869067448052 9.14512036907449 5.033013473885359
Sc 12.00811699581846 6.7253039323618165 8.997477218061107
Sc 6.864552092095196 10.575769176926803 9.372111776840852
Sc 5.335206991140341 8.187930304240554 4.576211174771714
Sc 7.515917365087577 6.4443205981747 2.867595508401212
Sc 10.220800486842613 7.055410599989727 4.24767588453525
Sc 3.173650648035666 10.048584609666955 5.811645088705054
Sc 8.062202013197101 8.147873086770838 8.00553176332797
Sc 10.153991966081572 5.573846220187697 6.9255233290687945
Sc 4.031285052412672 11.250192042579156 8.436413453066521
Sc 7.5382248803929475 8.428690289471941 11.283634533266712
Sc 7.380387657611301 6.170175608094067 5.811523500261451
Sc 6.810794527433659 3.469269696800256 2.429589419902353
Sc 9.175919675816509 4.251090796367742 4.026703915625911
Sc 4.944848656724044 8.32395722894828 7.637744673353869
Sc 9.31274529833589 6.170612637218401 10.015146427053475
Sc 2.0274523089554566 9.020383669769084 8.440578141273313
Sc 4.470592427550502 8.931619806044145 10.558782341858464
Sc 10.85892545012629 3.6982687215500403 9.062397906435194
Sc 7.826077225547974 4.045107735584743 8.328631463353926
Sc 4.961493649328911 5.214684626582826 4.178515244642497
Sc 9.623542626046458 2.5526256701766896 6.533242475216574
Sc 2.7546756920426922 6.956585391461922 6.117311588170278
Sc 6.7738807737279885 3.101468179527276 5.454621369030924
Sc 6.122750632821115 6.31145490843774 9.826767619396165
Sc 4.915088748845872 5.059017663652132 7.238806240986573
Sc 3.0857798443582274 6.396850861846554 9.236631816206897
