36
Energy = -184.82313032 eV
Sc 10.664433925044436 4.4780216871854215 9.445345052779375
Sc 11.384464947101328 4.929853435423461 6.656853815920067
Sc 11.205729875907998 7.366391443761049 8.610755736877136
Sc 8.908691969250313 3.3242102490256302 7.2157071803686845
Sc 7.8183767123762085 3.5647664976175992 10.140159905890396
Sc 10.564947480810076 7.543452443557003 5.481818466251494
Sc 8.765820437579546 6.583356257462985 10.589213774365424
Sc 10.91112426309784 10.052336986209689 7.059627343890522
Sc 8.757092880623556 9.247333894746587 8.918512242761897
Sc 8.565797723118564 6.343692718343833 7.582606768704689
Sc 8.873513547509685 5.0696168886645 4.595842529596977
Sc 6.578747246694873 1.5936076428834915 8.243095690683067
Sc 5.939453359520869 5.630151478736033 11.032583011330363
Sc 8.035709865016589 9.35489346065836 5.710901219963274
Sc 10.69428999153179 10.312934185402408 4.169934217926317
Sc 4.5250898170443135 3.023814711704782 10.114153653736262
Sc 6.093851894280907 8.622180273848155 10.42125965491215
Sc 8.857990187217256 12.110944038060666 6.079101993017333
Sc 5.761948101204343 4.664422070799514 7.9973394516094585
Sc 6.318424318337709 10.829762130887104 7.9288152411730515
Sc 4.044331225824747 2.2135125307105907 7.0912465988673015
Sc 8.193921747255974 11.050223088288403 3.1268308050129305
Sc 3.585477412386002 6.728896199250225 9.838204439891776
Sc 8.538368355853107 7.812131753360744 3.085964238687855
Sc 6.036116670689995 11.687670504748564 5.018318732491561
Sc 6.372882396062223 6.681698676375594 5.259188804080469
Sc 5.498364678993466 7.84227289039768 7.732724679867723
Sc 6.47122134751719 3.2747384848248786 5.311393261652025
Sc 3.5121639980186914 9.604514810767899 8.835335464767729
Sc 2.574789537684313 4.447647122631434 8.215112717972024
Sc 5.824509538549075 9.07394790378278 3.2622335042847315
Sc 5.980555610480786 5.640855135269883 2.837407853969359
Sc 3.861461323041974 4.80485505718799 5.420432906664027
Sc 2.563807821954735 7.251275527707933 6.929767502439834
Sc 4.032970866485591 9.661004343430427 5.794488192746298
Sc 3.534403568844097 7.31733524388731 3.9600325654393367
