38
Energy = -196.82375871 eV
Sc 2.04078888848911 6.462636755880808 7.96052076396709
Sc 2.8954597898427235 5.176467419925044 5.119327924336425
Sc 2.5671100532059397 3.3336945814607906 7.513506863465197
Sc 2.1024889017414927 8.130579484221784 5.203931221974927
Sc 4.534476908737112 7.327957690654001 10.01790087535619
Sc 3.742634238617291 9.215581678244975 7.6977803344871205
Sc 3.2259160566168714 4.556914055328088 10.146967232899144
Sc 5.152366794244121 3.143952601090522 5.743705717362992
Sc 3.8227261906910766 10.390812766228912 4.969888699860347
Sc 4.660948644996173 5.420004938136789 7.611187160521423
Sc 4.256376086921172 8.124123639714048 2.8120887790712685
Sc 5.368831406703429 5.109141896220013 3.381562248994695
Sc 5.446352973654553 2.7151016616662105 8.839262463471897
Sc 7.281820996604639 7.533269138162055 10.941640307263748
Sc 6.25490002175954 10.182746384212006 9.943984875144405
Sc 6.908987489621147 8.286612263666848 7.812504319831638
Sc 4.989982746164549 7.5363185499174685 5.422573995859999
Sc 6.137848216346699 11.25422238802766 7.008980590427242
Sc 6.161137163414522 4.727044240532646 11.272164745573297
Sc 6.730912949776996 9.873781699702164 4.48336494339072
Sc 8.709796440914578 10.636905070418745 8.232321599813975
Sc 8.36439212605917 2.689218240258198 10.06809190110112
Sc 7.478732840329851 5.132013022539347 8.72285682817639
Sc 7.379321748394061 7.252517609326474 3.167748111983889
Sc 9.739512634039194 8.706914123440194 10.125378254960626
Sc 7.235278354129977 5.608102900126762 5.75146134928495
Sc 9.517589374671033 5.50376904261863 10.781691357706933
Sc 8.041920545639396 2.751870690035941 6.982752531557675
Sc 9.29770209282613 9.725924428121209 2.763372005777826
Sc 9.161500712296046 8.344575620870938 5.5063970858521705
Sc 9.286474340540986 11.354482096293422 5.4013345785719205
Sc 10.514245053227716 3.992970340204275 8.210318146538533
Sc 9.949223927662763 4.707236021186203 5.239961998494315
Sc 9.799834732676073 6.756822743949109 7.888784383409548
Sc 10.614102308478698 6.932946163115373 3.3018388374323067
Sc 11.325666644667146 9.458222490464866 7.459150300407006
Sc 11.72701549444172 9.50464014214206 4.4985098098369205
Sc 12.087748598920223 6.702712618596331 5.987664902975638
