39
Energy = -202.36516685 eV
Sc 12.708175772600104 8.407867130279284 9.212924914385823
Sc 12.873295665474467 6.79036285209168 6.735483832131736
Sc 10.931028531880633 5.820721218647285 9.28288011649164
Sc 12.609892354000172 9.712886717401807 6.338655306827795
Sc 9.180096498599282 3.6197770926484027 8.152944489131398
Sc 9.871045914133852 8.605489181643012 10.46910223710983
Sc 10.48946435987721 5.209854161549317 6.114662193216906
Sc 11.215779326838463 10.904113237638738 8.66055001207236
Sc 7.565835388776169 4.044270063316674 10.65576803985027
Sc 10.076236757606 8.160755117150838 7.456951157985779
Sc 10.768205224707156 8.005696162672226 4.451218765682993
Sc 8.164372373673682 3.0127934475182756 5.203494089555258
Sc 6.330411350418017 2.8527770458408956 8.087025044475363
Sc 4.494798095196976 3.41679798386187 10.43177067762913
Sc 7.502266472799791 5.460825878844481 6.329602749801056
Sc 6.611764818061077 9.045928367411294 10.762851573704356
Sc 7.922796639873754 6.545113279785432 9.224704870170461
Sc 5.328041868123667 6.225661611507895 11.26059400805681
Sc 8.24425552427332 10.658172351693254 8.649622892567912
Sc 5.0107424707284025 5.689652267957101 8.352210951048733
Sc 9.032176604262599 5.6508062489535265 3.652983723518795
Sc 6.241330891082035 8.648928771000408 7.81197313119381
Sc 5.1112822021404565 3.554654084421225 5.55262230578316
Sc 2.5016733319449593 5.561260488332418 9.996490451547892
Sc 7.7863942349826045 8.357811961270153 5.202924999061881
Sc 2.9826470969237193 3.696989650078028 7.620126024193082
Sc 3.785220222402418 8.379723849337765 9.551142691314997
Sc 9.710647646633156 10.70772959078622 5.819725352613545
Sc 5.215854204881698 11.136583327553968 8.967413912140058
Sc 6.4545933733306535 11.131903604570054 6.135094513965995
Sc 4.9081539453592375 7.061132081339233 5.306916912052219
Sc 7.290028294435983 7.7575346822984645 2.405765301301841
Sc 6.172457079573294 5.015981582194975 3.2872956543843626
Sc 2.360106698573497 6.7907604991194495 7.102654578067265
Sc 3.6874595842028555 9.710703075833962 6.594203981688819
Sc 2.8776671179227615 5.141156806416764 4.41293942842748
Sc 5.077531367048049 9.600307392548453 3.7622668644548174
Sc 4.221138199012134 7.093723078457795 2.259907040264193
Sc 2.309235171363523 8.142209350387345 4.260937547929977
