39
Energy = -202.0347345 eV
Sc 7.86524739185785 2.6680611086490944 7.241521556297237
Sc 8.995505153204869 4.386829593308254 9.521031111038297
Sc 9.588599887631297 2.4441514559012583 4.47665277221853
Sc 6.562284550823242 2.1005806741762703 4.632477196364849
Sc 11.645778777128257 6.120193279002877 8.998134132101207
Sc 5.9899590765665565 3.1151843369934067 9.675807657900428
Sc 9.539067552295553 7.138722506353473 11.12452740343866
Sc 10.625907957868268 4.3074249637576765 6.731731716476192
Sc 11.315104553428787 7.312961016398426 5.958050603679948
Sc 4.713209065175101 3.239482038111477 6.894593084186662
Sc 6.616398142106982 5.987190297135843 10.859692757469613
Sc 7.835594122541115 3.613265930985154 2.446175269469732
Sc 8.032097734488598 4.90586220816328 5.16722916856113
Sc 10.766000343473689 9.147848188821438 9.053684828932322
Sc 10.298327000717144 5.416279404355062 3.514998582021089
Sc 9.120115001580299 6.7489411988470005 7.687571989147637
Sc 7.534492799409396 8.668442378394444 9.439041338981138
Sc 6.437062034145594 5.448714906224163 7.839770989360537
Sc 5.2355287094138525 4.734761907361628 4.097755660232312
Sc 8.905616071321043 9.526355727188013 6.6975658824102435
Sc 9.225644082225243 10.322576746510455 11.462863070316091
Sc 7.3069475877934025 6.582712959635073 2.4683908070726526
Sc 3.9200079476963126 5.431341213801252 9.288637549013641
Sc 6.93506240857457 7.864408516765022 5.189090744336516
Sc 8.898523070576632 11.679470973238356 8.825166951481147
Sc 7.016666540796742 8.622965137715447 12.436050012871855
Sc 3.321425985803894 6.016689306440422 6.216604856807852
Sc 4.9999003273488745 8.192690664356935 7.572394448350735
Sc 9.440429253327112 8.472972155177493 3.7423702104986596
Sc 4.38915693360099 7.701876763922488 3.64958677950455
Sc 6.298780647365299 11.156263713937747 7.532521501926446
Sc 4.528710948182286 8.377927485444799 10.549756686834865
Sc 6.221397858008702 11.080244395880335 10.596523974513408
Sc 7.921976456558431 11.333157534271646 4.8231135509607075
Sc 6.783610938846204 9.542897705526832 2.673941342191628
Sc 2.136744559417802 7.842759492304072 8.558026543737128
Sc 5.043139845319587 10.40560561629128 4.994595539548469
Sc 2.603269321451924 8.994923788685002 5.917993661381168
Sc 3.522773421377633 10.55623704930318 8.563526042555608
