37
Energy = -191.43970373 eV
Sc 7.1859330267148085 11.657037191317366 6.653014387168864
Sc 4.709245108082076 11.037040431432018 4.747364581059232
Sc 9.705477979654061 10.198273454781857 8.119564446236922
Sc 6.36921024572957 8.845891855747924 3.2920857998484765
Sc 12.184914723290396 8.940718715389858 9.657202763308259
Sc 6.820618855978901 9.85696261227689 9.23751922258486
Sc 8.842587214927276 9.248513989187071 5.336407973058445
Sc 11.24456297182482 8.02127809542886 6.779795081668067
Sc 9.468028904874974 8.433990378649687 10.736746321081212
Sc 3.311529066836197 8.689390689426645 3.1441189753798127
Sc 8.043792747438488 6.568456257312933 1.940099794074672
Sc 10.570383483036606 7.004743279681061 3.7923028447114766
Sc 5.934272626596443 9.013483553317215 6.549262267744328
Sc 4.392721973423572 11.157367608649276 7.760223928472341
Sc 11.06554786973146 6.203357801887508 9.359372031427156
Sc 8.532796439556865 7.438426654293982 7.885527910369383
Sc 11.793809919650633 7.186052647684741 12.043084540880793
Sc 4.8500137416034 6.654138488006543 1.7895287234743038
Sc 7.904847570566759 6.310537328857837 4.842783607671199
Sc 2.926286891163894 8.938815657480255 6.109482332379812
Sc 10.206303427607654 5.149358679085029 6.266442965869071
Sc 2.63023413655784 5.605218774088092 3.8624452005749688
Sc 4.155566963939689 8.170041268309769 8.871647544551
Sc 9.39373176548668 4.284497107444696 3.31432181140675
Sc 6.629220245868313 6.756546071460477 10.313931124511965
Sc 4.89923804458532 6.758418433998522 4.816421598381265
Sc 9.171802509603339 5.566538369650896 11.627167395127962
Sc 5.917060523858655 5.806005143020578 7.473369406686586
Sc 6.238093837501873 4.381609962864887 3.2047028269032043
Sc 8.324183218586148 4.408170496489831 8.862523575772858
Sc 7.558399657183116 3.455459572499083 5.898080560288128
Sc 2.874446978810811 5.963659287218742 7.07343992334779
Sc 4.000589873091694 5.031077192973242 9.832347671294093
Sc 4.493808217848939 3.7379951926392176 5.69327115980259
Sc 6.460477401392845 3.8431112450325884 11.193026123013578
Sc 5.602323223535046 2.8390395710773397 8.442391361919473
Sc 2.664094604603312 3.0886678979376803 8.013862224863553
