35
Energy = -179.28300869 eV
Sc 6.059996143252544 6.069481077642218 4.440570540169359
Sc 2.739879627577943 5.803484715933896 7.579336073095784
Sc 6.036870036517902 6.033475462932707 8.11506983290459
Sc 7.904359610882957 3.3075486064808537 7.568380406578685
Sc 4.975918352342046 1.3989594133824683 6.382037205834538
Sc 2.22623874438489 3.142585909671411 5.437101301153918
Sc 5.580324689917125 2.839015234594094 9.217443053537288
Sc 6.838971409724639 7.649335799941674 1.8963003315174576
Sc 4.285606910292991 8.74711207698349 3.43244371586882
Sc 7.711023333137261 8.716455482506198 4.643361011561968
Sc 9.265623974492334 6.199442117372697 3.4301486081931127
Sc 7.0354345004276455 4.545772151417767 1.9051744672182307
Sc 4.259232796162623 5.9029948247697 1.9298187348396012
Sc 2.9035999135517874 6.143650883287451 4.655500470947967
Sc 4.857232319296393 8.042549167806223 6.404034619924066
Sc 8.364379962264499 6.064873355325953 6.403795992969276
Sc 7.5178981850962705 3.2729272717571933 4.645849315327484
Sc 4.562909912075949 3.1416328692605653 3.421145975966914
Sc 4.897173771400283 4.03031043081088 6.373403643680478
Sc 9.059684996544222 7.245060228450814 9.230294786445
Sc 7.481433985511028 9.022584068584491 7.570690963385619
Sc 10.44464124519269 4.1728609442898 5.4318484140333085
Sc 10.597924105499061 7.4465811717913235 6.390040581866781
Sc 2.545588833895889 9.285912241019405 6.391846554087579
Sc 5.443707762842615 10.784292968476947 5.434982173783676
Sc 3.4850046986040724 8.05611622413685 9.236739399016782
Sc 4.185217021096322 5.245631979382147 10.267802337740083
Sc 6.277388909503458 8.044249071126274 10.255423172563573
Sc 7.66149929854478 4.834476007891226 10.258022072198646
Sc 4.8598677995947925 10.379904778158973 8.436373760140196
Sc 2.8804576236049244 2.8642665627971637 8.433768384964464
Sc 10.394659890393974 4.893631743867725 8.433778376597633
Sc 6.54560093338197 10.61398550835239 2.5906763715386463
Sc 1.8130494579488283 4.1967232440409905 2.6032678018286224
Sc 9.737545909215173 3.2980630632775423 2.5894762060408953
