30
Energy = -153.17304987 eV
Sc 7.287147759623055 11.231332891618088 4.95079686004229
Sc 8.075660029798946 10.422498430494935 7.96866346280432
Sc 7.588846534917814 8.335233477359058 5.876501656495253
Sc 5.785278960245457 6.887266559855787 3.5963052640555997
Sc 9.021111048036966 7.2538214230839735 8.462469830129871
Sc 4.949494598369206 9.549762365047902 4.207957174978318
Sc 6.028958846123942 8.394446788788647 9.327929577802818
Sc 2.862973816550375 5.207936040372063 7.106382397250216
Sc 8.57772457451747 9.229230886865695 10.746282523596198
Sc 7.689549625396949 6.099041524046185 10.800357959207956
Sc 7.53981151781262 2.6331713569945423 6.244062522127198
Sc 7.083292760741022 5.187278294884902 7.42693937860603
Sc 4.81200007979463 5.563267926188844 9.419491367495395
Sc 8.37449543340336 8.75227254026668 3.33719815018435
Sc 10.533295488310516 7.356114033747242 5.792207521094035
Sc 12.015045902170394 6.415733025051627 8.378716669529727
Sc 9.958954096135582 4.485736105226078 7.008941205153509
Sc 8.202113575272366 5.476782586276622 4.622882568968514
Sc 5.138388863129248 4.421329798578406 5.188409039999989
Sc 5.08512793580958 7.232893466429698 6.674404126079686
Sc 10.776291269676143 7.347495807843661 10.960263932635842
Sc 2.9061074715119286 7.35792853590348 4.8976161814917205
Sc 5.026646885021721 10.327733602042061 7.137013828531527
Sc 7.592056117449142 3.1979344641965 9.358883780622017
Sc 10.965688029983475 9.380753304168001 8.491259698894341
Sc 9.97500553067591 10.307406159491565 5.585453633817136
Sc 2.3550864615998846 10.244505794312856 5.738953722619691
Sc 4.967091938065513 3.005833931191833 7.801330797769823
Sc 2.841668998616801 8.17173206777412 8.003051034579583
Sc 10.239700994129391 4.583923559671547 9.987355784631342
