34
Energy = -174.06261446 eV
Sc 10.76927987273711 8.043619822165018 10.100484033697873
Sc 7.93452042738028 9.273487679709154 11.165283825134438
Sc 11.133375967726037 5.1008230991377195 10.01088556126989
Sc 8.307395356322305 6.272219194408451 10.869911307432126
Sc 6.257988927198777 10.976224176354599 9.372445896467493
Sc 5.611734651985325 7.554500690134369 11.854039772992193
Sc 8.90045788160383 9.778799569641217 8.31282986459393
Sc 13.342177409925869 6.633127108534914 8.969947169364426
Sc 11.507757274450956 8.226445090381267 7.1811257103923305
Sc 8.676404102715798 3.8857300315113315 8.643031332890939
Sc 11.3927512405957 5.11157530794447 7.061265617930005
Sc 9.01916818105344 6.711871922291233 7.871980239446748
Sc 3.8341500703296725 9.276680808258522 10.048640833764756
Sc 5.975141497310672 4.676344199394117 9.713381448404952
Sc 7.2666174242875305 11.565696929302828 6.43234258298825
Sc 6.191145304802149 7.898503802813477 8.96597029848836
Sc 9.719854661156244 10.112518174380604 5.335733684590945
Sc 7.239839836427278 8.55849304178235 5.865214770714194
Sc 9.861941385375118 7.037872679197915 4.8944833059771105
Sc 3.543722422769334 6.259917670594957 10.24656601418187
Sc 5.961785173275238 5.693129003057994 6.633381271870768
Sc 6.107511861575389 2.7864155638025325 7.119844919035909
Sc 4.693821054345404 9.980320874896243 7.007247089121012
Sc 8.311034565666194 9.11186105343061 2.9706150264267395
Sc 8.508273196407883 4.291999873002643 5.659181813908199
Sc 5.894143664157932 10.557632421050288 3.966793684918329
Sc 3.336399831087983 7.252475944253755 7.513392063385354
Sc 7.101908852049275 6.251641753193698 3.5669168807203637
Sc 4.365081849384437 7.860341715494325 4.585295536760872
Sc 3.5474493444688937 4.196261696958929 7.9812337821692045
Sc 5.679706196856103 3.593012154223435 4.299062744855888
Sc 3.2274333612880244 5.006848587408619 5.181075804612316
Sc 5.647122368119419 8.317046566204395 1.9328002684734467
Sc 4.355421353119163 5.675112377319612 2.504336133975686
