33
Energy = -169.02249236 eV
Sc 7.450722877697998 13.201493364193004 6.274526970409783
Sc 5.923697257136358 10.846276898357727 7.449559902913492
Sc 8.995831472221397 11.151640522769947 8.009845445134358
Sc 6.828537543331291 10.771421069097318 4.451408896934732
Sc 3.5276480325727833 9.406473662554172 9.01305349148172
Sc 7.152071932352787 9.169941854037935 9.668262569209977
Sc 9.570372085710135 11.55640995477538 5.157417345072243
Sc 4.667822513228714 8.74624644630611 5.638249601740901
Sc 9.412897669332054 8.822203514995604 3.7891853340513135
Sc 7.89064623237695 8.852554804811893 6.470155681842462
Sc 10.04886367696456 8.225433833155954 9.101810160813983
Sc 4.984312607257804 7.801154598144153 11.275597081975905
Sc 6.630987812526712 7.616659965919147 3.5118567190345633
Sc 2.3956230474171107 7.289988916696999 7.033381304155144
Sc 5.177481886139739 7.261940080379161 8.281802202783464
Sc 7.953133915874903 6.70342971769696 11.424490907850362
Sc 11.003920339756045 9.10558308070899 6.363756131451378
Sc 10.619755096422509 5.441992712186152 10.282167928667036
Sc 2.7444104591383716 6.506567670398737 9.852234355964432
Sc 8.00494803639346 5.977182541286151 8.655833094952177
Sc 3.8310448736630556 5.919709235864235 4.575094650025431
Sc 11.88583961099842 6.3235208954626785 7.694971047749778
Sc 6.378632241888333 5.676083087616513 5.884810663551016
Sc 6.2114984331065735 4.6059316836662525 2.9614789130532055
Sc 8.960068365251086 5.8071590212454645 2.955614980006811
Sc 9.5167849537119 6.337559700752335 5.856444112226179
Sc 5.53157164189267 4.939779905833562 10.24346163707078
Sc 8.33823772919335 3.6510726296275795 10.545357266616193
Sc 3.8938456326325275 4.613139244354689 7.504079516529331
Sc 6.788904251772148 3.267014004458874 7.79810084834613
Sc 5.105826797163552 3.0351075105197816 5.131095206601514
Sc 9.909328117674896 3.85609285193765 7.784606755835749
Sc 8.237707097106291 3.538391779206709 4.991304306786988
