35
Energy = -180.87069465 eV
Sc 11.689114946944361 6.775320900408446 10.943826832646025
Sc 12.10358734734466 9.108191788570949 8.758761601313774
Sc 10.00070958139484 7.255909754180484 8.609854923229104
Sc 12.489011767909918 5.838918727650432 8.220659015995412
Sc 10.239254451877951 10.010718740905242 6.501345258903599
Sc 10.120615703324118 4.643817687494339 6.349401964045358
Sc 11.51833506175149 7.4238670490963194 5.816641073487742
Sc 9.792683968860139 9.361698452332112 10.840588914169718
Sc 9.685322155204753 6.283547022523301 3.5075682951437415
Sc 8.677466432696361 9.349787088739212 4.004934130886701
Sc 8.62526991382205 6.68242188977022 11.6057231045394
Sc 9.495208377782125 11.67825821350226 8.89059523347856
Sc 6.853129631369836 7.257451279342372 3.151600687669296
Sc 9.820649149636015 4.520185400657649 9.60940958099303
Sc 7.824894513149497 9.268455260142305 8.200666239059201
Sc 8.461597823397234 7.053183645126186 5.998543137857548
Sc 7.1688541735683335 4.6002203178392564 4.527199991894018
Sc 8.08555872176 11.707095519036965 11.608388702721035
Sc 7.4101681987717765 3.5665398974748435 7.639855652120963
Sc 7.619532249363134 11.462701511812643 6.152139244469418
Sc 6.091253999813153 8.726604508611716 5.720126636173636
Sc 7.134831472464414 6.405048562075277 9.108417601791022
Sc 6.6531217922435655 9.071255877947086 10.9636377377326
Sc 6.915846900218574 4.120762898719113 10.870924443459023
Sc 5.685797846937242 5.9089310880533485 6.772365530364006
Sc 5.343497594915967 10.106097258510315 3.5768378749114564
Sc 6.336542991860832 11.613878613395125 9.100758723107974
Sc 4.249829778675012 6.314719212861088 4.333854746063571
Sc 4.311540253646173 3.61169403893799 5.9627403534123244
Sc 4.713862170888625 8.705552275059116 8.39376057790233
Sc 4.595308108617242 11.20793701282368 6.423769977507448
Sc 4.679119288127547 4.126891397514436 8.928546834444433
Sc 4.700116772928875 6.455066301838652 10.659452152757103
Sc 3.1694620264975653 8.830656507841542 5.574711303399683
Sc 2.9517016832040386 6.134727810285864 7.325558121398746
