34
Energy = -174.5132988 eV
Sc 4.225027668525008 9.375028812714033 4.041612748093702
Sc 5.226242815337286 7.65284939381451 6.274141087954088
Sc 4.055040334158937 10.479496095361307 6.9789374769150605
Sc 3.3746809528140806 6.443467205697104 3.938928329110623
Sc 3.7321018860756543 8.433569189785135 9.156884440427685
Sc 6.908173692363713 10.101794728438156 2.4508810491143738
Sc 5.931527956829286 4.986996711745694 4.940637688685546
Sc 8.200645998059985 5.292939933857206 2.9804415557372193
Sc 6.153851474140467 8.054852609665524 10.872816224485723
Sc 5.999835015473789 7.347323605308867 2.7234885670736833
Sc 1.9740587150821913 6.079567873794616 9.090500383709413
Sc 11.124069035644583 7.196894297259868 7.453687277135385
Sc 9.325010921158237 8.138100088177758 2.3977283920003183
Sc 9.436310244184726 10.79776623212185 3.8791198641685023
Sc 8.641803191005238 3.745366084408524 5.69343778690589
Sc 10.514438589151299 5.908779133156427 4.7506041200778
Sc 3.3130722303327347 5.031340940029296 6.655102236576941
Sc 5.982857203617287 3.2876728113894917 7.521045950940213
Sc 8.25985252005409 6.050350129577807 7.673384606934238
Sc 11.151933692723356 4.164502689149319 7.250708580923239
Sc 8.031242204231306 7.697194598961919 4.914382757229266
Sc 11.32572760299265 8.712442800365247 4.720520457832532
Sc 6.714321548345325 9.34874584387262 8.248916917986893
Sc 5.3115451811972 5.861215423862754 8.836244801902543
Sc 6.744299783331861 10.472308352279901 5.364840196928315
Sc 10.57633014194634 5.424143009182094 9.857064795649949
Sc 2.308907822687887 7.946732211236122 6.518759672628276
Sc 9.405942251576299 9.570348096850282 6.8110337177888685
Sc 8.657677578021827 3.26264456167195 8.943551504880537
Sc 3.310409251577329 3.4469103922585322 9.398598332798482
Sc 5.939983388677499 3.185053214586131 10.51754716471392
Sc 9.158815912686869 8.127901224554957 9.771359086578483
Sc 7.715039754215921 5.541385522345161 10.860197385816106
Sc 4.18721060999432 5.670567721349091 11.318630354071178
