38
Energy = -196.64312985 eV
Sc 8.965597261258011 8.027637701017577 2.4889421300933035
Sc 10.643932012243598 10.163587124730716 4.0514120183980635
Sc 6.591788867264286 6.548950168825085 3.745025581925315
Sc 8.199127771608028 11.133850066617372 2.7666874689340633
Sc 10.666400981555624 7.234130838801971 5.04443457374013
Sc 5.9016342865183145 9.180291208708478 2.590345997557635
Sc 5.922155763057289 3.9471197582439164 4.9526034473820255
Sc 9.028347769404736 4.779362766307608 3.858853782177283
Sc 3.5968841652119163 6.292148861187109 4.224980822239334
Sc 7.974890164967469 9.02722073399591 5.120705744550288
Sc 10.914427873073441 6.811885205800674 8.200394960733503
Sc 10.440450601483695 9.727896460495383 7.085640027541863
Sc 5.74233765131356 11.532288517552898 4.552524208883771
Sc 10.930939552778138 4.332636421370416 6.111942286857652
Sc 8.664904693551579 11.89930939383849 5.785470477991056
Sc 8.417884737354706 5.826318412626262 6.481315403997662
Sc 8.303331855660563 2.831283572344832 6.6516726279663745
Sc 3.0060622780879327 4.3666417149934045 6.480091028785664
Sc 4.560215350889167 8.876150664762939 5.322029946537784
Sc 5.3083480526303255 6.288556380068289 6.706310604545482
Sc 9.874692440249275 4.058877501395372 9.105372573500814
Sc 5.347424856186779 2.8857317099895443 7.783198428587681
Sc 7.0217421937492865 5.050727368262241 9.128924482377677
Sc 2.5530357185812327 7.342421470927592 7.045042367899423
Sc 10.402522777044188 9.275217574691377 10.223768161373622
Sc 8.197370358724951 8.190267679391456 8.458037847221334
Sc 6.291542430372751 10.439327615598781 7.282239742604474
Sc 3.796779021205301 5.326154456137909 9.298469354927573
Sc 3.4237523380108232 10.525735976320831 7.56551840347622
Sc 7.678682198561036 1.9638853839793544 9.571406234343078
Sc 9.16168089799377 6.565193157636903 10.880120385082725
Sc 8.45981052099448 11.208451465670125 9.084480235962603
Sc 5.049426495062165 8.238637995531327 9.109289782743893
Sc 8.050997331930153 3.9316201294059088 11.809513713209013
Sc 5.303801831976614 3.2595799086554513 10.94930906541136
Sc 5.984772094568685 6.3584318674786 11.560116705765271
Sc 5.372094331904351 11.026934279915006 10.021038793173515
Sc 7.479915795642079 9.166854838185152 11.161314920648465
