38
Energy = -197.03342112 eV
Sc 6.389631192897567 10.632135316341746 12.370656131064058
Sc 9.36260100849759 9.94015086764296 11.561632414313008
Sc 7.151270763095189 7.654391056202495 12.421475055681293
Sc 10.199623831677197 6.783797662389699 11.904425573258033
Sc 7.85082381969019 12.409192789424793 10.316220913211007
Sc 4.501631845856194 8.509775708651821 10.678518945786898
Sc 4.9508814424806795 11.639189211138131 9.960677287037795
Sc 10.193903399106558 8.158106912372915 9.030450877119014
Sc 8.014113545782743 6.349750483364419 10.043708254367582
Sc 5.260169708880807 5.385066066217875 10.500628641350685
Sc 7.177775479138756 9.525165630188948 9.700912212854709
Sc 9.717672832803515 11.07523421716852 8.30013541729424
Sc 8.265049343899152 4.481869774426039 12.063139025824762
Sc 10.326632939398987 4.600975238609712 9.633009307460426
Sc 6.810025484920324 11.72091059267741 7.334933673429902
Sc 3.072903466557727 6.410532380594409 8.385832670602914
Sc 5.82379271633364 7.203656573381648 8.108112961879971
Sc 4.413048686805723 9.741380033090218 7.705297801876066
Sc 7.616976456747147 3.5048661006123765 8.941100113036871
Sc 3.2515431059710465 7.828516918453284 5.776204279774952
Sc 8.025041715218858 8.977800561877455 6.909981902746534
Sc 8.61331989387761 5.7915860522389595 7.3677331222898585
Sc 5.977157651375482 6.763123306829156 5.150767979165035
Sc 11.647788883169572 6.203166298915814 7.271908989474076
Sc 5.590323301917378 9.707259676044922 4.822805744414003
Sc 5.113514745476701 4.366921837127764 7.615732303833296
Sc 3.6929444579281787 4.977324897292634 5.017988656041737
Sc 9.055812476861291 7.119379196482578 4.894363582778556
Sc 11.063501367291776 8.8903699248416 5.91957070640363
Sc 10.245760362419526 3.8562448004682537 5.928150822820116
Sc 7.122166657061531 3.925128465152095 5.3849397589136085
Sc 8.680799318325096 10.173949109052662 4.374835902573101
Sc 4.092806968818637 7.337032737207541 2.98873473881947
Sc 5.956438542840365 5.006514870086505 2.7245555306763087
Sc 11.765970472050016 6.00921646347255 4.308053278876381
Sc 7.28465032026019 7.87289123536295 2.5923192838563187
Sc 9.045024981699235 5.012044992113298 3.065011340690335
Sc 10.423710339230716 8.186418184835604 2.6493060000693256
