31
Energy = -157.85263676 eV
Sc 7.613637623301018 11.055749241995587 4.4774887382780175
Sc 8.899042500509735 10.630374820325745 7.371576948297615
Sc 5.818312982536385 11.477093883675977 7.040066986687316
Sc 4.783767228009581 10.039381658601256 4.401675948035338
Sc 9.639509756795563 8.785244617509374 4.765828512687455
Sc 7.108679300427058 8.247068817537595 3.0893412887330363
Sc 7.151517553601825 11.338326385705917 9.828374132171184
Sc 4.609809403317953 6.989013275407351 4.913791788526341
Sc 4.42100324920652 10.682599528193935 9.839568662156594
Sc 6.848744222442858 8.734823730606404 6.0811515883536575
Sc 9.294755161427247 5.589946615497235 2.825047128322309
Sc 9.580575675419837 7.591667521598736 7.714795424620169
Sc 3.788830238121459 9.028075471122678 7.24111627075517
Sc 6.38236674450862 8.353683198699434 8.992658905153704
Sc 6.111311162591107 5.296513315140998 2.7482809381067583
Sc 9.049724557261758 9.234511762970644 10.265127784855265
Sc 7.597932569609476 3.0091432521799577 3.710796385463709
Sc 5.284640721389039 4.01786518384092 5.565442772084315
Sc 7.103968038737793 5.354620126008312 8.001799075914422
Sc 11.013529226552999 6.1628283878161305 5.403669702065921
Sc 7.849864638806581 5.848116175582495 5.14200395575579
Sc 3.6901224052363317 7.885254918116919 10.239211900292105
Sc 6.299416407837144 8.885669697217242 11.76334696840823
Sc 4.1016924068443394 5.9885105416578055 7.821793536066722
Sc 8.687826042620092 6.246709230941743 10.488221408033102
Sc 9.963322927362636 3.565239568784232 5.175777101674958
Sc 10.063403830145068 4.5386629463788015 8.079195185713322
Sc 5.150756441282087 3.196700774105132 8.626081934429067
Sc 7.719500767195798 2.54313652400353 6.975689628437588
Sc 5.700413917110885 5.577778038321358 10.69823996065127
Sc 7.824045832420983 3.3557618485253813 10.02806466521084
