34
Energy = -176.59686426 eV
Sc 3.2292181188159073 6.030430061140037 5.853249002274784
Sc 5.726224589044557 6.809843966986406 6.599017338984988
Sc 6.622364403256295 3.755491163882704 6.0226471957270675
Sc 7.5376002693433595 3.622771360384713 9.097576919175566
Sc 9.648903758973798 3.1721137375027406 6.645507523496674
Sc 5.7576221617243 5.756339422248251 3.8546147490476934
Sc 10.471012553181449 4.875318425784744 9.272872852625355
Sc 8.945363716372569 5.147713008958483 4.354824269630773
Sc 4.648690940092939 4.389686368983753 8.297165549258802
Sc 6.454685825996293 6.58272616856504 9.392963629113257
Sc 8.511129570914736 5.72194452679859 7.171430502563899
Sc 11.377513165373257 5.81949756502108 6.3892149474788
Sc 8.38487496665328 5.463879443815801 11.469805902858006
Sc 7.725860952193412 8.05982498255326 4.577410333146208
Sc 9.712057869385264 8.524740758247903 6.87260211015254
Sc 10.80528735727906 7.85057360632258 4.186802317299482
Sc 3.497108578677157 6.8598546072218864 8.96098505715157
Sc 11.953899382085016 7.562868272764682 8.883801940525032
Sc 9.710344294404617 10.519004883999669 4.703217827650367
Sc 9.01551550091009 7.713864830658501 9.549583073094299
Sc 4.607920392531888 8.61346921936681 4.40750459566019
Sc 10.478197621684883 7.998683769233628 11.770755393427075
Sc 6.902069945848183 9.30922212340006 7.84103083666606
Sc 5.087101625905577 5.416602560330567 11.378790674345595
Sc 12.172479930304519 9.60292419797013 6.388548815617284
Sc 6.52095642102939 10.859107455159531 5.3721437030560315
Sc 5.0022778253142555 9.319788127941933 10.172849431712587
Sc 10.795436118019042 10.136291327373772 9.308327994815155
Sc 8.78338685566307 11.572300924539064 7.471771731563169
Sc 3.9482638402366206 9.343611967418385 7.228797460054654
Sc 7.172111880923489 8.019917168655759 11.955603803285497
Sc 3.663747812053514 11.614990004380015 5.400215906339679
Sc 7.903278102853407 10.589253229246317 10.361522334815911
Sc 5.5486272484518855 11.856339996640806 8.09734261434835
