35
Energy = -180.25482461 eV
Sc 10.87560648553889 7.820716054156428 6.522707207589043
Sc 9.164557933373993 9.901288728444417 7.9258927877191
Sc 10.194841461050393 8.124056554540967 10.181310614674484
Sc 10.340714502711803 5.489083628534437 8.392870217335966
Sc 8.00577481099366 7.6777033682355595 6.36799795424435
Sc 9.73252232847947 5.056950086773677 5.566992019871679
Sc 7.1079685126006025 11.71599187928882 6.821848311848675
Sc 8.995689950017306 10.120181063334531 4.824770020130192
Sc 7.32800557727342 9.78530810427645 10.174319952791866
Sc 7.793313000715259 6.971235815381108 9.228223363656275
Sc 9.56803202991983 5.254997332053767 11.195478114580391
Sc 9.058791429504709 7.183872857670789 3.4804665538771404
Sc 8.801124591952894 2.9465073615747164 9.17968120785954
Sc 5.677760391702664 9.129465358004351 7.795908999005859
Sc 7.122338731404739 12.203343922001308 3.6748996166227017
Sc 7.5231581034539365 7.287894765594717 12.063594577887729
Sc 5.928157363691573 9.90383359470272 4.915109974981305
Sc 7.143708758183945 9.287728667631027 2.420223717031922
Sc 7.213937503540972 4.6784219252602375 7.32099892558514
Sc 6.112587591524361 7.007647989596472 4.299316441475888
Sc 8.242521798004177 2.236263615915416 6.215220606868416
Sc 6.715083356865696 4.540889191726789 10.712462743089391
Sc 7.451270140823056 4.373970766805231 3.835908511765936
Sc 4.933552098185759 7.218524283007912 10.082107637487898
Sc 6.278814641421131 6.355357979483856 1.5714193877188536
Sc 3.418981620722778 8.611361643476002 5.748393633435138
Sc 4.729235873107812 6.154644366224219 6.769110172666282
Sc 3.913564472864881 7.993296442884825 2.772901954125862
Sc 5.806327388427683 2.2096835730266746 8.259245967655202
Sc 5.40534008775225 3.058112115202165 5.486135961393755
Sc 4.170031129490123 4.4892669883454 9.24846427492727
Sc 4.269866482997464 4.92942551052005 3.483669555714966
Sc 2.3361042631947426 6.684953801322696 8.09000048894696
Sc 2.114679882003023 6.200455726368493 5.046292603441535
Sc 2.853190066047283 3.7214122520673274 6.789066621747958
