32
Energy = -163.73460497 eV
Sc 9.017772003705373 10.143529923392478 10.071661261146213
Sc 11.070742339744422 7.92426457684968 11.600130624266052
Sc 6.768010159793449 11.67396211898516 8.056366224874527
Sc 7.771920090695557 7.498722305862781 11.668168347201862
Sc 6.111794058735401 9.374990429773632 9.971989630650766
Sc 4.689117519451603 7.074233860266301 11.200732756656489
Sc 9.931378313546046 11.26979799424417 7.320929086990328
Sc 9.791137724582969 5.239297646662513 11.376848351178579
Sc 3.216147418622511 8.869172438582101 9.050271952683202
Sc 2.260863480522991 7.569009022407022 6.4007523196743135
Sc 5.079158402824506 8.196212030943432 6.813247804745915
Sc 5.874663394667957 10.658454059117652 5.23115176101256
Sc 6.673061714607562 4.599716852963661 10.830439343366859
Sc 11.80076287329142 9.306767647612938 9.05612190547987
Sc 7.8991356685875935 12.869467076291048 5.581624298386875
Sc 9.592139354225777 7.329966980869299 9.153084905918538
Sc 3.7096791491342676 5.932800363559049 8.521963689690871
Sc 8.001975811790913 9.1330800870469 7.18672552497012
Sc 11.99724893667169 6.079888209341005 9.290122312157846
Sc 8.815031150940777 4.262886106011171 8.64995180760802
Sc 10.813923722722004 8.452544067961334 6.282451296999647
Sc 6.691262314521605 6.651103631228984 8.923405782550553
Sc 9.035427721137568 10.250953571248704 4.585393999851368
Sc 4.1509199181589524 7.815931476137677 3.912599641874924
Sc 9.429758297460607 6.721884759323637 3.9443874027303747
Sc 4.411572989243477 5.385012762244445 5.623926883660124
Sc 10.399430915935731 5.5351957957324025 6.550335266986847
Sc 7.444061347652111 6.3649421493387655 6.093083302579978
Sc 6.946585034121672 8.370919090020232 3.7564546483674004
Sc 6.003648443947875 3.923110209827672 7.719919528996729
Sc 8.209726467385368 3.788708813133466 5.32623953341888
Sc 6.476734470273928 5.565872364878554 3.3467572753763193
