39
Energy = -202.25975716 eV
Sc 10.813652640093114 6.1523958652820525 7.383786276320179
Sc 10.914293218672064 9.337417100235628 6.399721883434366
Sc 10.413926008701333 3.509542355796384 9.075195037219848
Sc 10.284999740845084 8.420404436510276 9.14139301519022
Sc 9.894781924560185 6.207691404744549 4.303114422332416
Sc 9.758487072494413 3.614727053228193 5.9711665990476614
Sc 9.472218341691603 6.136521795184175 10.578387161118922
Sc 9.357242592562775 9.225838763012323 3.8375468167611304
Sc 9.190961953963342 10.961920736420847 8.378072198110642
Sc 9.233442079329302 11.738238507789827 5.311787454576345
Sc 8.375846207417112 7.765778319331467 6.318069514010116
Sc 7.835328353453411 2.1164113740499935 8.091728928566889
Sc 8.020988982476897 5.059179443774817 8.144460383846159
Sc 7.995183973334183 3.554977959362492 10.810583574665019
Sc 7.9855036664638215 4.0258054743343985 2.7329717663561404
Sc 7.21679490830283 8.283287467109794 8.961656120395427
Sc 7.502770249505837 7.325892200986628 2.701047278796847
Sc 6.715691926699678 10.492529074105299 3.567649984418572
Sc 7.591745914182375 1.9030055582977652 4.973764385220179
Sc 8.168917600805155 9.132246461407496 11.402991871250194
Sc 5.1304691292391045 6.121962037644256 7.504805459681862
Sc 6.907723753461472 10.395127377684268 6.534833543505905
Sc 7.031547471259523 4.999896639714039 5.0992809384366415
Sc 4.68468439886226 8.839437460027685 2.2174486492904664
Sc 4.989130213785867 5.715786192618168 2.697323735947946
Sc 6.388463234448939 6.299977645471671 11.103313135847038
Sc 5.223665522461615 2.914865772718165 6.665797775402745
Sc 5.511380168044801 7.91974388535382 4.999381923655347
Sc 5.233797035904345 2.8027153270445764 3.5725445248843903
Sc 5.206610026942538 3.847716819507087 9.586342690874746
Sc 6.494001793702291 11.175157455791378 9.661418471435152
Sc 5.128704291816155 9.045476302827085 11.08922317294289
Sc 4.442678604448015 9.160028554044075 8.02391995912755
Sc 3.288030905934648 4.822328793895293 5.087014945506208
Sc 3.8133037863695978 10.237409056020846 4.926765080041273
Sc 3.504518950058099 6.676904147440496 9.86389448547727
Sc 2.7060999000571138 7.561752886004444 3.871434508230357
Sc 2.702038672250838 4.384739526553919 8.022836399049705
Sc 2.390949335904997 7.27978129833786 6.864007184836153
