31
Energy = -157.20256683 eV
Sc 10.332551718395715 5.712287202872634 12.049411174412981
Sc 7.509528951258577 6.492117582026261 12.035970382030005
Sc 9.439300174208947 8.427556119868054 10.947449222236786
Sc 8.34560916544232 4.56513170565726 9.981988985153647
Sc 10.625760525162171 6.355474912411511 9.090398617717637
Sc 10.1671929617487 9.078055561933429 7.854394252900822
Sc 5.353522670080202 5.66909961666986 10.001070187527901
Sc 5.989466526839594 8.6300624788153 10.632390589324107
Sc 7.694257194552961 7.2140420660254945 8.538143906489834
Sc 6.241575223692989 4.0374160280040226 7.582624194300392
Sc 7.95720617581683 10.437527793320815 9.220824573769432
Sc 9.151597966978885 4.879405318932815 6.904631922804115
Sc 3.086510522852278 4.807945210590573 7.893179987368055
Sc 3.5516386658348913 7.680687806773579 8.776957275725357
Sc 11.36389399337817 6.983185948218005 5.9223339231609415
Sc 10.846643502939393 9.960931389222571 5.0408963103429265
Sc 8.033418703322996 10.570650291961273 6.086529440204123
Sc 8.431269838087983 7.581430281176847 5.375152064204172
Sc 9.857020621935156 5.309262955729569 3.876070894631024
Sc 5.174720077931822 6.557963111214408 6.373444768333091
Sc 2.068496254596412 5.841536185920454 5.276007995791425
Sc 6.966991407428449 4.794272541934921 4.602469790224534
Sc 5.658563256180621 9.466424702824911 7.568056060319956
Sc 0.8733176783441574 7.013650829492324 7.632890272060875
Sc 10.739764265149697 7.88381196974307 2.8853814134739806
Sc 4.206536220426511 3.80266919907564 5.223365136078327
Sc 8.511207780681662 9.86332964367595 3.145113288085515
Sc 7.599853694890366 7.008639345213068 2.5243971127076916
Sc 5.830994352574469 8.959031281179824 4.393566176957927
Sc 2.955454686476704 8.573943939134042 5.93492255572927
Sc 4.501162537034629 6.352314563888982 3.479372144039988
