30
Energy = -152.27257213 eV
Sc 4.194652070200645 3.032307253175756 6.1109389745236795
Sc 7.033580357566465 2.8233253231434006 5.2983236532708124
Sc 5.145874995225716 4.438501303704545 3.367004142371338
Sc 2.7524079116140316 5.517363170513392 5.3575694577429624
Sc 6.439138958768215 3.4970013562842435 8.22183924227584
Sc 3.8939692455032264 5.423744829293871 8.204370463548479
Sc 8.486921633924297 5.005080482265581 3.8528018838376004
Sc 5.783883463929377 5.601223964171932 5.845575550307399
Sc 4.251435526530828 7.966857827569008 4.375670287327457
Sc 9.10638194372598 4.629153426459662 6.9090326628471646
Sc 9.25938668585376 4.83812664845919 10.049131901318342
Sc 6.628024542371727 7.126460248333413 2.934172848944226
Sc 6.875648825817683 6.411106812916711 8.70482672670599
Sc 2.9156528655973606 8.185026874908326 7.230365872947949
Sc 11.848614008310005 5.452408378556744 8.330258269425757
Sc 5.783028062315693 8.718737435539438 6.976526864481014
Sc 9.600940891464477 7.41422332424074 8.495736029179444
Sc 4.246514224768876 10.720310543020569 8.666955726714956
Sc 8.266051174146678 7.587830222553513 11.2766687128071
Sc 11.356031332432828 7.0857753950300255 10.862314668168588
Sc 4.703902220416116 8.030434781241935 9.96285078042164
Sc 4.014562946595179 10.751140333180981 5.639168654236554
Sc 8.085807899859844 7.3886483953006055 5.544788424408431
Sc 6.761048220567754 9.9368054237089 4.350765925113942
Sc 10.957746431635437 6.962971012437797 5.733116039084462
Sc 12.238356082768295 8.540958519401816 8.162843138476644
Sc 7.216821135540266 9.738922933981836 9.369650258276288
Sc 6.631825119509831 11.63685369289976 6.92718370207053
Sc 10.204171936172068 9.862061820767751 10.076795091159353
Sc 9.231926578763039 9.849289764023833 6.860172905001718
