31
Energy = -156.77050212 eV
Sc 5.006615478134843 3.608106227192194 8.326130371783325
Sc 7.973741845288684 2.8851307617274764 8.807464421448936
Sc 10.979809461594217 3.3191887063429135 8.928722350793116
Sc 9.197418904586865 4.979355964340571 10.761433206992944
Sc 6.103673694484657 4.70598613893861 11.000117284859646
Sc 3.672885345235987 5.085928808709485 5.960388561550522
Sc 7.640271021454501 6.568994320814065 12.845271205584156
Sc 6.710387191757398 4.131365517988159 5.890089359432564
Sc 9.578977956269355 4.826509239049562 6.73356630643703
Sc 4.271953458473253 6.505627138159569 8.748707463382532
Sc 11.055843735956946 6.399529028163657 8.788128582239226
Sc 5.379679205982248 5.7879954886208065 3.4129633138920767
Sc 6.417773178249497 7.904741866607085 10.441680182244163
Sc 7.270578421759218 5.674260819502129 8.541297866176265
Sc 9.376562190128277 8.035304249552501 10.757672545308528
Sc 5.524236690950155 9.491496899459879 7.933477374821525
Sc 8.382580715274402 6.705057809851933 4.577785812055372
Sc 8.267441957787598 10.594125347614556 9.245574951694893
Sc 11.045261051002486 7.884200794173739 5.986019762414211
Sc 11.119776726431926 9.433383675833538 8.702377636018133
Sc 8.565993893800162 8.155892060989979 7.585821236601705
Sc 5.786221562013924 7.050672556551989 6.13239417450171
Sc 2.3506710317472845 6.502092960027586 3.6566652787001344
Sc 2.9647936942327537 8.137633762691971 6.24437032370161
Sc 7.074258429592602 8.27290527501321 2.3930109226561473
Sc 4.375810991080108 10.901707166995928 5.556913568374653
Sc 6.839966736597765 12.006646911110666 6.877821275295086
Sc 9.635674090964827 9.280742200688804 3.6000726352536376
Sc 9.701158281412122 10.754951478340763 6.39425286131499
Sc 7.076002809292696 9.629009901559789 5.091105022106831
Sc 4.348501650541331 8.582353826788516 3.6364265083716205
