31
Energy = -157.80369973 eV
Sc 8.303556395498125 4.781770392069932 9.842641344050763
Sc 6.22348054242274 6.070421690460865 11.30495737925751
Sc 8.787906866954609 3.3725929619900494 7.352678513043672
Sc 5.470162387312497 3.278986366436014 10.148043848155133
Sc 8.687125057906599 7.688733355233654 10.164957279765899
Sc 6.171732970739689 2.0123571071640547 7.322612142647908
Sc 8.091415101646158 2.4640450776176235 4.506946714013647
Sc 10.49726939259953 5.77564381571307 7.971117152390669
Sc 6.016521807122799 5.073954457324871 7.923816609985014
Sc 10.796652546947932 4.031583318945586 5.3886627867789345
Sc 5.774776125153218 8.128482104723199 9.283119053806587
Sc 3.6121882931463163 5.895566396225844 9.677982911979388
Sc 3.5571923254586832 3.41493791144049 7.799280783693064
Sc 7.949881775308783 5.259363985588514 5.075159017576699
Sc 8.084957494230169 7.212132338772968 7.2582167766283
Sc 5.196942355985079 3.8435336233781805 5.163048400561886
Sc 9.728100954848754 4.770730468115599 2.7182424390942566
Sc 8.099319005890857 10.07654489458513 8.031031925874546
Sc 10.349858537935235 7.034257205304592 4.939407008267339
Sc 6.7858212387532895 4.60497487186802 2.4719786443277303
Sc 3.6483530942363203 6.337203376956945 6.6144203268345665
Sc 5.520467234937285 9.056688251984472 6.423468820829085
Sc 5.23076214741435 11.16722238313457 8.565993821234011
Sc 8.246519379850387 9.386855644547174 4.97089995571318
Sc 8.06703260482851 7.440903634119139 2.7291000460183055
Sc 2.9662065421230372 9.001491527942365 7.965326089737777
Sc 5.533883326932258 6.960069006841998 4.222928521276128
Sc 6.646500994460889 11.860022189621114 5.938019214618783
Sc 2.9492463418248276 8.729160514132436 4.7813973045457185
Sc 5.558439751159251 10.062162270999636 3.5972700971795946
Sc 3.634134267643459 11.38959709933991 5.927490406699624
