35
Energy = -179.73628308 eV
Sc 12.146363122155584 7.882010709201606 7.922403497655082
Sc 12.398551847935806 4.998474683231416 7.371457492241331
Sc 10.471081997223004 5.88436484927142 9.665812458076923
Sc 11.961775842667718 7.046663358408343 4.887250478041046
Sc 10.039772309415035 9.278295248535231 6.244584067936526
Sc 9.483129372487994 8.681425022521045 9.31166510064225
Sc 7.8095045948189385 7.024985497765743 11.351022453808612
Sc 9.575660922654729 3.561558576510816 7.806086880099658
Sc 9.69340269420428 6.227125032699547 6.511986350811182
Sc 11.050872033993457 3.9940396947705605 5.013226757406814
Sc 6.608188462981333 9.643968267681164 10.410427486244302
Sc 4.767370682111377 10.889911113126152 8.197997167079123
Sc 9.914928756625406 9.010815407222742 3.323244220676266
Sc 7.560000850948605 6.3071273193161845 8.60260157107175
Sc 7.050181175971446 10.355473495175092 4.2798767009387095
Sc 7.508340758493789 7.746327591064362 4.763937392756245
Sc 4.893056122027971 7.518541376368526 11.872420372700383
Sc 9.383249018772096 5.996573887809062 3.2802843872698486
Sc 7.195771194292443 9.260317898783695 7.380776733367157
Sc 4.736921813898455 7.696899722422448 8.83464036051604
Sc 7.4930210502816355 8.290302413175635 1.8482990444267264
Sc 3.4847709727498004 9.87478231557712 10.790059864298334
Sc 7.977971099757461 3.854768150713032 5.171345784715637
Sc 4.579451274522603 8.663527276128091 5.961574958914853
Sc 5.874683918044759 5.776694385387144 6.208805527879813
Sc 6.385092268765516 3.376531274097505 7.8731803364727915
Sc 5.339829337107784 5.015161320555729 10.386706796141425
Sc 2.0442830730250914 9.61856304724176 8.331468632156486
Sc 2.36215890576741 6.869107800420721 10.165628345498893
Sc 4.870959060747108 8.265394036698762 3.0997906613575634
Sc 6.171429149485177 5.491745826197887 3.140599211919986
Sc 2.1812806630150576 7.073372733892701 7.080878666091279
Sc 4.869183879819131 3.2680872326777473 5.204762691840527
Sc 3.6314687359747304 4.682424584212919 7.818283212625981
Sc 3.438633708023025 5.903388875724114 4.620322548655469
