37
Energy = -190.63885097 eV
Sc 7.055919279833881 2.1443982015729537 5.079282796770332
Sc 9.77237737643696 2.9446727496095875 6.0599845020985175
Sc 7.535251731231625 2.847478208172558 8.16064732146603
Sc 10.432330903213012 3.463253827022829 9.452137794941422
Sc 11.097557181050483 5.280236838011479 7.058306327464664
Sc 8.566809102285017 4.093384678633988 3.3383609049831726
Sc 4.814233416875499 3.5035940297253867 6.541999562170136
Sc 10.04238321481783 6.436976162311005 4.70136660179981
Sc 5.513861353303688 4.481925272893207 3.675342273500423
Sc 7.420160115588419 4.330944309533834 11.10396894007166
Sc 7.55867345644257 5.09109379185666 6.022369245745724
Sc 12.013992381763932 6.2265176130824385 9.546091561486413
Sc 8.841785362271533 5.78716174212291 8.96776214496844
Sc 7.313781725379057 7.054414199004773 3.468893998920484
Sc 9.420046617950936 9.426963567524204 4.456264728098492
Sc 5.726608087599396 5.297049469388318 8.787847406079036
Sc 10.016700476728953 5.762312622059494 11.669783777535693
Sc 11.499887536239402 8.218846311585022 6.958197992264769
Sc 8.555093018121807 8.107819292670484 7.17900939322385
Sc 2.9114896501939382 6.413457630920286 8.225573458720012
Sc 6.691166957703513 10.198834912327854 2.7778959208258693
Sc 10.227236628700272 8.546469799489635 9.813446086695048
Sc 4.766077730932437 6.496515514186961 5.852064039531391
Sc 4.4024771460538386 8.353101708804049 3.479142472488936
Sc 5.4361572390503 8.379221984060475 8.514611981547066
Sc 6.382451956168921 9.155320895923381 5.496517812792713
Sc 7.310492380387312 7.5055902902784215 11.001432701351758
Sc 9.77550260045074 10.825573909382669 7.248632322625696
Sc 4.240180279605106 6.819860260572623 11.00014893034318
Sc 8.012666900603074 12.007927224467103 4.680901782600207
Sc 3.2417441530961466 9.122675871348596 6.459145181620963
Sc 2.5860657792081803 9.073005381477703 9.595348428713303
Sc 7.688065790166299 10.223044653059487 9.60643443046914
Sc 4.831618420280936 11.534940446916348 4.968143385277418
Sc 5.051129463772762 9.797712856401688 11.170790363385876
Sc 6.899276873334666 11.530361630458284 7.221626965006286
Sc 4.310414577003235 11.235956446396049 8.412305665372232
