33
Energy = -167.3342302 eV
Sc 8.780263724334763 10.986279423969117 8.684452627486207
Sc 11.391574694330739 9.95876290605594 7.469683273210175
Sc 6.2631726127684155 11.857165989598483 6.7969368381489
Sc 8.900837817109958 10.803940120599618 5.635318567974645
Sc 6.495709779869741 11.536327643496506 3.7514548983792944
Sc 12.790423680619332 7.103288554354741 7.089228912967645
Sc 10.479209730707497 8.184645694765248 5.174500354697203
Sc 3.729071090090609 10.24122379506781 7.344296156288591
Sc 11.222924224708718 10.440423413653386 10.44423597816395
Sc 8.068948716856974 9.078460050480636 3.3722456866986956
Sc 5.261921183020761 7.927206049277081 3.3709100005731476
Sc 11.1405851614521 7.615723498070945 9.352270449935354
Sc 8.619825665540825 8.15231971254028 7.579498929017092
Sc 6.083491486437618 9.487825502856051 9.041397727006961
Sc 6.174746829787381 9.169055707868248 5.792197814806766
Sc 3.8189052452858427 10.540585133973147 4.386970882695396
Sc 10.300731119327143 5.518299444985996 6.7811844918223025
Sc 8.659922894167996 8.701191674745406 10.669961998186585
Sc 5.656412742119272 6.5037835277242735 7.563401331426867
Sc 11.961039712293429 4.812148440751211 9.103054286371357
Sc 6.14595948073978 6.726409580246635 10.584009581868912
Sc 7.67406710891889 6.570933782542149 4.9681393095469915
Sc 3.4531117745778808 7.663834175211237 9.103082864649366
Sc 8.787327244086722 5.595512586392799 9.452163153442545
Sc 3.352157705768671 7.78596921875649 5.740396224282547
Sc 4.890333354002817 5.078902863414405 5.016779451306449
Sc 7.377296483803748 4.127375892265213 6.966273325852925
Sc 9.58598110128995 2.7677718474666184 8.46112528785846
Sc 4.113259534808445 4.769312020785983 9.71630339533362
Sc 4.630108430437829 2.903063603793931 7.474971553770771
Sc 2.7296900754775164 5.225262993566511 7.184451920567502
Sc 6.779786085232151 3.2442312833645195 9.738216334411549
Sc 7.114362683081606 1.218729611484745 7.511939700032999
