39
Energy = -200.24237572 eV
Sc 8.393105083356295 8.581879342152064 11.093435787799125
Sc 7.2719166468092045 8.294300095259812 13.834531940409668
Sc 8.966206830879901 6.155386026999884 12.719997745850952
Sc 10.144839874475435 6.343096288490985 9.802508569298242
Sc 9.584330531017395 8.826938282237947 7.932458160699939
Sc 10.828697958380973 6.394911285291095 6.458486011768357
Sc 6.51360252604631 9.851779593781004 8.662416134095924
Sc 5.526426006834777 9.521735479308292 11.600943718723473
Sc 10.725393712561289 9.18954755202049 4.927565902000833
Sc 4.432306761531412 7.761040108077557 9.224408365508845
Sc 7.859977637884973 4.349877936424458 10.416066582871984
Sc 6.200889009043611 6.560569746964671 11.672469627756715
Sc 7.9238867176595615 10.38681117488622 5.979766785026167
Sc 9.37694407713638 4.138381012966591 4.8054662373766375
Sc 9.246844032389657 4.190880521133423 7.827275535247831
Sc 10.788748785030167 9.302476032739786 1.7312669134083944
Sc 7.401825498745027 6.787003740246017 8.628697650001774
Sc 5.561030168643393 12.144321208587952 7.050938459038904
Sc 3.6475898517720204 10.690606944932926 9.316024868801215
Sc 4.990621025720028 4.708261086222262 9.058996686868893
Sc 6.620033595380017 2.368109284920997 8.215669530461131
Sc 8.298431625916349 7.313033919521345 5.315351673403995
Sc 3.5261437808352327 10.245877927268058 6.55183123040657
Sc 8.226709518326746 9.57157285047978 3.199612727598544
Sc 8.548571903138548 1.5880022637874665 6.223696394536329
Sc 10.246245022406923 6.756330189224754 3.1344501624266994
Sc 6.567847467078775 4.828550162749188 6.285520954494056
Sc 5.551204806662903 8.05495520955435 6.275945906547992
Sc 5.36649085702307 10.559568522037287 4.328295408630231
Sc 8.281984429098683 7.649074590000262 1.091472432246873
Sc 1.8837916287205254 8.3096233685545 7.745999959225012
Sc 3.4566182282402313 5.885192536265491 6.751772177739911
Sc 7.42517738717455 5.319504821367333 2.919937903037638
Sc 4.272179372228216 2.8825706093710397 6.3135991687298105
Sc 5.866553663358222 0.2790482852147422 6.143524311187926
Sc 5.771171696417576 7.780303859448042 3.1688384157977074
Sc 6.5854007568792285 2.548336240792807 4.25302698969862
Sc 4.58175851652455 5.180821148046091 4.088915625024561
Sc 2.9461405312822517 8.05759797928524 4.680935551162796
