34
Energy = -173.87079127 eV
Sc 11.572790696319593 8.945021860069293 8.443438374250059
Sc 12.000915121205795 6.044116981466627 7.909459690426244
Sc 10.818152299005499 6.908792797946094 10.489222828397832
Sc 10.91222692831498 7.9125696127566645 5.601797882744451
Sc 9.24327818236893 10.160376794322055 6.931493965463089
Sc 10.02137218877575 4.807679729930634 5.96743000745799
Sc 9.612834763511694 4.366209641864246 8.993463706480203
Sc 8.860467197849577 9.287267505657177 10.022443639174332
Sc 8.742025952729836 9.875262778690237 3.8330908940823014
Sc 9.005121865081659 7.1443748085892675 7.857928366896414
Sc 7.973175546289038 2.5336717525748385 6.672899793932972
Sc 6.808862630732809 8.567973995874553 5.636355091315265
Sc 6.529941941107605 10.264945133160454 8.377020987658948
Sc 7.827004401133418 6.44377697263861 10.725009376937384
Sc 8.74436277709167 6.67904764920923 3.93915310627136
Sc 6.916667548274807 11.756440979337938 5.666569395681019
Sc 8.321949852129384 3.6117749560415784 3.670543718768145
Sc 6.780972539220663 7.977851701702743 2.288815245271032
Sc 6.600006749278046 4.17669626045955 9.013830192904402
Sc 5.687814273011127 8.744015326897 11.108046013628776
Sc 5.745888571283315 2.6496970604940824 4.577402753037689
Sc 5.701091819946458 10.458594595989515 3.3698003803423826
Sc 5.645369836578784 7.249891361470652 8.576941952978514
Sc 3.7214241300394364 10.014895490616464 9.004427832447465
Sc 6.84047421204877 5.224292485365131 6.02272269607338
Sc 5.802034763730079 5.250369685865122 3.138236746390288
Sc 4.9533844654340795 5.669899085379272 11.271568087316863
Sc 4.849214165617955 2.515955310082742 7.333041950270022
Sc 4.26145978856916 10.293817534741633 5.997232528554183
Sc 4.303499029470334 7.727128598969369 4.126895739337978
Sc 3.504558375053191 4.9779908089502065 8.65980290452
Sc 2.970962754686654 7.487360538094246 10.225709355462135
Sc 3.8660987909117805 4.926651106729991 5.640906211288685
Sc 3.0579206549251543 7.679607834275521 7.067369359011954
