36
Energy = -185.65320205 eV
Sc 11.660136358644104 6.5714882302633315 6.168226758644364
Sc 10.481960446333613 9.192444733703066 6.9543403543865985
Sc 9.901070490840146 5.03951943449856 4.63823859975973
Sc 10.672713527759184 3.59582185044105 7.068675280478624
Sc 9.991887148525924 7.962469849436074 3.851308058410634
Sc 10.154424984680931 6.30783335389332 8.7207195619835
Sc 7.965494879236605 8.628901786834609 9.072520697320716
Sc 9.3714154401061 3.4315696875634307 9.800662231144406
Sc 8.634612005397596 11.312559700839754 7.9707401484355405
Sc 8.613343554632984 10.581187648808903 4.985949759910881
Sc 8.420712414364957 7.2663674789108095 6.145570884992501
Sc 8.228115371276228 1.6364041783895533 7.645420288904217
Sc 6.792577007230143 8.355488705379475 3.6178526005167937
Sc 6.286024430589772 9.6017842572925 6.653559087095397
Sc 7.573240789487776 5.877549210601447 10.445642241300966
Sc 8.00099959930892 2.8761284856306957 4.8549385120682516
Sc 7.430142589163704 5.483244110048791 3.1448982382452306
Sc 6.272714694379671 3.0864829500038637 9.585651493290435
Sc 7.872108486992584 4.559069865923774 7.459713613296271
Sc 6.628656094503666 12.787785070667011 6.429820407052084
Sc 5.222734375458701 3.4391379531952526 3.4966165730741916
Sc 5.672104175110851 11.1206003178579 4.05483975399222
Sc 5.516402317653497 5.71128384934071 5.527777413398818
Sc 5.4040835946798795 2.6748920243288645 6.522209031858555
Sc 4.744676113223259 5.272659416612014 11.162595540505924
Sc 5.409804844200735 6.676264934781246 8.386411010056836
Sc 3.986739083233438 8.64740631368724 5.005463817267966
Sc 5.282364511161299 8.329416454992245 10.781028156756882
Sc 2.681024759719851 6.857206533427002 9.939449786298004
Sc 5.794469313757251 11.189956268596172 9.066318038169912
Sc 2.9378535654147093 4.248776868027492 5.158086793546836
Sc 3.9367168033465556 11.569542620367839 6.45692483118385
Sc 4.320082249317145 6.218301423288984 2.988415240165911
Sc 3.59781832215221 4.256281504837667 8.37468427544691
Sc 3.6147758061540625 9.180031174581396 8.256149801442309
Sc 2.614888820978197 6.668566481358489 6.863050629752697
