34
Energy = -174.47639399 eV
Sc 12.023385457517564 8.006742932984077 6.472554564456386
Sc 10.308517262730104 7.48487886822866 9.6070055187143
Sc 10.206491922773225 10.173021818029532 5.260333073811528
Sc 10.363030396883742 10.047073593800794 8.16008050299074
Sc 11.152680237939514 5.378499466716809 5.026600670193243
Sc 11.47191500366975 5.344850296900603 7.915836469013774
Sc 7.836945974320332 9.368221070532861 9.895929228918957
Sc 8.35270976899553 7.070046600825777 11.83106660130525
Sc 9.26376277282637 4.632212481287331 10.010374087868517
Sc 7.651053906115943 9.78389297527118 3.5803000643927785
Sc 9.333510512036915 7.384935888070614 6.658797300955832
Sc 9.845889577792741 7.685097885188104 3.6551777960540197
Sc 7.611506526382604 9.950159222563473 6.782069210990538
Sc 7.214043403876827 6.544114923587283 8.855776520192604
Sc 5.031409222797926 9.154564968020383 8.286485327751924
Sc 5.440909353257809 7.630923422330873 11.055096771011291
Sc 8.846708823859677 4.339153883121237 6.865416027770354
Sc 6.6363256160601365 4.716952350252557 11.591599302909438
Sc 4.846366182457622 9.794123211207348 5.202274784019689
Sc 6.640854597330952 7.298781675443721 4.951895516114522
Sc 7.498736676880387 7.172138606283347 1.7861312891789851
Sc 8.314329536126467 5.018585023359963 3.796215161689885
Sc 2.7515454135159114 7.718900766908965 9.528506193798215
Sc 6.476118850459409 3.5413193411880073 8.813303764258789
Sc 2.354812620273744 8.761958400483655 6.796800372925226
Sc 4.5258382774968045 6.350900096558665 7.116286191714013
Sc 5.069655106448648 8.641815776656735 2.398340838284319
Sc 4.125636113842866 5.133412351199842 9.912345768383394
Sc 5.974869922979092 4.012232485487789 5.720525773754077
Sc 5.255946952256508 5.471048163712776 2.9997355593933026
Sc 3.26062990038775 7.2840714013684105 4.420996925995501
Sc 1.8031747865525731 5.790383377225567 7.33892530971953
Sc 3.5930856560643245 3.318407132423824 7.632399766359616
Sc 3.1081623270933765 4.394198462113273 4.950188260236768
