34
Energy = -173.65424027 eV
Sc 11.790284386112825 6.366579689292281 6.171986893451541
Sc 12.141265044785372 4.837793779034242 8.88793795562012
Sc 11.221117821954778 8.024122627567849 3.492030530384793
Sc 10.10488436523713 9.23838131906782 5.9716605444801445
Sc 10.95230883917801 7.575173605775279 9.003917720474657
Sc 9.99176040756765 3.884673742887301 6.739617368178907
Sc 9.87968476575356 5.356754774899288 4.137750960619035
Sc 9.512968496668446 10.581729121882963 3.372281774545049
Sc 11.268064428336325 5.920249092927592 11.571953808647455
Sc 6.929849239929552 4.071001603378872 7.873642478677727
Sc 8.92898020487077 6.605068823817774 6.739911483534721
Sc 9.293700184665786 5.024938686062317 9.565872329463717
Sc 8.262544882190875 7.887063905523611 3.6535961360648392
Sc 8.460652190338443 9.509917829193757 8.707121892472179
Sc 7.813203203981546 11.389339333713595 5.842136535339823
Sc 6.84368050362129 6.932589087600512 8.812680513168566
Sc 8.641878410180682 7.5172595066302685 11.142795340077846
Sc 6.5906218856368755 8.68412886241414 6.232196354711722
Sc 6.456266153497669 10.311736357213062 3.435396252502551
Sc 6.44306089439974 5.063656605404816 10.95368441717517
Sc 5.847702038699119 8.966880383774186 10.521071078713865
Sc 4.6089359577277635 6.200591463560422 6.902475995601698
Sc 6.777836462370172 5.2878180213717085 5.049809667498331
Sc 4.680982042759761 3.0862700132982557 6.014627148072685
Sc 3.805753871967653 8.925720360815717 8.139879343465392
Sc 4.006757513480141 3.911537089170957 8.83374564486511
Sc 3.9422757595633016 6.582189150941593 10.060400733339106
Sc 5.884374970169065 11.038070339257699 8.138307314661688
Sc 4.400163249384711 10.542540316920007 5.5386952884856155
Sc 2.432623540922195 8.095174334161886 5.505427217435031
Sc 4.881604964239538 7.590529323161073 4.00307465392747
Sc 1.8954975759560166 5.95590276774825 7.7045448444415126
Sc 2.790954911129287 5.176293156654387 4.79498557530372
Sc 1.8278489536052431 3.06569661265169 6.75357100039939
