33
Energy = -169.28085953 eV
Sc 7.086584483518749 11.55001542429366 8.376885679336551
Sc 5.732260952163057 10.971950026045452 5.367780684559758
Sc 4.305592025659826 10.1760998237143 7.985893334555924
Sc 5.642425536675193 10.44093824540706 10.856518234692075
Sc 4.850371382716279 9.155675483189134 2.914988085715924
Sc 8.40675341634364 9.653117093341862 6.483242260012936
Sc 3.0785443877321184 9.3013734525738 5.299381400790999
Sc 8.466983226304498 9.962195349257033 10.551391031674166
Sc 7.84255804202411 9.51268311478974 3.4953927378622063
Sc 3.8977868341468955 8.173557622588751 10.347025523463863
Sc 6.603127294174209 8.397796924094948 8.718545669167458
Sc 10.596172304628878 9.955966942254863 8.612336221308507
Sc 3.53408672726437 7.1414092727664515 7.396177317619027
Sc 3.649501787031283 6.488178660613495 4.262803925476759
Sc 5.902731235159613 7.9814078724514586 5.518185742270462
Sc 6.796780307817319 6.734502264589478 2.807386642229787
Sc 6.839402651841111 7.5674090749045675 11.559319370124415
Sc 11.26178788892885 8.660492681146518 5.9316505542225695
Sc 5.29696384675501 5.665860226958234 9.470539858241482
Sc 9.39093058977301 7.079587573882781 8.09873361881016
Sc 12.422253838219458 7.492445364519304 8.495080113374208
Sc 4.204308914871225 4.143686616301838 6.783922351654354
Sc 10.262737983512803 7.5515049460548545 10.900444780594885
Sc 8.876146394652814 7.054974024757733 5.013190842536894
Sc 5.757125089925037 4.4434024791559015 4.192850639796058
Sc 6.926093699661922 5.361179023994714 6.849325246474946
Sc 8.239134728365554 5.116775140693177 10.227139349135927
Sc 11.280433960566283 5.497038520086287 6.342321571684322
Sc 6.377496757159622 2.958276592849089 8.874951658853425
Sc 11.181750404268271 4.964319612251704 9.455512163676845
Sc 8.757078002321814 4.125714218687243 4.5209768406971005
Sc 6.738244346023771 2.400815980963694 6.018605250898473
Sc 9.174925442044373 3.571684744410614 7.617043874725873
