39
Energy = -201.78921712 eV
Sc 5.110995886360755 10.43022381138119 9.971472857499002
Sc 4.015344594114825 7.369047868126629 10.764639215775992
Sc 4.340509274598107 11.352664840371851 7.248779313146083
Sc 2.704116678252168 8.994217005867974 8.42417082797402
Sc 7.460877135214349 11.235354069209762 7.748011293938896
Sc 6.943546363903971 8.090622511286629 10.78221596070786
Sc 1.3939839325592274 6.298119139338651 9.364052647407693
Sc 6.126916033116402 10.489782410013149 4.946745559954742
Sc 4.113458345260851 6.030297705612169 7.982262781406687
Sc 8.770157963544703 8.47247359667965 8.486744478074481
Sc 3.668600293020326 8.677033948156666 5.365351467234335
Sc 3.1901581694680825 4.328125900481196 10.493189361450066
Sc 5.737144393751636 8.778146863227642 7.641734018814691
Sc 1.5164109318274164 6.760838869367726 6.485608055517722
Sc 9.211572436393498 11.40480098548099 4.97992208096384
Sc 10.61852048017974 10.36103855014612 7.469349091133689
Sc 9.357332550216078 6.142082429131502 10.553840917131655
Sc 7.277612580562127 5.779051873155536 8.56496915625926
Sc 6.118202200381937 5.155883800132017 11.301265912235703
Sc 8.26931608306845 3.311315847289837 10.204539099540867
Sc 6.300526319310102 6.436226311873486 5.752903766818554
Sc 2.310324367079889 3.9174334130824406 7.405213722777883
Sc 3.6010776853987174 5.639379954225943 4.6642395780069625
Sc 5.453517413908673 3.2641534213551315 8.934405434874693
Sc 8.502615690642925 8.696507793740018 5.4024361409206065
Sc 11.583652258426481 7.3998699768978415 8.603179615110395
Sc 8.020129823976161 3.295685541495804 7.03190632470722
Sc 7.973203638099727 10.073816727892618 2.532491466248155
Sc 10.718441254656673 9.30116810416961 3.215050059406336
Sc 10.676992614289524 4.276922754869736 8.49946389525371
Sc 5.770626514425717 7.896336389251493 3.261170798237207
Sc 9.647304111743495 6.109466793820213 6.386816552329806
Sc 5.233295528266411 3.5801786385276193 5.963261916609575
Sc 11.791083305884543 8.349800033624707 5.75265565947007
Sc 7.9640391276381255 4.574269075370674 4.1763597879248024
Sc 8.64461389266574 7.185307393294719 2.86578168415341
Sc 12.643844223618654 5.496009677324829 6.417870817125279
Sc 10.655040643367638 3.4723746416889356 5.410683883838285
Sc 11.22460703319774 6.0986970334812645 3.7673132691690965
