31
Energy = -157.09338398 eV
Sc 7.4080239227143885 5.90727093546711 2.6341384314626604
Sc 9.713613746595673 7.9183745980529 2.8089218439498844
Sc 6.755740185394643 3.5799185631064856 4.666493147773287
Sc 8.897811431086602 6.330568350251005 5.177853331512638
Sc 9.446343079818417 10.457944466197283 4.535326999404332
Sc 7.071670172653812 8.549545829593951 4.000081458614091
Sc 4.893904564460485 6.212244937216106 4.390294730086157
Sc 11.292061701187539 8.10159058125577 5.502644824510002
Sc 8.946352236066613 3.758184343403672 6.896713081530476
Sc 4.1168734799113 3.7855313637012817 6.1853257980491
Sc 8.519293945830714 8.913512367223408 6.937827312071546
Sc 6.435464340031821 2.513558863154328 7.587574961342768
Sc 12.055552596496332 10.898397169660992 5.9439072029143585
Sc 6.769036855543236 11.229021944780781 5.94107059192832
Sc 6.460904078046652 5.530131349472259 6.792768135650886
Sc 10.264149460385234 6.222383110711454 8.064296438555997
Sc 8.201825423111474 4.276055174665591 9.797605177959792
Sc 9.46403492364295 11.572299296228532 7.435068666799787
Sc 11.2264203697947 9.102497595583497 8.36288204140616
Sc 5.045378326657371 4.7563820238904935 9.345353499658744
Sc 5.441548924950588 8.582089880346546 6.705693375377161
Sc 3.436542665897373 6.539704080977487 7.504335901145219
Sc 5.007712644465041 7.837254828319341 9.698201739428177
Sc 7.5690414236749115 7.050523284934465 9.149727799543628
Sc 9.634474701844493 7.179269353054125 11.0541603963865
Sc 8.96371909681861 9.882288387523724 9.931784003586044
Sc 3.0094220982283804 9.421577371187666 8.605560321462358
Sc 2.6426427356824207 6.716496999078629 10.460844503377952
Sc 6.2228320169812195 10.55262659873585 8.911140011699917
Sc 6.91059510636343 8.86959440231644 11.724993553751723
Sc 6.412037066606144 5.999275957799821 11.777005042772569
