35
Energy = -180.1327465 eV
Sc 3.7954730619970953 6.171618036759499 10.175999642752739
Sc 5.7143016617706754 5.876064441766594 4.535852687507837
Sc 10.799203344815586 5.508841694801681 8.593942309144419
Sc 10.834586541732465 8.880134241323983 4.209700228246894
Sc 6.300730644622563 8.531856772313297 3.612948320022108
Sc 5.5157748976758665 10.897438509336522 5.150848268998007
Sc 5.792101349630796 8.125835214947768 6.9081751901688655
Sc 5.667839902273691 8.600487745094998 9.97329679860553
Sc 3.632519106026278 8.542121389075671 4.856063756310067
Sc 5.610251060836262 3.694224423008018 11.286874259074166
Sc 3.219682931292938 8.643625611105929 8.12017695536948
Sc 6.2052222477172245 5.291303365113486 8.726586666751373
Sc 10.634718657684065 10.80677173130072 6.719780643191554
Sc 10.901397894471737 9.055016499384056 9.73600137894865
Sc 10.996268110368556 7.930729043067586 6.95023997151476
Sc 8.155467444833208 6.076374802243552 6.367945888738627
Sc 3.8958866001572794 3.344176224231368 8.866119913287474
Sc 8.704773175586503 6.881780909751976 3.494989854313394
Sc 4.793379608149532 10.59172815935865 2.3662449040083806
Sc 5.297883986102127 10.989834248559209 8.139748492390213
Sc 8.941963012102963 3.4351012619906656 7.223183616357836
Sc 8.367809247087813 9.19292278953947 5.813534650334025
Sc 8.083044118300542 10.898764869322772 3.4207338707002504
Sc 8.263853673752745 3.9296229547173347 4.259275323718223
Sc 7.844341286800888 12.149431338891313 6.342129158885273
Sc 6.924114923355755 6.422754972321685 11.745858775693529
Sc 8.512071012627526 7.394597010688311 9.18286940940767
Sc 5.896817433602503 3.5338280616982614 6.3395468360681555
Sc 8.575170987179355 4.161505324374975 10.263289722745759
Sc 6.616673377479384 2.1228154073325434 8.921515463838176
Sc 8.448173044537779 9.190606333143778 11.568676676556159
Sc 8.23502367518458 10.306644400008958 8.626345793554325
Sc 3.71173958921292 5.8393699328593245 6.951569886899214
Sc 10.793664361778513 5.572734956160479 5.189267993551732
Sc 10.010745835637222 6.627588423054961 11.562461577207428
