37
Energy = -189.14022486 eV
Sc 6.367640657460831 4.138520819019334 11.006823395033111
Sc 3.388001768267902 4.199811293893702 11.147683427040041
Sc 7.996886868879043 6.821948669456785 10.545672203231064
Sc 4.925212832950501 6.8300800806455175 10.755474086572956
Sc 9.053650314960024 4.212229630213435 8.970518854699058
Sc 9.559795940459743 9.705473334389204 10.288550899110232
Sc 10.251424323693561 3.064450884350241 6.323499405964127
Sc 6.528713349689561 9.643192731446957 10.289815068507945
Sc 4.693621372575179 3.0285201158842083 8.73484644846508
Sc 10.72494172359379 7.121950048472576 8.854163938077846
Sc 8.125445915371884 12.270999456822086 9.920018898049346
Sc 12.158030172710783 4.6352245956704445 7.995930450371702
Sc 6.372731068028822 5.45232491212 8.290597477281795
Sc 11.914078713801047 9.8436952639103 8.457420401818895
Sc 3.242184117241347 5.813271422402696 8.525879208229286
Sc 7.214576350720559 3.123683190676925 6.443738896624977
Sc 13.239403813482479 7.400824160802744 7.224019168922947
Sc 8.123333212963638 8.455889943993645 7.866255775669481
Sc 4.457879938987638 4.577358392640809 5.962363858342539
Sc 8.795668549985775 5.7612515803137585 6.316844467002389
Sc 5.264109266001916 8.122690019475671 7.929498774673149
Sc 11.662932204748996 5.652577527277135 5.2381497324461
Sc 10.67498468905584 8.54993637796456 5.990189309827792
Sc 9.410862439278935 11.16658107612243 7.477688490129834
Sc 6.700132403843284 4.855568081330408 3.7922124471686405
Sc 2.955991704001999 7.515767431464754 5.833409275706523
Sc 9.55295386690408 4.19841899495425 3.745813702144875
Sc 6.354645398518769 11.029629026891673 7.664183818618571
Sc 6.125359667229056 7.148369668382259 5.36054338864986
Sc 3.0745872638687985 9.667244291938887 8.32171662587892
Sc 3.9472111077845744 6.142733937382082 3.2331009090284906
Sc 8.869786358839477 7.203836118343158 3.665542294309218
Sc 7.757434143996478 9.75673423796273 5.072118888135894
Sc 4.625301343507654 9.930228248059143 5.321078424029781
Sc 1.656083718613294 10.241045522509182 5.632640583590446
Sc 2.768864857492457 8.94791139673533 3.1808310009504126
Sc 5.893638596535889 8.361449972260509 2.748543664424628
