36
Energy = -183.49531251 eV
Sc 3.168499234063488 8.472236523945678 5.557523613016279
Sc 3.6770731871259326 5.359815821552383 6.433655236341475
Sc 3.1499729631056557 11.51667373428911 4.916242236375129
Sc 4.985906561685768 2.566121551805476 7.112046198127791
Sc 5.233762175421943 9.789327678630348 3.711325878260448
Sc 5.247452472397264 6.668750001565983 4.074561042513322
Sc 5.1171331633804495 3.6705709065010392 4.271871600970897
Sc 3.8586644517191155 7.531438465599238 8.623962754309586
Sc 5.144239885788173 0.7850496533489519 4.774448517674233
Sc 5.064976820146977 4.734145455519241 9.271854812288105
Sc 3.7726333032636044 10.430882362443192 7.737509826668923
Sc 6.042287760717572 8.557191650225406 6.46464108686108
Sc 6.703857905294596 5.256975471363222 6.609575094877489
Sc 5.181491079379656 6.883243783143556 11.624588364261566
Sc 5.899188712700108 11.700851911660312 6.076672082675526
Sc 7.708508118451056 3.096049025727261 8.493658667568845
Sc 7.9828899072657755 8.19223522697814 3.905672261691886
Sc 4.398096740887083 9.618118609895332 10.724764483453644
Sc 7.041713201397595 7.223932783595448 9.322149117448124
Sc 7.918811416228727 11.20534879937296 3.899180237102012
Sc 9.264050429586524 7.082034110897931 11.55715122056019
Sc 9.26896315624047 7.3431587548641 6.802518670269703
Sc 7.531394593776281 2.330415816629743 5.4557890703296374
Sc 6.596745586620813 10.428564831651288 8.952508865063114
Sc 9.460516147321473 9.27755387243569 9.439207643333454
Sc 7.413133800638343 4.782893631814674 11.136342033345944
Sc 7.986422576976609 5.057198861028855 3.8637658129122188
Sc 7.174801671782426 9.160602311831562 11.767429133294993
Sc 10.4829659145076 9.572061869604925 4.406933210146102
Sc 9.768133047536725 4.239956804850512 6.272111474889946
Sc 11.724059974337006 9.002557626336834 7.0723985228790465
Sc 9.803081261631316 5.269125483354192 9.233555485096455
Sc 10.809450604383011 6.591312400295844 4.44279582719324
Sc 8.769712204292098 10.493260112683487 6.641312172374909
Sc 12.095531251759613 6.058296422012065 7.158968619973275
Sc 11.772761129410275 7.495106904402265 9.741951657703758
