34
Energy = -173.56154665 eV
Sc 8.95077671279333 12.580184505702729 7.913783426737614
Sc 9.126754957794049 10.303604344391536 6.099137249372471
Sc 6.758110184129477 11.96304969498454 5.900792819341939
Sc 9.728615489661715 7.82814551361213 4.145306475334097
Sc 6.974801764708915 9.363000364818987 4.14906442451404
Sc 8.561797378645048 10.141822519952525 9.372647468235384
Sc 9.11632145304741 7.398353919326042 7.326108055619678
Sc 7.332457163367669 6.670707129941792 2.2853683202996273
Sc 9.976778934716542 5.248050059840424 2.459142761622488
Sc 6.061536926949073 11.69237503332198 8.825600137554678
Sc 4.375833121672103 9.901304483805523 5.722137043774391
Sc 6.596259610408686 9.118525045008044 7.3214028824104345
Sc 11.08685565493855 9.2855371425705 8.208024949776963
Sc 9.284633467683854 7.513686305872038 10.48576105024378
Sc 7.590464539902267 3.822491771829776 1.4119072646498363
Sc 4.5989125534375095 7.347496297177349 3.8873028372764704
Sc 7.200122487786858 6.428889300720557 5.204421238112558
Sc 8.682206583499156 4.312169216776693 7.471359336041681
Sc 8.27439075591595 3.7671945242323797 4.337796128648801
Sc 5.4081076947620765 4.523725991601421 3.544581762825329
Sc 11.077798139038798 5.8002010793668495 8.719078982223193
Sc 4.575569835104751 6.9514581247644385 7.032490964988848
Sc 6.19872911151069 8.829903785141136 10.588170258451571
Sc 2.9296326933029175 5.233080387850914 5.389721854505717
Sc 3.9099039401065894 9.38366931146502 8.686282442349796
Sc 6.805843162128274 6.287433442207349 9.043106984621572
Sc 10.68257853941101 5.378184830230845 5.541313177990385
Sc 5.623834378276001 4.126042862481421 6.569050847393858
Sc 4.1525224355639425 6.611448010917491 10.293790317884373
Sc 8.90771148361159 4.564269847371944 10.537232129187068
Sc 3.3061829867378574 4.3898312886507185 8.524226658130909
Sc 6.5252584257391435 5.792564269521018 11.947563414220335
Sc 6.00031192077475 3.6377569150898896 9.665507990328257
Sc 3.891058301773432 3.9727546508276745 11.61054218728454
