30
Energy = -151.45670814 eV
Sc 9.167041396944246 8.884348205172682 11.367907257777022
Sc 3.1099624232227465 6.4060371468695205 9.888632032248083
Sc 7.51105737657174 5.5501649400999 7.24476376216955
Sc 7.279301461460905 9.08384525937803 8.707734779127415
Sc 7.309096278085696 6.741696393596514 2.817733557750599
Sc 8.070258969578619 8.156703448027358 5.801125094652771
Sc 9.631144794737283 6.005860624330692 4.50306394774314
Sc 8.393071715615813 10.898543440798504 6.185261957576787
Sc 9.096859210791155 3.639949989924071 9.113459642655354
Sc 10.562654158300496 5.8211788465150685 7.45939146770396
Sc 9.292819627239034 9.081264064039097 3.3385334168612397
Sc 6.6301350070625125 10.659374222737792 11.16197195862905
Sc 8.43556016667384 6.404708819944143 9.985295812789335
Sc 6.5502528775920545 4.3670606875767 4.578320956504489
Sc 9.236031104745226 3.3402393450445707 6.077698811190787
Sc 4.47685638987996 6.356308656765409 2.7636628408664983
Sc 5.752162519366297 7.59743381694627 11.126597936976006
Sc 4.246548817946394 4.694169790094853 6.962236005860554
Sc 5.440538311705622 7.063402613541686 5.223988587267199
Sc 6.56155722319986 2.742654192996036 7.364047121687019
Sc 6.2922520902824255 11.924680898638439 8.397023006894866
Sc 6.206249212792315 9.365785827928196 3.463629337470849
Sc 5.74629626185733 4.706679705658702 9.717932086131146
Sc 11.228142654530462 6.276534075362589 10.430756574167383
Sc 10.957098261853385 8.718396409213243 5.746718937399501
Sc 4.2214488710329645 9.692619048792528 9.524578946370768
Sc 10.25682059654192 8.54820934386929 8.63517913695625
Sc 5.278943631548676 9.883697035859724 6.406880509640342
Sc 5.094575279946436 7.2304389826938396 8.18099381733202
Sc 9.115468745946925 11.360241309300857 9.37345784968246
