37
Energy = -189.67240873 eV
Sc 6.7442439291696505 5.1083789083828535 12.13095125691338
Sc 6.720619962465512 3.2813712751145747 9.617781999406274
Sc 9.020742961957515 5.432286355660658 9.9477829556774
Sc 4.239772021575091 4.178383256390772 10.9862215219275
Sc 9.513905848552184 2.6730746487685737 8.70180817447331
Sc 7.6776580388012965 7.801698012628256 11.266701170496365
Sc 7.05401400238659 2.5680666535326977 6.643854789520087
Sc 4.404312070538433 7.23680293741343 11.575001708571623
Sc 4.297486379130875 3.9516730194004768 7.834064238084063
Sc 5.774851004343203 6.2583795027206115 9.229170004917714
Sc 10.087735653003751 2.8061060535935134 5.856109605672798
Sc 10.578099783160754 7.905479157187931 9.623925138031352
Sc 8.362686623853653 5.239787267302654 6.908912881698785
Sc 11.297675705332463 4.960547062743645 7.81391306467249
Sc 7.930545478933128 8.437111460755608 8.240092200840852
Sc 2.401161077020871 5.784407459435127 9.467601625331687
Sc 5.748285659077774 9.65314308463143 9.917468233357704
Sc 8.033747436571739 4.0761217362940325 4.028540140003072
Sc 10.48662228280797 7.615361767723619 6.662281107819069
Sc 10.758989777785715 5.4832326912093015 4.627721306950594
Sc 2.7243316710979326 6.066335779555629 6.360737507735301
Sc 5.091502782637349 4.40057262654409 4.808924887513404
Sc 10.41782404545386 10.460638724998887 7.465168289107026
Sc 5.573674445754656 7.110347702747667 6.0148851493863305
Sc 3.4774473655572393 8.266099482300433 8.46222022300303
Sc 5.308625573129522 10.096593840211028 6.9403503502846045
Sc 8.36658423570518 7.284168946922725 4.351133882451052
Sc 8.088517905991273 9.8213828429178 5.645449380089684
Sc 10.769053349496865 9.47102161284471 4.332595787451419
Sc 3.5643941073511702 6.783194602123948 3.5574830324962576
Sc 7.6866683224807515 11.77841354077321 7.781633273647021
Sc 2.9545618864736864 9.013136405923731 5.400966735316341
Sc 6.28574535819071 6.274577632777416 2.5999883895205818
Sc 9.45599754461666 12.285351999760913 5.0359719350415615
Sc 5.5667445009444405 9.160666309809715 3.7269943660681957
Sc 6.451591849388234 12.059943656908477 4.747193015784081
Sc 8.288299539426847 10.351561754817011 2.791479222396988
