36
Energy = -183.55411723 eV
Sc 4.0983075434070315 1.6753597693137587 8.614063585464494
Sc 3.20338610450104 4.421312852953938 7.5161138435366786
Sc 4.221781207325367 4.102585728772326 10.222508066155687
Sc 5.874235814344072 3.1567833658530304 6.71315565393934
Sc 6.796344161486568 2.777510128985777 9.634890194289444
Sc 5.061012265228899 5.434569864446846 4.965313720601824
Sc 4.1352605731874545 7.2972191497862084 7.236081635132643
Sc 3.2069492372711887 6.820912694304187 9.998026157857739
Sc 7.663308168154387 3.943824925612141 4.158266215059123
Sc 6.2775323156365435 5.51824144484928 8.464877324877781
Sc 6.2924414744991894 5.532174012315332 11.610520425090423
Sc 8.749365283721438 3.8640001667246198 7.131716256593904
Sc 7.193486436168852 6.676616197946255 2.9173976158683343
Sc 9.333196053824992 5.111517639313606 1.6125706476644324
Sc 4.93880321613811 8.501243824787393 4.13573996364446
Sc 3.7586627194175875 9.88565387512844 8.942676280268346
Sc 8.928407551373546 5.221448004024646 9.931000815400337
Sc 3.2196186945502006 9.997768069102165 6.028933942788024
Sc 10.080632456580945 5.7368414391582805 4.418276688851059
Sc 7.69984924770424 6.572046996129734 5.9683624618110755
Sc 5.767265792061613 11.35645842655172 4.688325616356942
Sc 11.162770291773008 7.35126671228533 10.464913926521048
Sc 9.747362675991582 8.071484986728738 2.4918547689841217
Sc 8.470527901709067 7.864704284821805 11.43772603099938
Sc 5.846319539181958 8.101382856327792 10.014399253538254
Sc 6.74590769654196 9.60764110411449 1.8971148238746103
Sc 10.699898989788156 6.198747875543235 7.604500830007611
Sc 8.570288788370474 8.066702228428223 8.470324350730131
Sc 6.122016355007146 9.378073540656432 7.030021064940473
Sc 10.391905780143682 8.502857678133955 5.722661654444766
Sc 7.851037122304627 9.30746289179762 4.450079444461321
Sc 10.308443220858557 10.267047808542463 11.23733313751056
Sc 7.6748005963089465 10.6637822171898 9.69087535428387
Sc 11.111230900103317 9.63856123729589 8.546527449385811
Sc 8.785517586771743 10.93688567757662 6.836838413483774
Sc 10.151271271738526 12.413596945913609 9.196498292680813
