36
Energy = -185.5042699 eV
Sc 1.8534517078248742 7.462587492748348 6.511120154482452
Sc 3.1489844381907814 7.934418614659248 9.320723388338417
Sc 2.4182983801281477 5.034679763486738 8.193418388860302
Sc 5.103238554794867 10.38167165752358 10.093386420652156
Sc 3.934425076448743 9.67887017084796 6.850908256200143
Sc 2.87983761832413 4.789581355226071 5.259865173717873
Sc 4.979801892885547 7.85146411538777 11.831247767617697
Sc 4.866831449271583 5.327178636762526 9.975463188063715
Sc 4.736563115152528 6.56460912427218 6.868279062891017
Sc 3.978614901022913 7.963950508009625 4.2772239828294065
Sc 4.989934011140582 3.467611277544424 7.071194167245353
Sc 6.369355880589949 8.082959327023175 9.079597121904053
Sc 6.535425804420892 10.773550690054662 7.365651630509805
Sc 7.546137009265384 9.213902406620637 11.826973225360485
Sc 6.09554401824887 10.395070306521959 4.38671412630684
Sc 4.872292464294937 5.3404853379596515 3.280625314095943
Sc 7.324946609142034 8.111901174045935 5.683246914585049
Sc 7.757490650950594 6.32453278682265 11.137573405967341
Sc 6.693729354655499 7.630719762478363 2.72372164670412
Sc 8.666574842373223 10.303591315803882 9.341380869008642
Sc 6.019934194619581 2.594766292979309 4.151539406772425
Sc 7.368753195084381 4.9878379255856675 8.372415491323528
Sc 9.23633903651736 10.516008181307615 6.315211202881486
Sc 9.245226522766083 7.5271946513323345 7.982851846406978
Sc 10.355874265938144 7.9108928835522905 10.698924523074972
Sc 8.973952308800603 9.45086230984674 3.5379367881688952
Sc 7.386974310744541 4.526806976200753 2.101796979599947
Sc 7.168413421931098 5.078746118340225 5.244800090693027
Sc 8.05361950311216 2.5265877460832584 6.624372106002926
Sc 10.159691674307183 4.925483528505376 9.539557491380757
Sc 11.470009773814297 9.586288329555302 8.312661191657966
Sc 9.207082627642665 3.181186262428694 3.9573562295925586
Sc 11.014565240999023 8.094371581240772 5.59603967600864
Sc 12.12822411998436 6.683019924902324 8.272040971145946
Sc 9.426930544421353 6.336747784268493 3.523202926227611
Sc 10.131874748363566 4.995248652176761 6.3809692266857905
