32
Energy = -162.72558105 eV
Sc 2.7303380858642883 4.88869198860092 9.409217923302624
Sc 5.097539935133178 3.6321254467976605 7.804295238285903
Sc 7.859387503542022 2.7197165050429906 7.175749062850396
Sc 3.4074953757869104 5.770657050454068 6.58177469729225
Sc 6.143570348492497 4.970610015859817 5.259947260183403
Sc 8.312888369998031 3.211100151676571 4.267562957752994
Sc 10.1106370186631 2.390728749991826 9.010115487527061
Sc 7.59664874247268 3.9385967016010004 9.910307822845681
Sc 4.0603079025848094 5.981174857742707 3.4773902940486523
Sc 5.374043825039737 6.172320199198304 9.244761374387995
Sc 2.8602008574813267 7.867095246944616 8.512168762980856
Sc 6.9422048622254575 5.3767566559779665 2.4083724155174244
Sc 7.96497186636728 5.886225714818957 7.525775016273871
Sc 10.385092600471216 4.093053563041255 6.478517603019722
Sc 5.657936399749451 7.935495941579239 6.907814058657594
Sc 8.981126219927331 6.049625984550746 4.51581283314345
Sc 3.4240750774839044 8.572967469585683 5.232752887724384
Sc 5.675071337776006 9.184947859086702 9.762662224907713
Sc 10.343998504560505 5.416100565535562 9.271400983248977
Sc 4.047728873358382 10.527746026051245 7.653920497309854
Sc 6.234089619502848 7.887481747156237 3.9208233913116066
Sc 8.137205511500875 7.269617180235499 10.297463440213367
Sc 8.341632505210478 9.361774413120171 7.916181433652761
Sc 10.647938804115062 7.293275089209515 6.882531858518373
Sc 10.783463139603212 8.78929721701459 9.593930393965445
Sc 6.17176065280037 10.61848032192673 5.661474993098345
Sc 8.318174115772978 10.300054662151688 10.868731716905705
Sc 6.778877701584979 11.8676095016334 8.543276487196072
Sc 8.887768645059671 9.153793227579149 4.906762648568257
Sc 11.161375056281457 10.238777217285985 6.7794568621448965
Sc 8.852860845063665 11.986632054246021 6.190987417752546
Sc 9.95073261020182 11.857032946412305 9.007915762273555
