30
Energy = -153.45320141 eV
Sc 9.580682730647348 8.65178254091305 4.180759974018828
Sc 6.929615392827979 10.090928852739154 3.6025307262364503
Sc 9.373562169038713 5.342132874908561 4.497756179114024
Sc 6.792407423344283 6.96503885045978 3.9648609345593266
Sc 9.011826356900626 11.423684350420933 5.611826442413868
Sc 5.930934342527792 11.650666021991569 5.881922581287917
Sc 7.046595830675216 3.738742681047587 5.3013522253356715
Sc 11.537099659930714 10.013252565200217 6.542416101862259
Sc 7.408273492607181 9.04622894289985 6.323256988029472
Sc 10.508861440991986 7.200997350407073 6.591164215015291
Sc 4.637367334323741 8.787555693089118 5.613608461619884
Sc 4.831018160903354 5.826637022644528 6.039153930328079
Sc 9.33251167241231 4.008644385589331 7.534321063473787
Sc 7.64480305033382 6.138554659659131 6.749847377232419
Sc 10.889205966805003 11.285343167728069 9.472519236987422
Sc 6.055375292491024 4.258888291412751 8.306822184436333
Sc 5.197256855821441 10.169500365515704 8.53789440795439
Sc 7.7795048591707 11.849532542092465 8.341204534439406
Sc 3.892896225104956 7.261436546879424 8.515126985346546
Sc 9.329854330654578 9.340541231890633 8.458430804969494
Sc 9.45563444280298 6.61177116418175 9.312539783702787
Sc 6.676399370487926 7.646321971473982 9.231033411934774
Sc 12.012726276965985 8.367533170148544 9.180507346828323
Sc 5.267443001117046 5.632638628345363 10.938632911984659
Sc 7.492407813997308 10.165019886737893 10.855647801031257
Sc 4.798133784422191 8.595547565190955 11.207966926202829
Sc 10.189992567373013 8.828640773664699 11.403065489856637
Sc 10.814040450085106 5.775078229682664 11.548756779980241
Sc 8.06773130538711 4.444565967990344 10.524764169661456
Sc 7.781930048908157 7.148885354154631 11.996401673215463
