39
Energy = -202.1521252 eV
Sc 6.781993659559429 8.602115313547545 10.784787039092462
Sc 6.186755273130961 5.20182149605263 11.133954188799654
Sc 6.755705826996434 6.177111325865367 8.688961179412546
Sc 9.289995176440135 6.838921186599245 10.444740802380878
Sc 8.841818334600903 3.9403408161079594 9.218516573692256
Sc 9.365942336582716 10.26995388251715 10.284112351151258
Sc 11.250395533455551 5.741295935730676 8.24814232409002
Sc 6.048414762211465 3.075626179092965 8.810877937580852
Sc 11.673319162231765 8.569410504468635 9.330214005108878
Sc 6.625200886079384 11.768645155198081 10.156075406737207
Sc 4.050515937122969 7.450163122672659 10.069207187416731
Sc 3.7340755461807964 4.689465705683532 8.758102815249583
Sc 4.084248654661189 10.474882367858754 10.411385811238928
Sc 11.067251986432085 10.846723087362303 7.655827380295949
Sc 5.804333828256653 9.673910882381808 8.060784975911428
Sc 4.181511235846701 2.2612829561603713 6.254259622795969
Sc 4.408953155655765 7.205118662879191 7.025446828783369
Sc 8.840509830075222 5.461523215666781 6.426730050419147
Sc 7.9051084834404275 2.4475393838626203 6.598948509082003
Sc 6.451320299798411 2.475804233726121 4.030550093860351
Sc 5.670596987522924 4.631991552085034 6.080304960689557
Sc 9.295964525380658 3.7683298118827055 4.049782261428802
Sc 2.5303910664315703 4.973743503983402 5.92538657122919
Sc 2.642994597073664 9.569488013833467 8.036437854728385
Sc 11.674079685352627 5.303955475766583 5.135708328855985
Sc 10.804169224477226 3.078160748260934 6.7676517037077835
Sc 11.400008719499676 8.155527838376827 6.19685125123681
Sc 8.920932316660135 8.608225226434818 7.885044098262608
Sc 4.5078812673198625 12.143318414221017 7.806274087961096
Sc 4.030805967066073 3.9570928219893884 3.631286997403431
Sc 6.917891123416949 8.040970844129411 5.511889556187718
Sc 8.216027388684626 11.686028534322118 7.671969580351538
Sc 9.482923471525542 7.197880340359171 3.895915762204836
Sc 4.201785951736697 6.973839011177823 3.975008513284897
Sc 6.87527456690169 5.624500106346297 3.4158605717680883
Sc 9.18595812786022 10.124547395059 5.10179851232574
Sc 6.448661747029087 11.189546796973682 5.3575506364095675
Sc 4.01350425349447 9.759566506485948 5.273409116202571
Sc 6.554403215421523 9.060763784395931 3.036225362915701
