35
Energy = -178.4724679 eV
Sc 11.538547682194677 6.166115224142584 6.344877051530119
Sc 12.336651591631114 7.957128253890938 8.792779212267838
Sc 10.716268762544843 4.152530192948475 4.12993877624475
Sc 10.18006020024935 7.192769395478397 3.848120612075488
Sc 11.031099738766468 9.188786689382217 6.048219933316515
Sc 9.635706495269591 9.09000787676398 8.839836654028051
Sc 9.214244561497043 4.175977140348922 6.810745942750136
Sc 7.893629959552854 9.474769185790496 11.329742740537558
Sc 8.108296248294073 10.277322944031171 6.017555134662485
Sc 10.138398754312224 6.019657935884143 9.266639435868129
Sc 9.41462826381453 10.20503467298287 3.393443065294355
Sc 7.743988817830539 11.373070786459925 8.752229268445545
Sc 7.823756073716596 5.202404915376256 4.275828438100082
Sc 10.730190625171089 8.152728691605937 11.337471939177929
Sc 7.145745967758237 8.328292363734187 3.754378943933072
Sc 8.721839430987812 7.189828704146914 6.4613749920327805
Sc 7.63844526975939 4.028440487403583 9.542044945914885
Sc 8.198007440937229 6.418096316263776 11.974401904775293
Sc 7.068636600634392 7.1485410102476905 9.462860954222604
Sc 4.740481385443697 3.415999253059749 8.835045429346273
Sc 6.243319639189657 5.249231687825906 6.978461643480722
Sc 6.850235128026156 2.216134544105216 7.127043646906019
Sc 5.471699029444368 3.217714520823334 4.771922915250145
Sc 6.6473096117189545 11.326858469961339 3.7672877465681216
Sc 5.479961624215003 9.718731521870005 9.27765091926043
Sc 5.498773262918203 8.370666408193891 6.573207530444469
Sc 4.807656539939546 6.221521486409399 4.341101057098162
Sc 5.421803503460679 7.924508738941844 11.884258942054403
Sc 5.425101242905107 5.104205944853501 11.231396908892776
Sc 3.3619934791866433 4.497798093784598 6.388602689010013
Sc 5.354225727083629 11.464411124481103 6.620367721999149
Sc 4.113570234636845 9.609144286547721 4.414208514827666
Sc 4.0196387375208635 6.648794745129192 8.772526635168507
Sc 2.571200696833785 7.350862510058097 5.969238221744119
Sc 2.9724300570421494 9.854090418011836 7.3549692638554784
