33
Energy = -168.26630016 eV
Sc 12.273274525683112 7.2240889765108545 7.481114059713608
Sc 11.91619687658717 7.721632202638855 10.580019155810524
Sc 12.085270817735838 10.138125644346843 8.724784332565182
Sc 11.571475065866489 6.881544341421093 4.429599726533593
Sc 10.085854413967992 10.191428379721074 11.014756341736051
Sc 10.146093477394599 5.246201487291366 9.376279475351751
Sc 10.946580266856524 4.63944456884633 6.328511085969518
Sc 10.87933221802216 9.619117245540691 5.868105869130526
Sc 9.053544080389395 5.082140443431011 3.862027985985173
Sc 9.656205807789306 8.349194401626164 8.744870361042897
Sc 9.063790181537009 7.259967084095913 11.51416167445996
Sc 9.138308328512728 11.20599617754226 8.11853723250383
Sc 9.177216189959827 7.065412241865986 6.167348368354562
Sc 7.13512972056505 9.817167971914401 9.984057703954845
Sc 7.857018482461851 4.310383056839555 6.5753019101550105
Sc 8.997819532168833 8.168939306136876 3.4163200712374246
Sc 6.0771941581990445 7.6315263133375755 11.621214051445536
Sc 7.3300553118212965 6.115248637124004 9.089677669283382
Sc 6.103231064355087 3.377836431017866 9.03511212923284
Sc 6.559135267476903 6.74462957604781 4.818747163450211
Sc 7.024578287813388 4.78446889937335 11.5811242137697
Sc 7.812738525689314 9.85101272998358 5.748672882253478
Sc 5.851293053756833 3.9443050648457167 4.355270849334953
Sc 5.666275341800915 11.08891614878488 7.633793348825785
Sc 6.0250060461659825 8.206750842465588 7.604686439997182
Sc 5.014664713259199 5.273823176216076 6.962705922237617
Sc 4.108484117052178 9.173568798199884 9.642982725371319
Sc 4.447928105128739 5.884768356608375 9.879944360357158
Sc 4.593907909931527 9.292093095410635 5.116412549504834
Sc 3.5609292723884622 6.453983579808954 4.449272992694387
Sc 2.69153081734218 10.428037230677669 7.110669135052894
Sc 2.9255018936936095 7.541643669112711 7.191981766884933
Sc 1.625319746118475 8.812382911896348 4.846380962136912
