33
Energy = -169.02909905 eV
Sc 7.948129196602888 11.644282213062878 7.965092478618978
Sc 8.7547588474829 9.333545758854385 10.15403152719621
Sc 8.85049287488826 10.43765181110768 5.235272010837789
Sc 5.725858294232738 9.715708461619833 9.219823212831585
Sc 10.5576750753824 10.343760965337431 7.966562679561056
Sc 5.78624671029999 10.54267615137499 5.97106683737296
Sc 7.837651472235768 8.762948513182764 7.357151867251321
Sc 3.434157143604647 9.30267894523337 4.189937426994479
Sc 3.29682766282998 8.993297041690084 7.370323001470047
Sc 6.385295531216843 9.17173363941441 3.1409696845933217
Sc 6.439513137695944 7.056642360431983 10.919155421694557
Sc 10.689545632992742 7.854848756103587 6.393040847716917
Sc 3.499771085678152 8.076979477792893 10.419425402156088
Sc 8.749156865451946 6.404906283963094 8.983842679075087
Sc 5.443400097396751 7.538924148039033 5.402499981258018
Sc 11.327727212127991 7.702258291925312 9.339534274941208
Sc 8.374793181032937 7.408598103141177 4.744355906936225
Sc 3.893971849629733 5.105129301779713 10.45235608840798
Sc 2.0532293044634304 6.348830350009711 8.452522270637383
Sc 5.230357940563681 6.728528855553187 8.247617937644446
Sc 10.845419603514216 5.076818491666376 7.180325402569184
Sc 4.290584612455617 6.877239908323837 2.753056823839339
Sc 7.806023942381078 5.001513009867193 6.475602395171044
Sc 2.7506478110659667 6.348351370611289 5.4765984854988385
Sc 10.21152820177663 5.180350242896488 4.128008504377011
Sc 9.196236697171525 3.11941581683164 8.631867479996421
Sc 6.455728229121282 4.098571622169778 9.288681053465195
Sc 7.184910167212135 5.942319922773032 2.6840494127856114
Sc 3.939536906801783 4.073867506478595 7.444326290722049
Sc 5.234576512402133 4.512999622932117 4.696897170581033
Sc 9.854305412773645 2.520416742082684 5.864075010459073
Sc 7.876190648358772 3.2985768108357623 3.901616080742387
Sc 6.736136302316858 2.2897534077598616 6.69557624858086
