34
Energy = -174.84357717 eV
Sc 4.2321623395510795 2.5612020982805723 7.151124171828235
Sc 7.001425769649676 2.2063780896910195 6.392097661564807
Sc 6.406096987831685 3.560960170761795 9.218028809816598
Sc 5.258392030193776 3.44541022125105 4.17747910304378
Sc 3.776722033335128 5.221680091690297 8.835409614501641
Sc 2.9205973283121778 4.728458462037146 5.74328912715555
Sc 2.8772708620800413 7.626231907166963 6.840044660435698
Sc 5.974113889007273 6.343897794812499 11.290421181933802
Sc 5.833146586671451 4.979042974169965 6.5303909232284525
Sc 9.396139988958463 3.4795334527850432 7.836935801396998
Sc 8.694221583740378 5.123842847231228 10.21626447103093
Sc 7.015895874477562 6.177223326652654 3.9263836561065464
Sc 3.9446891514648157 8.086363633921998 9.624923828814644
Sc 6.604439595943035 6.828254459631011 8.774423227296689
Sc 8.795635183206551 3.8454650976997757 4.683873641294598
Sc 4.048591005923123 6.842501281582519 3.9511997686314744
Sc 5.735663375705935 8.236106586544736 6.129869942768706
Sc 3.6689533343017016 9.868754736820957 4.812230064945785
Sc 8.863123198542926 6.201897256861977 6.705164037933393
Sc 6.094028439349185 9.017742462883898 3.164475012726431
Sc 8.99800887182091 8.012272913859697 10.719970428808992
Sc 6.365668410750142 9.660167570416107 10.327990596722255
Sc 11.022431033605212 6.304508533485902 8.787394412474528
Sc 11.468792384676297 4.930323425028418 6.037306394783559
Sc 4.487244575577732 10.412033133135902 7.777599670761015
Sc 10.074270949291419 6.498894051626738 3.7950984369153216
Sc 8.312430705118288 9.171415950131632 7.946032795195302
Sc 6.525402866918488 11.114084219988413 5.3845990640689765
Sc 9.189391457697218 11.092498696566285 10.031427810847726
Sc 11.18173558821976 9.381008043380872 8.8242087270893
Sc 11.259673485080194 8.11291338017451 6.1344963887311135
Sc 7.136683075432081 11.953768586898066 8.179866842504483
Sc 8.6653909853214 9.019621677317485 4.868685436683163
Sc 9.840267403656908 11.324253256496638 6.8411946178386165
