36
Energy = -186.86914649 eV
Sc 3.653803015017061 9.801393492392714 7.255291685379179
Sc 11.385089093940284 5.677901095508109 4.815327799950559
Sc 6.965404455104765 11.003456429215456 11.421485373610428
Sc 5.243088430536582 11.668593585489017 9.150662198123104
Sc 7.163958099648461 9.399679367898749 8.923155576161262
Sc 11.329657860763529 10.788516140817604 8.320552287847583
Sc 7.711821794908148 4.77028108407003 11.817618344003684
Sc 11.837926907868864 8.489006555800687 6.191946436192808
Sc 2.544931824406134 7.1313882961666195 8.504089198756255
Sc 6.496571416617763 7.476878078602259 3.0581014854022155
Sc 9.272914437202575 3.6736250909244443 9.214759016043605
Sc 8.846262042662039 6.085139039936154 6.331986741169407
Sc 10.06469879770862 6.476138566471359 10.70496423714304
Sc 9.755062954208853 9.703587884444051 10.714367690194413
Sc 9.33426655202502 10.597500136282644 6.055601192457363
Sc 6.159736725898014 3.310490585398312 9.796445720393079
Sc 10.002301275800157 3.4117364081402317 6.031967024967909
Sc 8.395957892349799 11.990583324326593 8.794295347878196
Sc 7.542449024497944 6.000136636297783 9.10987081884937
Sc 7.258493787733662 7.85314269192285 11.558786348359336
Sc 3.4918587523002933 7.0908784237527795 5.465219100007919
Sc 7.434488757244744 10.384751205337258 3.4897406825374713
Sc 6.281701084264733 11.425206797556715 6.316909342531493
Sc 4.8314895258298325 5.9281644489842975 10.507554050845139
Sc 9.787523160158704 8.225357496232098 8.137034218812703
Sc 7.1108585105843884 3.5192910758536065 7.019603388449977
Sc 5.274527809145824 7.365444881134505 7.738223717305423
Sc 4.4973278663511325 9.00617525225809 10.364676958281965
Sc 5.940777430423964 5.427968824798355 5.112273149544147
Sc 9.509166523988608 8.052010399701148 3.9744029671568217
Sc 8.62752548415578 5.0402046645242695 3.6308038674955103
Sc 7.0897034517511965 8.571548580151907 5.758286598700091
Sc 12.44473699683163 8.229437242135045 9.284138741029796
Sc 4.6768827293287805 9.610407343462363 4.405620934072161
Sc 11.409382965144317 5.578288989278637 7.878850356364078
Sc 4.197451553665601 4.644175524639725 7.573962011718684
