39
Energy = -201.59278955 eV
Sc 5.315823385498729 9.214786122596264 5.248471502327835
Sc 7.55766366347476 9.317879172515026 7.073059134534066
Sc 5.853740163253945 9.542625865840483 2.3741401730801046
Sc 4.886022427262339 10.394075705515204 8.151870316692488
Sc 9.90204993587808 10.475128708370514 5.483707349332821
Sc 8.16439933547423 8.215073378244181 4.1745687914858
Sc 3.7699904656748666 7.340915403753402 3.3950114753358474
Sc 2.6278588116416484 8.77575537686908 9.552212381982983
Sc 7.634659746950044 8.68355759049896 9.905492400702832
Sc 5.097584897657661 7.4361616757781155 8.32801963219343
Sc 6.465981958545764 6.453793464346543 2.2297740715908327
Sc 8.579417439330939 6.354450326040993 7.080338902802522
Sc 6.991245351302576 6.734784309822209 12.11671294904247
Sc 11.02404635608385 7.501444444942519 5.3895499880814155
Sc 5.045829803137098 9.190720997465814 11.129124481295081
Sc 11.554034062952477 5.884604580146928 7.934102476944029
Sc 10.366030117839255 8.704515184736813 8.16593406153858
Sc 2.8281517917428145 8.345037289914403 6.497129064856584
Sc 9.596301995114418 6.4672541345098935 10.238264518559308
Sc 8.556445713377556 3.919741416299577 11.646236133765415
Sc 6.901650883045039 11.65086808490449 5.276152402265945
Sc 10.827376452101978 9.19277071815163 2.767611437383569
Sc 9.462329255486306 3.703372689629541 8.692425330843548
Sc 6.715794224360493 5.130181123704288 9.517319250561084
Sc 4.0532420966645155 6.349456156854584 11.126431696647035
Sc 10.365738911427714 4.395040167642163 5.571570924916827
Sc 5.792516400034024 6.300427596976033 5.464548081693268
Sc 5.724425898376442 3.86732265965414 12.232615632261181
Sc 8.471135172113659 10.981950115787464 2.8432734489649842
Sc 2.7026872342370685 5.574079709906449 5.5380929810273765
Sc 2.3798641493336734 5.9199667672078204 8.538159997498479
Sc 9.980112015915049 6.278092967285347 2.6934290911543837
Sc 6.704362140678438 2.226367039526159 9.69290098942271
Sc 4.546942302195348 4.19844344282613 7.2896347092238605
Sc 4.903943237350557 4.108674952720132 4.009085029517955
Sc 7.317440153935588 3.4963424479557017 6.614158662097492
Sc 8.474076552181952 8.483213860299132 1.073187321954045
Sc 3.883089996191607 3.551791846780847 10.040087905216318
Sc 7.936515050963004 4.6105977532253295 3.962336786367534
