39
Energy = -199.11657952 eV
Sc 7.58226123336218 4.336269879716532 11.530369079658046
Sc 5.170843293349778 4.326889437884777 9.37122492264602
Sc 3.2270136324447254 5.082640866663942 6.70481242588285
Sc 7.759501789110045 6.261843138115444 13.933810063240305
Sc 5.55364667973951 6.4656670306382615 11.893000231938444
Sc 8.14477094290772 3.352178381861988 8.658965425763089
Sc 3.7284952967817104 6.974899025272603 9.182632962232862
Sc 6.2406261368803735 4.353495426674364 6.473386778394636
Sc 10.200655505756641 5.064859915756918 10.17906815806944
Sc 9.290624651886674 3.3447359495702123 5.866503678008465
Sc 10.996230343441773 2.5966505228450543 8.409163290189555
Sc 1.7205798052067844 6.262290261150582 4.213576036829421
Sc 8.454327107692945 7.402564457887911 11.352397213459188
Sc 7.2909426627979 6.276416958015256 8.908567506041779
Sc 5.291106382665466 7.364151647911675 6.583566318641447
Sc 4.739360183867709 5.880841736123011 3.9866718112954955
Sc 2.004587500601355 7.718544064595628 6.7009933732383224
Sc 6.760265789902294 9.10034033430498 12.991387671102451
Sc 5.911216558799762 8.888828410547882 10.05948372384122
Sc 7.769890780824081 5.1141657719313764 3.758345753776837
Sc 6.95893573852461 6.603700070566173 1.4003331664978356
Sc 8.613847419848524 6.6757133463316505 6.107199979830515
Sc 11.08892331786858 5.345835503112679 7.324477977075024
Sc 9.577751870285333 4.849458406598052 1.5115215432182003
Sc 4.075306476083059 9.775840418877197 7.719309096233815
Sc 3.635137644918118 8.679035158281673 4.38648322385922
Sc 10.164192886838126 7.95290174996032 8.6851671088927
Sc 6.750845047606485 8.1680074055619 4.014720814738507
Sc 8.584766202598296 10.348995617040867 10.286264437249585
Sc 7.608222477711478 9.399042043992335 7.577006306076575
Sc 9.524587786002684 7.521794104065956 2.8924992054196004
Sc 10.921771294717844 5.2875251081396755 4.248317337474148
Sc 6.322458740498886 11.811378784509863 8.90494219818108
Sc 5.88690441193333 10.693005707787169 5.596016828162817
Sc 11.105903045831958 8.162273781063217 5.75933599500998
Sc 8.927309337563571 10.073237820003174 4.9033943938066935
Sc 10.300691307788306 10.863844276580988 7.623430227670772
Sc 9.049462066546273 13.202903449071618 9.30778991240418
Sc 8.127856572794897 12.530040446842158 6.644901710069207
