31
Energy = -157.33005666 eV
Sc 10.345480583585488 3.1736465322007024 8.326349277944983
Sc 9.141096104908092 5.044997881482218 10.565059465106723
Sc 12.260304314540429 5.31894695037188 9.443192863560128
Sc 5.67197846054689 5.5609311729318875 10.662116601570274
Sc 9.007734010566397 4.2154321432142945 5.636045902489085
Sc 7.767384010030135 7.623052833473748 11.042833021977929
Sc 4.985121476509512 8.43129604183473 10.090633158768014
Sc 2.4705817322166146 6.6815677870771415 9.71014488178906
Sc 7.324878167727865 4.0561118717473885 8.308867879669675
Sc 12.130631576774102 4.8398536067653914 6.365606277827807
Sc 9.924360450499648 6.024188007574279 7.835468227909147
Sc 12.37041308340111 7.791657532113003 7.577964723698209
Sc 4.585367082769798 6.272386732968156 7.995449305955937
Sc 10.637904753049511 8.024453054137535 10.152607582529312
Sc 7.24430124199831 7.130383226019554 8.22701529287769
Sc 5.620806399005576 4.560398922922299 5.879849563945067
Sc 9.492930795597413 9.103789246390344 7.460669576156952
Sc 3.1436558505173107 9.012114876856346 7.628255637662456
Sc 8.463793659383306 10.369197833407826 9.98960346832336
Sc 5.142134074785084 8.195925543249514 5.767537260443892
Sc 10.459642574449326 7.175478406890021 5.1023593351978915
Sc 2.626336027335586 6.2981592938677915 5.971204318760384
Sc 11.252026782340577 10.843282043022912 8.923856377639733
Sc 7.51911046609404 6.73532932842162 5.140113597042644
Sc 6.32624594950486 10.045453129137966 7.825579429899533
Sc 7.865980755090364 9.796763639526622 5.178995799563638
Sc 4.632714047958205 6.277542464303184 3.5763248313529274
Sc 2.9562042865158307 8.838396862960217 4.074758182794002
Sc 8.61577295213269 11.971119623930141 7.405773419487337
Sc 5.783782536980145 9.072567544980734 3.023591622074172
Sc 5.0764149376894405 11.073041604924116 5.204402335476595
