34
Energy = -175.08914192 eV
Sc 10.4254303830013 12.161980388951974 8.193315468582345
Sc 8.726422305559577 12.295653589195332 11.27435747639796
Sc 12.386211673054925 9.803001394139965 8.85528805093954
Sc 7.28861348753897 12.42218533781752 8.53086509227643
Sc 8.558681483147282 11.559820368528825 5.804620656102114
Sc 11.29315869531911 10.710948588511252 11.848653153691277
Sc 9.534993937405371 10.014290335872301 9.797353332598364
Sc 11.691521655822626 10.56868334830567 5.438450884696425
Sc 6.246862400878688 10.642150692425343 10.69456956614163
Sc 11.845785569841702 6.7651114457756725 8.116581313980856
Sc 6.064692797023436 9.670020007935346 5.184484231458779
Sc 11.261656677862147 7.722557928143508 11.027168688575202
Sc 9.089513238725342 9.149435352549089 4.057681285395838
Sc 4.474704157510528 10.352941085045368 8.02199213046052
Sc 10.07107888633129 9.23527790020488 7.059618450522508
Sc 7.2600834285491365 9.553046577151228 8.014288276180016
Sc 8.470484670724929 8.860763082177366 12.087334882730392
Sc 11.097874788891588 7.268065910552589 5.105498266750451
Sc 5.273906296357805 7.708439785289229 7.204255207823754
Sc 9.786815764312347 4.798268205414935 6.838162460155023
Sc 9.028880396304245 7.160469847854183 9.215037794030618
Sc 3.175094746929075 7.324901095496771 9.041015030232282
Sc 6.030769957474703 7.624245374462637 10.334429782951128
Sc 8.05665625612261 7.195547019268334 6.091746992415723
Sc 2.901557131719681 7.94554555540172 6.010219585235114
Sc 8.661690181334329 5.9050999193764895 3.7083963741390167
Sc 5.583215696644114 6.517391340745321 4.517439129526979
Sc 6.978663303087469 4.198625674413291 5.774005242396298
Sc 7.825249309417123 5.276106483647077 11.26906448620025
Sc 10.4310430679731 4.595137441948239 9.809750106651778
Sc 4.084635766693662 5.124766734865237 6.9982121249518885
Sc 6.91890295179691 5.478437027998131 8.3892646624595
Sc 4.833670461790088 4.731592592765696 10.096954972877935
Sc 7.8783058326075155 3.0109552101288832 8.938309689739802
