33
Energy = -169.1708875 eV
Sc 9.992664126464588 8.38731563365477 5.217983674548648
Sc 8.266347762906088 6.903270291318813 3.0632330442315836
Sc 7.088535861123747 9.53476405798359 4.441290723469779
Sc 10.77705637725825 5.502769414164042 4.561306372260094
Sc 5.304763385526544 7.861094989990319 2.5049598507402417
Sc 6.230381214735365 11.42223768757136 6.767813657485269
Sc 11.875628364406507 6.859264350465434 6.9399853221072085
Sc 9.229230283385172 11.379837835503158 5.836841632535262
Sc 5.815050935341018 4.961275652677009 2.643313865478039
Sc 8.16655387060463 4.135127593737572 4.4973571095222
Sc 10.949446495188372 9.745449708980617 7.947327503049195
Sc 4.030785624905931 9.101974200086106 4.930325642700218
Sc 8.073967672643626 9.167551873909698 7.5594052377150485
Sc 6.1626718197287556 6.731872697700354 5.219272097743521
Sc 8.696849245072192 12.005964139976207 8.65242378545539
Sc 10.500355875156968 4.125086433036249 7.332031734079241
Sc 9.10277897078554 9.655784773072975 10.493707578434346
Sc 6.251764469796985 10.423480649360268 9.779579765115164
Sc 5.15044521612297 8.647437172249804 7.629848048214024
Sc 8.59443031749225 6.091504507414245 6.880476857609382
Sc 10.14927714066899 6.9768058983755115 9.325362038070477
Sc 3.447810013401744 5.98271929580522 4.3149618477838025
Sc 5.310133540319668 3.629841055111937 5.3581642849019575
Sc 5.426415083115775 5.413070555767128 8.022874789688311
Sc 7.031550922729727 7.357398746841867 9.944248769166714
Sc 2.8582204799687854 6.8857023900557754 7.155193404028553
Sc 7.623895081717208 2.9793402529608395 7.136200333782773
Sc 3.9706796538057096 7.489948269027516 10.148011936299932
Sc 8.07531038179141 4.376938889095631 9.565498965564103
Sc 2.7632246361554005 3.9215735940614547 6.744265006592104
Sc 5.3413305500887605 4.912625251294015 11.030738266652845
Sc 2.7546740289823632 4.737020035620096 9.537548444131287
Sc 4.974893576685084 2.7131184793560266 8.772739215222725
