37
Energy = -189.55643393 eV
Sc 8.027519045075941 3.97787832875722 4.520282730043728
Sc 8.444443847076574 1.4576279814853133 6.357452024152429
Sc 7.443351385524754 6.6500111638346 2.6718043647291596
Sc 10.16203012951704 4.105605201924747 6.691901646438963
Sc 6.671095799960689 9.154269664392809 1.0522665834036549
Sc 4.722646865081006 7.731554274342874 2.722018358117225
Sc 9.540211632041572 6.717592605815422 5.072462626821769
Sc 8.662457293137559 9.361623317417276 3.338361936756388
Sc 5.740413335422372 10.356837688640898 3.717641778860334
Sc 8.209529293034265 2.936031272457688 8.876092681572526
Sc 11.758055149528193 7.092270520429029 7.26483441361588
Sc 10.845237025825572 9.549421120822636 5.7391868987498595
Sc 6.83833283811025 8.086319412518755 5.315728927733761
Sc 5.329766650225765 5.450813120140529 4.71610143127502
Sc 13.051402629991834 9.839348639725978 7.822855528233148
Sc 9.000353111710048 8.293291830142547 7.738480380391845
Sc 10.382186979810042 11.115729793911843 8.368963330730478
Sc 5.811038231723326 2.80679688370221 6.383418117310373
Sc 7.359926087888676 5.298375470340118 7.210082240099164
Sc 3.901700101224014 8.078281157228657 5.621309841415215
Sc 11.307453202192686 8.674084474689737 9.915145364341736
Sc 6.312972248279171 0.7220424310867587 8.403169408722434
Sc 5.18028155334002 10.469477937885388 6.911032217252394
Sc 9.876273353939792 5.683239717811513 9.283718993170048
Sc 8.075028617313343 10.905636038389755 5.947654545980732
Sc 3.965816907577694 5.632955816605583 7.456759444878409
Sc 9.183268851682627 10.704356742365057 11.209001657201828
Sc 5.96965950371074 7.782304267576368 8.354611161848782
Sc 5.225173242686404 3.620894534922841 9.215986839010025
Sc 8.590042626914043 7.937003191992361 10.721551010947902
Sc 6.988018719547662 5.550584899802352 10.448419923387057
Sc 3.218727784685444 8.786629000140081 8.726848762772512
Sc 4.428832235537973 11.250943861962428 9.90546984566513
Sc 4.063221143843858 6.449994954047341 10.46968973697711
Sc 7.4049565932065 10.681125028605692 8.918111741725742
Sc 5.8678388449379195 9.023611574481475 11.101154282484444
Sc 2.956621954864934 9.245990786357508 11.631951527739531
