30
Energy = -153.2522084 eV
Sc 11.235202113992035 5.712713657658573 5.52122214581173
Sc 9.115124813575827 7.375973999739347 3.831247960935129
Sc 6.638077701139152 9.21835001206909 2.761550402554406
Sc 10.636668289949537 8.787835518197111 6.294872763138006
Sc 8.489053130064608 4.40139903961078 4.591892151815615
Sc 8.914611222700183 10.415117048358917 4.303528913794764
Sc 11.288806055713968 6.449711109317075 8.433179712583797
Sc 6.073968627273871 6.322845293633965 3.664803659958496
Sc 5.408094090695391 3.3707154892311295 4.259277832265524
Sc 9.591968570616553 3.8322014144467893 7.564960330068274
Sc 6.047667834653767 11.286042560595456 4.835471495343346
Sc 8.851210312151624 6.576981975181588 6.933032588823336
Sc 4.164227340111102 8.716088399838856 4.571269505439177
Sc 7.198877612997781 2.2569246326385874 6.392667424336662
Sc 6.875023400489354 8.523646133194406 5.731011515316046
Sc 6.546583522938645 3.5548468243478126 9.09036237343809
Sc 8.083365535609483 10.869580432770535 7.216163354251527
Sc 3.4986566791138425 5.54603776192323 5.38385866472298
Sc 6.179514784996676 5.2068777090261475 6.580357014208829
Sc 4.283405461113744 2.89274667676648 6.985841678050428
Sc 9.216456134095667 8.747541586463168 9.209399462130987
Sc 6.352919448733446 7.585776021178836 8.82414921373681
Sc 8.58577725267309 5.749204553989946 9.978173264797025
Sc 4.937080387633318 10.331474168997978 7.495425232102947
Sc 3.585235475976357 7.786257640969275 7.3329750431196
Sc 5.6345549951919764 5.7500174846341645 11.167450807730726
Sc 3.882569415149667 5.307700764582927 8.782834347283066
Sc 6.61441993923844 10.412564306461645 9.971500837423779
Sc 7.173804115256107 8.141638403047809 11.66433506505803
Sc 4.204891139569457 8.444666415669268 10.411017704034126
