32
Energy = -163.870693 eV
Sc 5.87333461318848 5.803595975337997 10.65607701964374
Sc 3.369235049311378 9.41971376127006 6.5784437890996825
Sc 4.225016564805596 10.659873210122925 9.117953353119448
Sc 3.965552425570366 7.508131384269993 9.102301012661668
Sc 8.348202084830353 9.104101767483419 12.394485353537096
Sc 5.3699844889516966 8.849084977074302 11.460326697781614
Sc 8.693821192126078 5.881941502983936 11.671629705248971
Sc 5.694037937727282 8.645461984883017 4.551825048871695
Sc 6.075572794115886 8.937538252511091 7.587023887420767
Sc 5.636801298796021 11.464017635437202 6.3876167607291725
Sc 4.473208522618835 6.504379662587561 6.265283590717591
Sc 7.698755046244921 3.695145771986956 9.634335204746916
Sc 4.910599298493747 4.1494285372981885 8.19441795911755
Sc 7.268530079503203 5.993295602488291 7.760912637756648
Sc 7.103423536415341 10.977275362757249 10.073993723053665
Sc 4.714553783739678 3.7329685628817124 5.148873332940558
Sc 8.767459884986092 11.004426989646852 7.312260755187746
Sc 8.489482220268972 8.191107262083685 5.960994291276659
Sc 7.376709488404851 3.362615954155494 6.5376593583316325
Sc 7.814324125444203 8.077372245233907 9.878785975319545
Sc 10.13271639282772 8.477138977494368 8.419345025259991
Sc 10.861022654225726 7.809443053590513 11.224372056928726
Sc 12.048162914588847 10.316904726092133 7.598991385136691
Sc 7.819624724524654 10.635829922337757 4.254663434215379
Sc 10.143885450385383 10.69197044937813 10.31517062238342
Sc 6.998776691077071 5.7450139521106385 4.659391096783237
Sc 10.58674888466547 10.19685285419294 4.890594252193651
Sc 9.701422571079604 5.380523711594744 5.784764210685288
Sc 10.23012807020025 5.620728143385381 8.966892736032827
Sc 12.860246640736465 7.635700265936664 8.84261424346755
Sc 9.285648761822218 7.858136515872685 3.424934595418183
Sc 11.667186511010932 7.712580242893232 6.043126957770602
