32
Energy = -163.86683987 eV
Sc 3.9461634826011927 5.549265210582679 10.675628464777315
Sc 6.975861692562453 2.5544494015037316 7.285865277801613
Sc 3.2253671284543355 8.541900070732416 10.316709686200463
Sc 3.29772902740705 6.813154849099021 8.0111018309392
Sc 5.791314325619026 7.840307373753985 11.667872595646445
Sc 4.535313279889747 4.204670939861027 7.7131002791407965
Sc 3.019635908528913 9.650998995359858 7.348220887316109
Sc 6.421471092481737 3.927707360300457 10.068374787386437
Sc 6.234345648436347 6.7644779564171555 8.967528584417515
Sc 4.043514949840391 9.23693099619062 4.430702107281177
Sc 7.073774112704641 5.4468276750847835 6.354871228876443
Sc 4.231989256207876 6.0979670043404175 5.256027186951161
Sc 5.520069970187992 9.918851367906237 9.154016821932684
Sc 5.007353599842922 11.52626221498369 6.349476503842231
Sc 8.229416290187716 6.125463610671459 11.15888245358987
Sc 5.842905526226741 8.517066999228703 6.44271272777905
Sc 9.028994648164876 4.590942843559686 8.624703348762525
Sc 8.355110872265234 8.923384731619619 9.922936471120202
Sc 9.282568494653619 3.3304870314767 5.790099599988994
Sc 6.557918308452941 7.222487782927722 3.771571805515103
Sc 8.053404754066682 10.535380918072015 7.19921365924391
Sc 6.50798629287513 3.778724301549859 4.388155356013389
Sc 8.975461769742349 7.610442176546412 7.085561845247661
Sc 6.919423637464358 10.626360431185137 4.31360178662493
Sc 9.01499479939778 8.746699441545198 4.2623259706326815
Sc 10.778879580049402 7.067258452120129 9.441958921207096
Sc 9.418269727473932 5.874691738466623 4.3137984374838485
Sc 11.296800898074851 5.633799060062101 6.769081142495085
Sc 10.970575779847227 9.790333021024015 8.006114697306401
Sc 10.214652498539017 11.115486434624183 5.325124567159176
Sc 11.65010775766516 8.321271195721325 5.389828236829836
Sc 13.250112000271391 7.804576330491953 7.8273663254461
