32
Energy = -163.54868968 eV
Sc 6.645745759285614 8.07790657193028 1.3137885617492846
Sc 6.290456141120804 10.534689314067467 3.064696158357139
Sc 3.8551746641785245 8.742839377724954 2.3821104387071723
Sc 8.926281284354845 8.544968190948364 3.612082281266538
Sc 4.997980277559299 5.5402733238673365 2.6046480283983984
Sc 8.08601991840886 5.9121258667990535 2.6644417459983445
Sc 7.331914908801144 9.927990268893595 5.998605594795116
Sc 4.210491899600469 10.048428730985691 5.251921922973973
Sc 5.958778457120225 7.755553166957235 4.187013441393416
Sc 10.312802963052226 5.594333811772664 4.813459813117188
Sc 3.0120346912583273 7.161566012161542 4.882015700019566
Sc 10.130766575658921 8.531396525165396 6.645069275427196
Sc 7.943127540060921 6.341891650450104 5.929849458074457
Sc 4.85211498283595 4.8830809821650885 5.704629159276877
Sc 7.461839432692533 3.736865430039155 4.381634936552291
Sc 4.974864593475833 7.771637998919143 7.165044763725519
Sc 5.783657680577794 10.347972403336405 8.604107405020681
Sc 8.874827515950653 10.594671514051058 8.644828386650586
Sc 6.228141176362686 2.2571076821158553 6.704903460126515
Sc 6.322695626481191 4.954516627390875 8.261963553454983
Sc 3.3105680008544636 5.791344708942679 8.488648013875038
Sc 10.404742229624032 5.9976803687871 7.939891676595606
Sc 8.898643931084335 3.591960519981136 7.178903023032496
Sc 4.160235064097042 2.985370581726974 8.756771051017463
Sc 7.742507134553166 7.750408513032662 8.759142276636094
Sc 5.091283692369462 7.783623621833956 10.314430042459913
Sc 10.102780997650532 8.193523004663078 10.22026663760291
Sc 7.524560763829748 9.79274105283757 11.124784748045608
Sc 6.9704362643001065 2.38590854957405 9.640455174254338
Sc 5.474407478791398 4.773441041828523 10.985989577248807
Sc 8.698440499119855 4.9106821899206015 10.11048928861277
Sc 7.600208333691231 7.008318298821068 11.85883426783179
