39
Energy = -203.1238358 eV
Sc 7.878904082705044 10.952789793429998 4.325639964802146
Sc 12.654439323865688 9.271799783640581 6.031916828238938
Sc 10.565257683893172 9.518297844534143 3.961657997179734
Sc 9.950269321621933 11.070831069427449 6.656685931510875
Sc 11.575984076518598 6.613275369122922 4.6623149173931395
Sc 6.139347301704185 8.933883929163313 2.7994524941895444
Sc 7.0360422669677725 12.359174583610464 6.93162937569843
Sc 4.952888373988656 10.499592516622478 5.303889926853383
Sc 12.731870343502116 6.832560387114597 7.6004013440476665
Sc 11.228752572432665 9.31101935249085 9.060342571937214
Sc 7.39284216434824 9.510478528325164 6.817960203165603
Sc 10.100739966744047 7.932524019783265 6.6593203093874855
Sc 8.319171523890486 7.620622196625867 4.265912709712555
Sc 8.837419865218921 4.4735741865115175 4.3454149863270235
Sc 3.363358630999144 8.150404934351696 3.684541346237857
Sc 8.25903596470175 10.7221762442688 9.427773091476821
Sc 10.428894384085723 4.827997168847821 7.092398069094953
Sc 5.882973629720161 5.786297367508166 3.2557931948022136
Sc 5.065567496767106 10.4079454399737 8.613173947598236
Sc 9.617609918627547 8.873272104671994 11.684712247296032
Sc 7.49065764784752 5.599563251411217 6.620780034072206
Sc 5.45414986512021 7.51052608833277 5.441700194156562
Sc 8.210647042749759 2.714579141041971 6.774648220259151
Sc 10.889165546453324 6.290600926508125 10.077109707913987
Sc 6.415759486611923 8.6789025588761 11.171628535769617
Sc 5.713207100916066 7.529082719268359 8.48172399147454
Sc 8.544978306709833 7.662702501022915 9.248459273200515
Sc 3.0724710585407387 8.549360787200953 6.946018391572465
Sc 8.270604606815716 4.439960988885437 9.383388007777823
Sc 5.6976619313818055 3.375191847690451 5.292041957454515
Sc 8.377554422774882 6.271963942572747 11.934051575018854
Sc 4.601780718054151 5.179467909276415 7.566128556763
Sc 3.2639548050882032 5.286985924509326 4.871922561336389
Sc 5.631075182680453 2.7436291667748662 8.656292577585003
Sc 5.66649483660243 5.490177478543905 10.665518760034463
Sc 3.253811055647102 7.42497873178553 9.925114939454707
Sc 2.9104498487488164 2.973462978002284 7.010150260784859
Sc 1.745969821930087 5.836437966097467 7.587823570029795
Sc 3.0102309678661383 4.1952170558904065 9.81486779035261
