35
Energy = -182.34085554 eV
Sc 10.90357229070353 8.034435680521293 4.614827716122695
Sc 11.961628262232479 9.139755420375696 7.527296910459883
Sc 11.546621944325793 6.025187482076893 6.489937191202619
Sc 8.948893400391288 10.410310577011343 5.172892741608023
Sc 8.646581178538154 6.076461906763789 5.524489907254122
Sc 10.6614369331676 6.127417375731869 9.454389867468095
Sc 9.981172625942124 9.11661423773776 10.155376676468682
Sc 9.666017028108703 3.7635251148944255 7.459153637560161
Sc 8.326416275513898 8.067786996483045 3.0953141685159293
Sc 8.620459552174365 3.8457464872897758 10.4782498512683
Sc 9.493052680007015 8.130906241609283 7.305746950860474
Sc 9.292775269476783 11.015274059994121 8.165693981452938
Sc 8.206390565669443 6.8821354642385355 11.304972538643483
Sc 10.18654773608054 5.020919519867142 3.6403236604848725
Sc 7.817573027490604 5.7875566142723756 8.586355470274897
Sc 7.670900368812784 3.260906451440957 5.132068060752744
Sc 7.217041485048629 8.818620132742668 8.847202919853212
Sc 5.874752863457578 5.525993642895438 6.220593589983379
Sc 6.707773330932948 8.450060136449421 5.677107120979342
Sc 6.560213432375765 3.1387238605512535 8.065603902389068
Sc 6.0735020867694995 10.811306612987792 3.9861301127773987
Sc 7.222393238925575 10.857215449071926 10.625530548896306
Sc 5.686736424791912 5.136316569546004 10.57535871148096
Sc 6.514738581304903 5.305768397018164 3.3165233196721924
Sc 5.41406566919761 8.194046517258052 11.18885400668638
Sc 4.9294825560303215 7.220693984181107 8.270667491178518
Sc 4.461685197955789 3.3889101383579177 5.243214748379648
Sc 6.402854177869962 11.142534856869444 7.027346656885199
Sc 5.350137412223556 8.160066670816514 3.006510306160849
Sc 3.75380239974978 4.439003697023626 8.248032780357324
Sc 2.7822470919357793 7.02963039761895 9.993126153765242
Sc 3.6745440689747944 6.3672608641334 4.515481914441402
Sc 4.310452700744388 9.939378054189367 9.15198790322029
Sc 3.9485231348829255 9.216956094298155 5.877135080640387
Sc 2.2957848360293207 6.636819850355041 7.011788993952066
