32
Energy = -162.77411788 eV
Sc 9.870516520878507 4.828424804713811 10.482218604789425
Sc 10.910108403041368 7.812971879934483 11.13056126029704
Sc 8.534494111688545 6.919406295551345 12.523741885300385
Sc 11.470161499650676 6.630681473859028 8.511137554680337
Sc 6.741948042758439 4.958974381733093 11.309519439363623
Sc 7.052446066955286 4.402154222083982 8.476273709486728
Sc 9.256912421142975 5.527611693052901 6.866116538362581
Sc 5.828626288587275 7.837055963111213 11.252407961311423
Sc 10.504883961452137 9.4724256273844 8.4293514944188
Sc 8.463709995816398 7.063531183446012 9.509590029148583
Sc 4.229218481533222 5.121509727158476 9.681056668220155
Sc 8.425430419591569 9.721746049753776 10.800247903102344
Sc 4.623782232158069 3.6153787409123184 6.785614900039539
Sc 10.719510054649673 7.939346451294629 5.690077165220036
Sc 5.615053168249012 7.247694132578117 8.391294744077083
Sc 7.524468635160422 3.22466195842738 5.455098391223728
Sc 6.205880313040635 5.897988151155512 5.7559025653031295
Sc 7.977501713830205 8.510676736254762 6.7430708605573475
Sc 3.296490702178141 6.375038829163604 6.683574860626136
Sc 6.236780163548009 10.099877255383966 8.762965905191855
Sc 5.047594013570771 2.1050943567693854 4.118673457771222
Sc 7.730009903187355 9.360694539212057 3.826618174080521
Sc 8.551828680860527 6.385651993564922 4.005476390417897
Sc 9.688729359809333 10.818999384283885 5.748130472263838
Sc 8.61204381321505 11.825213723389007 8.395875487436124
Sc 3.7975409535398748 4.942341271019968 4.118647763262619
Sc 5.022084056838787 8.904059173690207 5.783475570759465
Sc 5.6038753742856295 7.386699533689343 3.0611744539781913
Sc 6.515643016252995 4.323228597107729 2.8943065491444595
Sc 6.770227131873524 11.415725112456375 5.849152114883926
Sc 2.8612850555315203 8.032204160959289 3.9605228085280033
Sc 4.861291349311894 10.392588192721453 3.282211235413312
