33
Energy = -167.65621339 eV
Sc 6.027990313409427 7.497857192336087 2.548703553798509
Sc 9.093008635948562 7.601697422464941 2.26159384927785
Sc 5.234861189882034 3.8016481777566913 11.064195057288966
Sc 10.999709476370425 6.077869202918406 9.583431102448477
Sc 4.096803974448919 7.263273691268744 7.494632956360013
Sc 4.28514219386565 9.315478757897017 4.163219984690104
Sc 5.535125733512619 12.12783662262556 5.145112401952178
Sc 5.862509007673893 7.309389550711032 11.513046280871373
Sc 6.571750191188474 10.142211864029585 12.210338375874706
Sc 7.837762649504097 5.477174916380903 3.8106459368240624
Sc 5.705592363501244 12.355703469699748 8.422721944965652
Sc 7.289383077021972 9.913454320029873 3.6281719988140853
Sc 6.41445901862422 7.84068204675783 5.610978437507361
Sc 9.359639345225702 7.943016802339443 5.210044313549533
Sc 3.8573443958806326 3.9407636742832235 8.002057630790585
Sc 7.625400521549947 10.692493536063298 6.668695656295121
Sc 8.625674210117982 6.184677534666499 7.823871614670933
Sc 4.5059253035883255 10.213307660419723 7.006331091366201
Sc 8.09131823782373 5.161524662910809 10.87107831090514
Sc 4.681446754026338 9.823598948994006 9.963177733337895
Sc 10.928213737032609 5.526905977243785 4.091235095682391
Sc 6.1333036775103915 4.913712608925497 6.276585863854819
Sc 11.998204673430902 4.022795965051935 7.21610358118251
Sc 4.094413428774265 6.172381341746986 4.55441130739015
Sc 11.50103408761034 6.733353012092496 6.7392241856624
Sc 5.807438409695867 5.651169374973489 9.124730571145394
Sc 9.944884075326643 8.955062442716018 8.247058730016182
Sc 6.781150637089403 3.0163094199891356 8.532027641645914
Sc 7.906722252670187 10.91592934595613 9.786671767495685
Sc 6.848398443609945 8.44551739708441 8.610484119944216
Sc 9.7061910266231 3.465034593437158 9.04133506228085
Sc 9.258812412662403 3.9262622251594514 6.028699308811299
Sc 8.736147595564635 8.175896149352141 10.94597381739692
