32
Energy = -163.57265122 eV
Sc 3.431606203834274 4.468977527076421 9.899913833256516
Sc 4.494206210606436 2.230564378100907 8.365539500557976
Sc 2.278301251968354 7.04519230933378 8.75455008807852
Sc 3.1490233197378217 4.992228506013515 6.831786726733757
Sc 7.362462008023147 2.0936357002313186 7.670098469618472
Sc 5.421869151358161 3.25261524597504 5.503751021741165
Sc 6.384794818671535 3.7959596346148796 10.50517588547298
Sc 7.49267318248081 1.207416224285267 4.7413893018502815
Sc 2.645144093541553 8.359241778890732 5.999513520746612
Sc 4.987803161117695 7.039771322535166 10.206103026997354
Sc 4.836877634955312 6.01688831105024 4.421732357074213
Sc 5.896605115864887 4.890233431834474 8.14918499441295
Sc 7.610171332841128 3.986422930050212 3.376563096608521
Sc 3.3971830777485144 9.674413639584333 8.895944213241751
Sc 7.530905955055749 7.19290715120149 3.4867098486055617
Sc 4.939375643709541 7.610130885130394 7.135874578715639
Sc 7.590427224014938 5.3881706652497945 5.881054885557828
Sc 5.371175211634842 9.003484220800063 4.264344484736019
Sc 8.027382301650512 6.946486778843317 9.345497284565955
Sc 6.598953648317406 9.592145950264499 8.95734862313028
Sc 4.925972007449731 10.801341121271914 6.688336046304978
Sc 7.820879981093144 8.377017537804148 6.3923753490256106
Sc 8.977143801728033 4.213929220494389 8.7280588815999
Sc 9.094845871443907 9.68114882142617 3.1560395704680966
Sc 9.495151448885872 3.2394660030822595 5.800371489782519
Sc 7.366364979378764 10.971791588990767 5.095989531892487
Sc 10.06387104247808 5.9234656961186545 4.007809540964273
Sc 9.758889467278179 9.582619291103185 8.14804520475868
Sc 7.876313891083386 12.038168971152466 7.725568572256767
Sc 10.213496992677378 6.40067003539659 7.171226775217983
Sc 10.087504898645818 11.407838018200971 5.6823860289049755
Sc 10.610796941950982 8.558832633343457 5.284957855495393
