39
Energy = -201.09691159 eV
Sc 8.703035197366532 12.221292395080646 10.08096561387302
Sc 5.526540499931564 11.741519886441571 11.618246839815999
Sc 6.188015326672393 11.712522578043975 8.848752562626489
Sc 11.590601258792029 11.27198534740778 7.818233043858763
Sc 7.655990524153638 9.761183870946828 11.444112909623085
Sc 8.45442311192229 11.02283669690728 7.028967915456117
Sc 12.821778548087634 8.797452228952318 5.654158645640269
Sc 5.185510331532086 10.019124328107656 6.411607674818047
Sc 3.967576312378763 9.963427733640955 9.407136097809271
Sc 9.748698012151491 9.537946326015476 9.423986444996494
Sc 10.665022515392248 11.192500059276421 4.894909763241224
Sc 5.00890424740957 8.758013761741298 11.867212873600357
Sc 6.6844818333319544 8.689240233956541 8.748645948641698
Sc 7.699567456893327 10.304713732566656 3.858466032498852
Sc 12.526866912844639 8.526976447378766 9.058965657696065
Sc 7.1377755798537335 6.565313823815641 10.99022983427198
Sc 5.063501447251402 7.964828357867836 4.064500622556038
Sc 7.6877050406091465 8.248340625738066 5.784033436835795
Sc 2.786218325458054 8.071441141932977 7.12027744961652
Sc 10.430106362696879 6.8572022331561975 10.843856492243814
Sc 10.460685776376714 8.735406395448793 6.727150487257264
Sc 2.7956611793418564 6.014993285323657 4.881427941185572
Sc 9.065660961162909 6.67694844859437 8.338575650484598
Sc 4.266172435952716 6.816258557528131 9.55696801409188
Sc 5.25198133216253 6.568818125118333 6.607447059682942
Sc 9.040366569645052 4.211108069776239 10.412424801850445
Sc 10.212790463868656 8.65523968687378 3.7036225313238433
Sc 5.085919841751484 3.910770097186407 10.105243042550121
Sc 12.014659986972895 6.184239134955426 7.589952713170745
Sc 3.0008574210239924 4.747414343343377 7.6885064429712635
Sc 7.918238430485129 6.8481687148760955 3.148359245556856
Sc 10.710161222635696 6.00661327358314 4.925086801591529
Sc 6.909205162426649 5.0388562084923265 8.421599217177027
Sc 5.471398171794261 3.186570860609672 6.808998199753858
Sc 12.008573066520597 4.468571301519424 9.940219534518372
Sc 5.38350977972494 4.8866091737375426 4.147846390944575
Sc 3.032214788957867 3.043873919700142 5.160137288517371
Sc 10.100192859847828 3.8716847451388983 7.510703173406821
Sc 8.025728667943739 5.187370982818514 5.694997106762566
