32
Energy = -163.83830423 eV
Sc 9.66639020729997 4.145130394556989 7.299089178253461
Sc 8.468480178588905 4.747114880541941 10.122814248906451
Sc 11.301107481613066 6.3786391485324705 5.756591340118096
Sc 10.169534106080174 4.132947467933202 4.143254044982945
Sc 9.314412891038332 7.0363956469414966 8.186414919307323
Sc 7.382130165342447 3.165385473957522 5.38103464955611
Sc 7.23772217237369 2.4291880393447856 8.548599586116396
Sc 8.49394189257877 8.17425230778471 10.82996236840523
Sc 4.855969133364103 4.092100738285616 9.803080616126117
Sc 8.320591005290005 6.349183566395813 5.19766360693998
Sc 9.895867968446952 6.972377370254241 2.895249070076833
Sc 6.237195513453248 6.140498182623981 11.393910947857156
Sc 6.6602007534119485 5.228679296932664 7.772180348687929
Sc 10.372571200222625 9.203167275047216 5.540986490984465
Sc 7.63807881720184 4.746937896893034 2.7181378484507177
Sc 4.702793484699142 3.036544177155495 6.920713091850047
Sc 4.963647200736493 4.6732291688572705 4.322742961474519
Sc 9.885327499362768 9.956119657969873 8.44562599439621
Sc 3.5710818683797716 5.753713971902313 7.480910881826883
Sc 6.042992873837889 7.932367074236547 8.986783453017418
Sc 8.218448437019013 9.52493976020994 3.683354359317762
Sc 6.34255525066543 7.378266997988529 2.8165668328956754
Sc 7.511303478270457 9.049042201428886 6.655267605294357
Sc 3.594456658767606 7.183932621857078 10.291459778597043
Sc 5.425228701706182 7.1321769198905685 5.611775215035009
Sc 5.749331597518576 9.008534965402959 11.836185889978116
Sc 7.190839071602559 10.74036713407068 9.479498546287838
Sc 8.378340554937957 11.580434308870732 6.067098325692401
Sc 3.738129215903524 8.902481272828116 7.181768245024246
Sc 5.382405190503049 9.922576187662676 4.477177245657491
Sc 4.144834213521682 10.292653647638422 9.737673739453998
Sc 5.4497883602920965 11.314391124310662 7.12840322856064
