32
Energy = -163.50619369 eV
Sc 12.235345439231311 7.162205029365657 7.6119342979440345
Sc 5.319865527597123 4.975475357319249 4.230128778720835
Sc 8.732713194570284 5.044185432029149 3.861241747126738
Sc 10.586633890989454 7.42167059919683 5.0549162805379915
Sc 2.742909239991105 9.163590027295939 5.840170310609985
Sc 3.87439622918054 8.014076202942261 10.874274043238662
Sc 10.169066647720841 8.270426219024726 9.858777090390118
Sc 10.757103847355522 4.620632492704231 6.450758458160925
Sc 7.5957455078598075 9.196689985647259 7.619972418464449
Sc 9.149571057453125 6.640512224250889 7.712988427845603
Sc 3.45961160846965 5.045094199259293 10.244495484554896
Sc 6.197494298561621 3.707919980478465 9.647260751438727
Sc 6.762503347879821 9.512952060993255 2.4947521110399147
Sc 5.007106751256689 7.306788158361865 6.316336952992001
Sc 7.506007040192748 7.50130069545246 4.823449127517847
Sc 6.993713619134936 8.659965974047429 10.70683889937589
Sc 8.443908667728858 5.773617254714281 10.622698297865597
Sc 6.634691381167418 6.506007598637971 1.9617431001934427
Sc 2.489289344252329 6.190073305930374 5.211827537543641
Sc 9.093094659051163 3.5074529713898683 8.688449984422455
Sc 4.098366093681556 4.4178344697536405 7.280475154951294
Sc 7.2092584635843675 4.641710661534718 6.634692852930138
Sc 4.296476028875666 7.963838339128939 3.418983427455399
Sc 2.5784906185147447 7.1350482698254405 8.186285263001654
Sc 5.720296202162395 5.991550364436 11.937115531818456
Sc 11.288732736990438 5.327723676664359 9.587099093729828
Sc 10.537261654404888 9.597712230808149 7.1882317535108795
Sc 5.666864492513337 10.225900705661093 5.292414880381834
Sc 4.656976439598127 9.631437389877071 8.413693639344583
Sc 5.950590074857048 6.559928566049472 8.978118359236953
Sc 8.859965973010105 10.105325518317274 4.691664704407939
Sc 9.220649598515669 7.831506602392456 2.3668499543467156
