32
Energy = -163.05250902 eV
Sc 11.855511040614187 6.354488179042587 7.580318163318612
Sc 10.312578135402774 4.474066912128644 5.371138882236622
Sc 9.68512842523367 4.605572906556093 8.524098634750445
Sc 12.068885876436708 7.244321325024513 4.829908732458513
Sc 10.724294290131391 9.364021079707166 7.036969734873303
Sc 7.247777263951029 3.0961018425602536 9.190806912684852
Sc 8.091000559155182 5.330107266792361 11.43867248468842
Sc 9.904267422334287 7.4393371079575825 9.491503196200027
Sc 7.278106351791438 5.222327721568011 3.4418447319219627
Sc 9.278093458424724 7.0722051353884785 6.06583536826869
Sc 7.249038473503434 4.640449323626167 6.435782583816391
Sc 7.685847865047584 8.568084185857462 11.06162166709854
Sc 9.880866945716043 6.508151503803179 3.037202870791155
Sc 6.929598912095748 6.2083143985218525 9.151912888864116
Sc 10.135817677532817 9.262711137460695 3.9724559306844665
Sc 5.1680647362687475 4.230907219056796 10.886686474591295
Sc 7.608599209193847 9.03854331878893 7.9402574645314905
Sc 7.574717980537013 8.44406368861773 2.4617703640123465
Sc 7.715166901266942 10.378931283403697 5.203439913608427
Sc 5.391988679867694 6.946838197670042 11.813899886225045
Sc 6.405546419691919 7.644890009562115 5.053295388474688
Sc 4.441970969303934 3.9549516053525724 7.958863532291644
Sc 4.707703215831396 6.975486801447258 7.4368002515325315
Sc 4.474041864924595 5.018450526807885 4.914142850919524
Sc 4.85821895579194 9.05321161381275 9.700338903278872
Sc 4.864932470759332 7.027292183435214 2.5128591468059778
Sc 4.893743289289511 10.067210979938956 6.640455951444386
Sc 5.101944360819752 9.90142709485877 3.497414903795213
Sc 3.050212826537764 6.2964732085237545 9.819213414309683
Sc 2.0698574092559676 5.7699732501219305 6.888470836737274
Sc 3.1186390471826337 7.964855537482776 4.924035129981782
Sc 2.3056504758394727 8.636178517658943 7.867214366558088
