30
Energy = -152.64040432 eV
Sc 3.4648075602638566 10.649955002429351 11.322093117539302
Sc 9.666855272340898 5.934224680994857 10.494701707326954
Sc 10.63689200066373 10.1860376973184 5.3846893980623545
Sc 9.487993247512044 3.5141339053741656 8.560555030984109
Sc 8.171060365240008 5.595153698246745 3.6219457747282355
Sc 6.218246587993137 6.426576564341695 6.009869515177032
Sc 5.1522820576027595 4.9922778301804795 3.715274780445639
Sc 8.676507054061918 6.151871020143977 7.907416166588484
Sc 6.155493707604788 9.468155332025496 12.3585376497501
Sc 9.770610147745979 8.313287469532304 2.972194463940929
Sc 4.47035867369673 4.1189041459304105 6.459904812573368
Sc 10.236012674552324 4.876413989910953 5.670786341921359
Sc 11.65198368283664 5.604915797423208 8.150224138767905
Sc 6.248168415377006 7.859095003095865 8.62307178373051
Sc 3.5179579403381016 7.135319195201578 5.501254311259717
Sc 6.434989306516099 4.54493429011783 8.992403043194523
Sc 3.7702230671707198 6.202962083437811 8.417955941590362
Sc 5.812290416405342 10.530686573486628 9.61043696365541
Sc 4.23622031530074 7.903982198506189 10.87126342525095
Sc 10.735868936972981 8.48446528399049 8.080962675104148
Sc 8.187673233068184 10.191694050459722 7.45879186650513
Sc 6.269318561015247 7.942533520769364 3.379844815829546
Sc 8.792396291563774 7.930762025368477 5.57725472542076
Sc 7.919892685135684 10.447213857322783 4.243341151412115
Sc 5.51691459360343 9.501144553819955 6.041675050006609
Sc 3.3499685312758465 9.17494218334648 8.344052744667584
Sc 6.884289225652716 6.562308377182523 11.438087041883303
Sc 7.4831522984561145 3.7318680962172532 6.0094368761918915
Sc 11.778385944282602 7.406980302664512 5.417398785362091
Sc 8.521353079933405 8.845022801072544 10.318696115030798
