35
Energy = -178.36554133 eV
Sc 6.304822511903154 7.935067539579124 2.381184294963525
Sc 8.514218293796478 5.804234709966759 2.479389885594224
Sc 8.629158222376729 8.301543171573666 4.254985248270854
Sc 9.46989920473614 11.050203507534091 5.780082333864028
Sc 6.6389123187273755 10.563130809763031 4.472326180260152
Sc 8.509263648192613 3.228436691967733 4.053289966125149
Sc 7.110951585258069 12.687512995059356 6.611336237131622
Sc 10.637210150006313 5.408764332202781 4.798123496055588
Sc 5.463099954603718 7.817583530180696 5.260243084158965
Sc 10.322885031528967 7.699601880389904 6.840272439032753
Sc 7.8579685952816645 5.733141583536568 5.591084869443044
Sc 5.798114746458641 5.146384203230948 3.504047482665504
Sc 4.917451817088315 10.553477040352428 6.955310030406147
Sc 11.292183575684005 2.6780922230417925 5.490268426373018
Sc 7.526698256902043 9.153569384691728 7.237403232881681
Sc 10.25976087550606 10.12030450851564 8.495228326956067
Sc 9.577843860388809 12.897815059067272 8.393693525435568
Sc 8.449458798147258 6.11166782092112 8.627855610730405
Sc 7.138697556490059 11.444941377623932 9.308706355586516
Sc 9.668074149887648 11.082514148185016 11.043204399571165
Sc 3.539657961290757 5.381842056604522 5.802052126121056
Sc 8.912028112134493 3.327703985036656 7.034893492078661
Sc 11.283387647371045 4.940712789531988 7.749630039017053
Sc 5.936836348072891 3.469131355588851 6.170077308398795
Sc 5.530875005069169 6.237448976800503 7.919506780780286
Sc 10.675797434109588 7.611070798385901 10.015061419405901
Sc 7.9719807606369875 8.729080042674171 10.266309642345085
Sc 3.0183793376883803 7.904657984384404 7.41819717559853
Sc 5.113577343473961 8.90982188447812 9.52015451374125
Sc 1.3330034285530903 5.431328223151293 8.036993989642234
Sc 6.545477135202026 3.702170922137471 9.233232079481114
Sc 3.6535679835808246 3.713053080021284 8.339722392692371
Sc 6.247783524641783 6.145788196524193 10.94407112279026
Sc 3.2654266662973495 6.411456645229993 10.041216775025537
Sc 4.209310380956512 3.887986630086297 11.205377310183769
