31
Energy = -158.40855911 eV
Sc 4.701664148189439 3.34309006235791 8.063821062862411
Sc 7.288030086083548 1.8790774610140901 7.097717570359275
Sc 2.3794277782033353 5.295221854727399 8.502261192768866
Sc 7.584346804427599 4.015579555953646 9.28333777743524
Sc 5.4723171035475735 2.8284547671611278 4.80822177914311
Sc 4.867353084840335 6.905391969027168 7.903798053383371
Sc 2.8601753422887164 7.854645256651848 9.916882899638434
Sc 3.5425125806289057 5.014073423210909 5.704466940131311
Sc 4.963864631680679 5.483098023227838 10.418146958414022
Sc 6.735051897600961 4.850844394705589 6.514474721794014
Sc 9.785438263673575 3.87068188238858 6.999524277193554
Sc 8.458069135552208 2.917410538442512 4.558370727775637
Sc 10.258677363949717 5.8115756015601665 9.20818645899341
Sc 2.4834670580643494 7.835431024135427 6.655384439114646
Sc 7.665044243941293 7.143295980337431 9.0474699791833
Sc 7.129074343101985 5.28152867469733 3.6128736548186167
Sc 8.988821092455638 6.833770402222909 6.330771529829763
Sc 11.889572119609525 6.147541391059475 6.739899469268915
Sc 5.63436126852822 8.578794726925949 10.632279019490648
Sc 4.458796898341874 10.020166235079168 8.289936523896523
Sc 7.658609052709333 10.266940908087998 8.792272963626953
Sc 10.247862473627043 5.443998564503656 4.078088973311749
Sc 6.660016340732741 8.919926823274684 6.361480039670501
Sc 5.010849446501846 7.429024642166454 4.473673927701335
Sc 10.415541462796426 8.712129295733037 8.025808426752432
Sc 3.9735985406754044 10.233743534793406 5.366237438599509
Sc 11.106790796652882 8.370126936603869 4.922585462781972
Sc 8.345498547143773 8.078252485042142 3.6254835418287543
Sc 6.2943779189634945 11.851318363633386 6.451082683044246
Sc 9.030117680735417 10.441199416469049 5.79642397863988
Sc 6.470633629968776 10.444247355790477 3.819893349099232
