31
Energy = -157.61552202 eV
Sc 6.313240607722685 11.087526279328168 7.868295465795282
Sc 8.454576556444193 10.00166089623678 3.563019417948691
Sc 6.92412886332885 9.53222661792592 11.69294171735913
Sc 12.326424186918047 7.537775485880264 7.301010979292399
Sc 7.963735443388522 6.917888850865414 3.4370852236440657
Sc 6.139117139433808 11.35294741140302 4.877468982216009
Sc 6.981156836533742 8.259876199564149 9.095327345724515
Sc 10.900843665635719 9.103823532085537 5.152511037356794
Sc 11.793135096929305 10.50661877360016 7.786951277530099
Sc 4.443359032647045 9.229777191301212 6.365305620303206
Sc 5.583944738040784 8.815323548989687 3.439229235398006
Sc 9.024638660145197 11.311404801922421 6.410259498714604
Sc 9.80506725624168 6.2485806375432995 5.752966316286789
Sc 5.384794784827177 6.259344738799588 5.234449802248416
Sc 6.199666519491104 12.22207737507694 10.631301543818406
Sc 7.628712566084621 4.193230143605467 4.99999484495929
Sc 7.329225110999752 8.575037513070754 5.925704199851115
Sc 8.795476896756592 10.838892346424894 9.649882887294009
Sc 9.507502350640731 3.3620653168097685 7.303813964314174
Sc 5.40412203315105 3.530753765981869 6.993131570955417
Sc 4.438302237184187 9.766626360683704 9.823115004170262
Sc 10.017928761023969 5.842276746316467 8.716958760823116
Sc 5.074454251132457 7.177308095641706 11.287650467619466
Sc 7.209922713795954 5.608707092310166 7.634139307110948
Sc 9.669162506668032 8.654484604596234 7.80639743649143
Sc 9.602332079079689 7.983967611902247 10.811983487164328
Sc 4.311941363755006 6.939850135560164 8.237461533141708
Sc 7.296710007443762 2.823158515892729 9.258244546594824
Sc 7.605837425306384 5.482732367427345 10.703487247456133
Sc 9.989052768207266 3.474640664073899 10.392514547139857
Sc 4.927393590989839 4.543243125661369 9.747627315232483
