38
Energy = -196.07371622 eV
Sc 1.954329029376486 9.411838877266156 4.15254151266992
Sc 4.509374586905787 9.130243730110116 2.6215783139002125
Sc 3.4061314974017165 6.42164944061171 3.322943108377059
Sc 3.9744004939936133 8.468642397949779 5.699609358744125
Sc 2.454745854044391 5.939770629178646 6.186354389485177
Sc 4.739879347942364 11.135636262386058 4.625704200959963
Sc 5.399633591818034 6.1083243614911735 5.3783974801545815
Sc 6.786969624346668 8.703760338567818 4.8141930096025805
Sc 7.423425783190497 10.29149035919926 2.7896289326711052
Sc 3.2051256826004333 4.156824412731698 8.542115462128491
Sc 3.8014880221770566 7.174163197544415 8.714389247220012
Sc 6.435762145109769 8.469183960882397 7.7588301740916545
Sc 4.300862335726592 10.520581822442507 7.799802460513834
Sc 6.514149677971424 6.889833918273908 2.3742474077649196
Sc 4.642992195004421 3.3508982585559077 5.875174731628959
Sc 7.077041199797382 11.23278793825447 6.704778790096424
Sc 7.322444236019205 4.418492525810256 3.862475547773053
Sc 8.329044407082078 6.266165443165087 6.1333242495516975
Sc 9.466268153284584 9.912927382777706 5.226944212700699
Sc 5.538673407024709 2.3120145758537087 8.744711241112872
Sc 9.143075527142905 5.077992442188827 1.6504932059063881
Sc 6.055987616416322 7.8393934604596565 10.844342974341563
Sc 6.0291371095713036 5.121330982069576 8.064824934891648
Sc 5.301925710948576 4.816717180059563 10.785154182399818
Sc 6.776630664201553 10.673735546458872 9.70485745355426
Sc 7.8788306966768324 3.195945945343014 6.6309072674017555
Sc 9.303201676003306 7.412808409345424 3.4658976208314085
Sc 8.488239306311725 6.60569694453665 9.363463430347691
Sc 9.32477260487721 9.488240258804614 8.20176373753211
Sc 10.294959825229135 4.675546512066977 4.576714928039012
Sc 8.097187477507179 3.636146905494826 9.806779078216886
Sc 10.977594981999315 7.420457299118147 6.2607525159292
Sc 8.92242409448293 8.81416811133263 11.189804476499264
Sc 8.15564181708347 5.973973207001946 12.192826143942643
Sc 10.378853972483393 4.771576985899998 7.86833832890058
Sc 11.282463462693265 7.427136638989764 9.593004431698988
Sc 10.673352620637543 4.8501227552290676 10.938734473833145
Sc 11.001726315749941 7.1730995584267205 12.684226732731693
