35
Energy = -180.61105713 eV
Sc 11.269308570397147 7.059563118059049 6.292453154647305
Sc 9.994155520371073 4.084436497928233 6.807929429364461
Sc 11.074963344751406 5.636203627288804 9.280409661801933
Sc 9.243810004838995 3.334709446333114 10.027402153511149
Sc 10.032237441039692 5.4701165786604715 3.861980627863223
Sc 10.478250827924445 10.3921560601388 6.419255660073964
Sc 7.475938221674887 3.9746938472337687 4.830417709560243
Sc 8.118325106231694 9.110468191354093 11.187854485230833
Sc 9.700846610000283 8.202902485162554 8.674960173294783
Sc 8.624185768589273 6.136752462892506 11.33650902074283
Sc 8.407023969090824 6.61418869627566 5.988918037411903
Sc 7.05184601358897 2.693757952886659 7.722200896066246
Sc 7.723191735728143 12.744816125782442 7.32647786625488
Sc 8.102880240223081 5.449906071947866 8.658574565926614
Sc 9.246818729373297 8.745883571676309 4.14336054703303
Sc 7.24817019217019 6.5474120044673025 3.197884667263461
Sc 6.112398674541007 4.254246730310764 10.439770530904005
Sc 4.575424700201476 3.056129784065237 5.138912191793522
Sc 5.6887315561055765 7.36330990557468 11.652156348776918
Sc 5.837854989954911 3.8248392641070628 2.3417939520843514
Sc 3.9238278403852855 3.3396547936265812 8.303470845167991
Sc 9.242405301700533 11.118425921335993 9.203316828165185
Sc 7.807824142300959 9.768675641423934 6.889676247019398
Sc 8.117798988538073 11.592014059678004 4.614642889258401
Sc 6.467036479761656 7.803271027540276 8.992358637891071
Sc 5.656883541163655 5.173927600054391 6.971561838053342
Sc 3.961940591439341 6.114618652119941 9.475327519799745
Sc 6.100732978301324 9.393830914932327 3.6451157742555713
Sc 4.514267421208839 5.921691929110161 4.061121607883069
Sc 2.933011865476239 6.128123869739748 6.6556303159493995
Sc 6.16491183847581 10.75997209212311 9.335993734316592
Sc 5.20192853050261 10.956053084362516 6.173096272731501
Sc 5.591858323142743 7.889118196041173 6.013629668005072
Sc 3.1574531173971976 8.863307378981526 4.947187219467879
Sc 3.690041126890205 8.927464695351286 8.107460997700104
