35
Energy = -178.75030275 eV
Sc 10.229812159234296 5.607984479665898 5.591066267187667
Sc 10.795039689640939 6.913440520688043 2.975934854353593
Sc 9.211880056896222 9.5156568129866 3.6961467515136985
Sc 9.520268806638772 4.1956084860081635 3.045253286158618
Sc 10.485360668800391 7.19714367045903 8.377280477192981
Sc 7.881385350928922 6.616312569465737 3.5031778771935604
Sc 11.290415244479933 8.535800163117 5.611385204245589
Sc 7.396278522820805 11.976686609824263 4.365170310770121
Sc 9.664391864857224 10.961486369117504 6.273446576652282
Sc 8.704219424188846 2.8242665371946782 5.616197923054399
Sc 6.573361888733758 3.7352135856935647 3.729977695787235
Sc 6.068023817987933 9.317630897811771 4.247351041027038
Sc 7.049615172166884 5.338275859424375 6.333867364017709
Sc 8.408863469977591 8.251097835462994 6.334623438556794
Sc 9.212679741024008 4.3286523979208225 8.367607782134824
Sc 4.81073418774014 6.388978244652678 4.334708890794872
Sc 4.513177139829028 3.8158797564048386 5.913774493471902
Sc 9.64210625941338 5.86255263024542 11.142830512170447
Sc 6.628622154878883 2.768109289170568 7.824153304089475
Sc 8.834256194878881 9.66638408950146 9.053037687570198
Sc 7.488308013403823 6.865903947980276 9.12293231247608
Sc 6.653370605947871 10.944182316909645 7.057660379538839
Sc 5.289958503015471 7.961902127350319 7.056160560224544
Sc 3.051949511799436 8.981311009671058 5.182254010517838
Sc 7.070468954460679 4.280537304872201 10.664392702637347
Sc 4.501099894529046 11.675939623420545 5.1052620738311205
Sc 2.8096675687859585 6.352263131025739 6.613417865149924
Sc 4.806212091471073 5.197236956048753 8.6536330345973
Sc 10.282136624246727 7.547356034000787 13.449538613964553
Sc 7.982392360583844 8.34302871144466 11.822432531665223
Sc 7.78221998717042 5.9058734541471445 13.336487253147709
Sc 5.786373411995851 9.444644334497164 9.773267126716062
Sc 3.589516620516584 10.46234177548971 7.720819419976936
Sc 5.416569192039348 6.75075043131383 11.341444625843364
Sc 3.218514409148332 7.855982785244292 9.219781053675678
