38
Energy = -195.55050896 eV
Sc 12.922578319233121 6.692026112287903 5.022542685658177
Sc 7.291008632070257 2.5830367474633986 9.57614832392531
Sc 8.612652008459543 3.8168493912851047 6.86579816965551
Sc 13.297288003720784 9.656681302410705 5.025713934348812
Sc 9.964044941723044 3.776518903513822 9.741392793531604
Sc 10.070887062663937 5.38401254691991 4.590703581350748
Sc 11.301288806360676 5.316517438575513 7.337769528417267
Sc 10.608193983999433 8.442016284230212 4.458584812689438
Sc 11.8615296823648 8.307307744215713 7.300152779056012
Sc 5.700874478077283 2.557852713614673 6.717478817413116
Sc 7.011272346531055 3.9602950634785556 4.189918629438911
Sc 4.69418963220903 4.188247751813564 9.093406340850473
Sc 7.920846049922786 4.873878843778464 11.696566763746285
Sc 7.491552845959229 7.023193694281612 4.143162261869422
Sc 7.535358490789259 5.471715886843091 9.08661440012408
Sc 10.773208895159566 10.845704480642855 6.320447000797374
Sc 8.911584226340246 7.146285761586479 6.838783239192442
Sc 10.189949834859332 6.821094336574702 9.816877201286513
Sc 4.063936933093453 3.062502754877723 4.09718078232117
Sc 5.634574263535615 5.542106781306734 6.359667567817656
Sc 9.249847152316564 9.605388383628162 8.697365837169022
Sc 8.06357070733048 9.926443548656572 5.4734739956066205
Sc 1.731934924870687 4.956312677876642 3.884476933492741
Sc 5.263407966152471 6.47984695257879 10.99228454182292
Sc 2.9275361275118352 4.225722794243266 6.5463666443663655
Sc 4.572501048333294 5.912972965998287 3.561130992039266
Sc 6.145232526225911 7.849222660381782 8.20213232260602
Sc 7.627860676478449 8.1621743200393 10.920697409080553
Sc 6.448831783595893 10.524234471537213 7.921414150449187
Sc 3.3645543377152425 6.906572193355289 8.6394009021516
Sc 5.287825474996585 8.776735100893493 5.2208474980476405
Sc 7.47352457767912 11.470957105312902 10.462709310100816
Sc 4.881009197821427 9.569833160147422 10.349549777948294
Sc 2.851830743653364 7.193328337999104 5.740868823575406
Sc 5.471667311602253 12.005206897657374 5.842317731871936
Sc 3.630166640586138 9.903639798068127 7.502028409951576
Sc 8.113593684414502 12.634329564562897 7.605804899356664
Sc 5.195308030231179 12.767136598793623 8.83385233599753
