37
Energy = -190.62289088 eV
Sc 11.00637198102386 9.746183254476838 10.11253350613077
Sc 11.419203342212676 6.808785061020243 10.613598891066774
Sc 8.59771157677813 8.002926152090458 11.228172000158267
Sc 9.403599163161063 11.09936550852342 7.8877900119695425
Sc 7.782908611559199 10.736903238272523 10.236061608690685
Sc 12.826156207359602 7.863551383741152 8.168816283699922
Sc 9.005796009118207 4.9600948779676814 10.709557941536868
Sc 11.145815379378234 9.460416645189103 6.17510459649938
Sc 6.3858568366654165 11.797982731972155 7.6123370049859
Sc 6.680617734396298 6.397731672683928 9.339545204711033
Sc 9.78675456469472 7.791708110584451 8.362692066345298
Sc 4.872322209868208 11.729602195309178 10.29282883668347
Sc 11.422852832644649 5.207185813461566 7.996459117581345
Sc 5.498047442134182 8.75943400710382 10.793953564263939
Sc 6.990492555594056 3.2660535404977598 9.465705146537841
Sc 8.354722403953792 10.374624648278946 5.17242330720899
Sc 7.097656610686568 9.029696720836785 7.838798646958565
Sc 11.600960016041792 6.611749022087147 5.264725150505713
Sc 8.67861922924454 7.273824781558021 5.46896700119952
Sc 4.157335720119714 9.754796531770774 8.155957459749054
Sc 5.54608344259678 5.337707730010181 11.457021337261638
Sc 8.506301822040555 5.03624453385026 7.691257415314689
Sc 9.54312840231132 4.176452213337899 5.148048586217093
Sc 3.6414696158770417 6.955530078517775 9.148192670736572
Sc 5.367776877476912 9.436744620280406 5.264668656854849
Sc 9.614143268840872 6.03828819713238 2.8015388354975697
Sc 5.718792207327828 6.493550325562194 6.434031496551588
Sc 10.356214744153537 8.791583679375611 3.3510287202405573
Sc 4.461322606406914 4.2401011906991695 8.336352345410656
Sc 7.283977092992369 8.220588981372336 3.0328540265264814
Sc 6.832001547814795 5.190555061666616 3.8175371197149635
Sc 6.540844834972482 3.3628836174851546 6.291893695191833
Sc 2.8636546204504834 7.640537907865493 6.121389458210306
Sc 1.65852606579695 5.273105715300331 7.284689666379079
Sc 4.264343977160539 7.014989792628949 3.5875570258181426
Sc 3.762775214662123 4.546092252465317 5.278530061339259
Sc 1.345540067249608 5.915081282067432 4.294017497372032
