32
Energy = -163.66147468 eV
Sc 9.35172931076849 10.718782646436837 6.700432189257594
Sc 8.122236129265698 9.522146762691904 9.096745174167994
Sc 6.245885986814124 11.289131834904213 7.746213717709296
Sc 10.695922739584667 8.263549339056558 8.526524344801
Sc 7.0024647663327295 11.975152050497842 4.756740779639919
Sc 8.589204902151737 7.1550924423123154 10.750723843561527
Sc 5.7747888263803375 8.818146296712653 10.801371290234844
Sc 4.937811736730995 8.5187292587485 7.922397523569318
Sc 9.072297660192007 10.101321379023387 3.626324038509466
Sc 10.226349389974542 8.030641932218638 5.599366801842074
Sc 7.0563633969066 9.127821022719036 5.6375560142311665
Sc 4.432480350865213 10.598316294870035 5.399406327438587
Sc 9.973719065216905 5.280522058431144 8.801718043845465
Sc 7.9755253869383615 6.990159820259309 7.452514164656523
Sc 5.6987726039100055 5.873530803767854 12.285330673313034
Sc 6.054352786373823 9.445068458799609 2.914506715741058
Sc 7.879541742282346 4.161046400679187 10.951021908732118
Sc 6.108681330104777 6.129397306821581 9.495058731927651
Sc 8.17026205042725 7.100422889542177 3.560496729049283
Sc 3.5126643744986903 6.726970850505741 10.39323251652331
Sc 9.460107095523378 4.932056917068164 5.621256118640863
Sc 4.447820686716841 7.511602683376049 4.844027995673717
Sc 7.410299780311134 3.7908068563845063 7.979574050402865
Sc 6.3943991468949255 5.084669986332807 5.276185543360473
Sc 4.849795011571972 3.732692138018597 10.060162933945863
Sc 8.096909905161594 4.082558016514731 2.8976629859331786
Sc 5.507977470238595 5.8415957678107775 2.457491875228581
Sc 4.066071575006604 5.512122168481139 7.376061449932338
Sc 7.7618453238344705 2.283359227217856 5.29120624573533
Sc 3.431145971994181 4.626910499929183 4.523726302612976
Sc 4.859951459730172 2.665157311725258 6.487383944047093
Sc 5.428429710558343 2.7564543991288026 3.3750622240729777
