43
Energy = -224.95151741 eV
Sc 10.002397528537587 11.18285126679054 8.98927957086276
Sc 7.460965553074137 9.976604512579364 10.663811272403752
Sc 10.125203061496238 8.24284806151578 9.147584947157998
Sc 11.666466432977078 9.422799134677055 6.816600689622672
Sc 11.975038504178334 6.119926808258858 7.5685470027202895
Sc 10.80239597153086 5.304567953996958 10.172202887588709
Sc 7.31572291622355 12.384186489892546 8.648751333250692
Sc 9.267570648468158 11.37896058575739 6.029227146320426
Sc 8.004820224460813 6.828410793498401 10.818008517454683
Sc 11.487755192732928 7.068745964566605 4.883471876481354
Sc 10.81050699247388 9.706385892280764 3.814786464308979
Sc 7.553939507608561 9.643599077512619 7.907443078504205
Sc 4.819159256654283 8.043683730883432 10.632579345290079
Sc 9.049988788862828 8.316327999211603 5.799350024950612
Sc 10.144786099046534 3.136405690137974 7.940623803000543
Sc 9.032145468743437 5.822974142667589 7.773396960936172
Sc 8.247050273603767 3.703870527731646 10.215547726257414
Sc 10.07235126062144 4.593816368144346 5.028204820354303
Sc 4.894272708684974 10.485124989924751 8.75299023975831
Sc 6.206557289992294 11.631739700562807 5.746081790797139
Sc 7.715324263053275 9.866929062267388 3.574204111967205
Sc 9.05817500600283 7.005693113966837 3.073442084828422
Sc 5.689941162200218 8.654761491979597 5.598468695735661
Sc 5.651102829196969 5.025971262194718 10.908079419218245
Sc 7.174898479020813 5.875544714877745 5.311347227798761
Sc 6.193107596882027 7.023677845720513 8.395847389818542
Sc 7.934075749196148 2.7678142052864576 5.831250188931546
Sc 7.382736537467026 1.3573403479785484 8.402597588131837
Sc 4.649814625112587 10.248419181212537 3.3098656818138985
Sc 3.3878552240953757 10.616055789711396 6.019246052277074
Sc 6.384886354815979 4.160364300942175 7.91221133188405
Sc 4.649140887295213 2.4980824321453174 9.405627734746034
Sc 5.865888264206704 7.343425767590763 2.842045855512803
Sc 3.243182610705131 7.992722934787689 7.605775374921653
Sc 5.053677583448299 2.038518142144209 6.242105204963389
Sc 4.247676523577209 5.158693895087151 5.921831146059228
Sc 3.4578507460442514 5.303982631905026 8.982493488343605
Sc 5.8677022324750565 3.852738732925012 3.5676455297450707
Sc 2.897112404778567 8.083386668667051 4.472055456845016
Sc 2.4030399778237257 3.021913405036119 7.253158956991139
Sc 3.4014475517570792 5.597770250338019 3.114269220332595
Sc 1.5054222275819689 5.584027588954269 5.789176858174549
Sc 2.731759704335845 3.0616136663167244 4.333333656582526
