43
Energy = -222.89003227 eV
Sc 11.490923745322238 8.916150813532363 6.747654504976969
Sc 13.691615221861383 7.278449117123312 7.681358037236253
Sc 13.157193670883009 11.12899774243387 7.061258789535545
Sc 12.414279952473668 9.583605109243198 9.430221211498903
Sc 12.564441185550516 4.270507573169952 8.121072758705289
Sc 10.842757079467003 5.9420361350134705 6.465452857642276
Sc 9.349791969744228 8.353608700458965 4.547286996357946
Sc 10.583869859334438 11.222974593380263 5.0131711200192655
Sc 9.94246040734796 3.059161830473579 6.395843918579748
Sc 8.729353649872543 8.202320569983211 7.7383653133554375
Sc 10.161572423054338 11.162365427009961 8.09712081083324
Sc 11.190549682206024 6.841518192619702 9.391719362572925
Sc 9.390554580932859 9.2847423163279 10.45793305891812
Sc 9.790507917326346 4.122373208827653 9.137559109455138
Sc 8.552012094689683 5.366811165323272 4.245218531832736
Sc 7.896672612473292 5.214069314502802 7.195839142914021
Sc 8.305265425453996 10.669638343091444 2.890177962896521
Sc 6.393341116350684 7.610686765430287 5.456655907360413
Sc 7.1803624534919805 7.809870284818684 2.4620248593908314
Sc 7.7078405423247425 10.526865830960633 5.903864094889386
Sc 6.75179280551291 3.0564429937608577 5.40750206200533
Sc 7.58114082173032 2.2867448145824407 8.188941725827373
Sc 4.173695639630433 7.4812515224430705 2.3715520717075713
Sc 5.448340720182648 9.9920269479741 3.6691011090076557
Sc 8.169637041403698 6.467672197111968 10.298565456074506
Sc 6.953052303582836 10.539470300811123 9.055904522288882
Sc 5.828519163735385 7.702254746971938 8.711025078405852
Sc 5.767482428177527 4.571783561729751 9.33817062034846
Sc 4.797350324099806 10.017014410149311 6.925994991269388
Sc 4.547378772494759 2.3518255731265953 7.517761259240286
Sc 3.8921507503315182 2.7390846263415716 4.40103124571814
Sc 4.604756454814493 5.217190843207115 6.441580408531785
Sc 5.607176224484687 5.1550477473280525 3.4531966616468646
Sc 6.383758059195229 8.777820693488735 11.462645077321215
Sc 3.295258883173138 8.165039179235464 5.036664787668135
Sc 4.067390925817375 6.775376518837315 10.956048181827486
Sc 3.850345486133586 9.594166464824015 10.042452993392853
Sc 2.6651543438604417 4.815846406308255 9.107797919861264
Sc 3.1363882173788555 7.576012911773388 7.902026072105192
Sc 2.0165420374871434 3.6175942768664333 6.471624754233899
Sc 2.5038439347471066 5.428738135402558 4.119691615115175
Sc 1.2098031071017592 7.454217014886235 9.929982448983745
Sc 0.8835057238690308 6.354138471144047 6.794187789450768
