48
Energy = -251.22652 eV
Sc 5.586503229033613 1.305030580765967 7.0608773841683465
Sc 8.067686976588979 2.8608860806682275 7.466652561380164
Sc 5.679014676420696 4.673977245182184 12.014551785956064
Sc 5.782445911661879 3.6132840458029887 9.294515113356136
Sc 11.04295653296366 3.619350608381304 8.359077344913835
Sc 3.2930157879190998 4.991108131065163 10.014772294197357
Sc 8.426174349504585 3.460087236296622 10.811517224367929
Sc 7.649840307765532 1.581623344451464 4.821829926919165
Sc 4.904821816772889 2.9477534566029977 4.650281924627869
Sc 3.3804690175697245 3.490536914920298 7.329227238513407
Sc 7.879990527702109 6.520334446385834 11.719085483332158
Sc 9.987541524083468 3.750937429600122 5.491097993855187
Sc 6.154186439853601 4.975593238617405 6.442171974204684
Sc 4.481332226932185 7.402534129246064 11.555288694813067
Sc 10.761319477528264 5.403568441794773 10.970599433444706
Sc 5.979653350759012 6.726907410764774 9.137090144995481
Sc 1.7083669815011855 7.409989997492714 9.967336022079536
Sc 8.74815143377575 5.600587577930136 8.870846820492467
Sc 10.522642860244895 5.855258791211438 3.3786980043830495
Sc 9.856038952412527 8.235667044055832 10.337887003053151
Sc 7.59750806130139 4.430631635642759 3.7645588143586233
Sc 12.532083079783948 5.04680928721699 5.789205230939802
Sc 2.2530377040888703 4.996762030910062 4.989020878900678
Sc 0.8632560077527676 5.576924919408939 7.666734121026407
Sc 3.5476205791050295 6.571214989554243 7.292880190317165
Sc 11.494512048873561 6.647457693242071 8.141075279877908
Sc 8.96498824369555 6.472809296768712 5.953519001975699
Sc 12.532083079783948 6.981078200722095 5.206173959745461
Sc 4.9054384855661235 6.070736527401578 3.8188139826178533
Sc 11.726267587388037 7.952170058936191 5.2477138311021365
Sc 6.80024386206101 9.293213416595778 10.56738511543198
Sc 7.714540587331044 7.521789053442108 3.237804088327936
Sc 5.917923482273267 8.285128871978754 5.92897207704596
Sc 3.965535904510802 9.183547199478285 9.033893697936234
Sc 2.6489125514974217 7.97247021379367 4.6483935878166776
Sc 1.2721378527742375 8.654651020947602 7.27012390473571
Sc 8.247044666243998 8.729151282751843 7.907128446498769
Sc 10.50116439112887 9.033254835669043 2.7408278227105316
Sc 8.962883068637666 9.588392238399535 5.0991396755041976
Sc 11.134170799610441 9.601650780904473 7.6543026834754135
Sc 5.049287290616792 9.320420529843986 3.2255617455600922
Sc 3.6930458981643275 10.370962189628141 6.058336053443999
Sc 6.090236816332813 10.933551745375526 7.890443803870438
Sc 11.489039673108225 11.062089071235741 5.007346251508341
Sc 7.819102523455592 10.460273364904097 2.431318590199383
Sc 6.49830224379673 11.384093782427954 4.98442655941465
Sc 9.001489421621793 11.759436865882968 6.999261824111299
Sc 9.178539039717723 12.582549861450616 4.029900980093675
