47
Energy = -246.2609792 eV
Sc 5.501841705405856 13.15244800670393 6.971517490349519
Sc 12.055240253211538 3.678099762910595 7.760345661219761
Sc 11.703164418826615 5.3331742992489275 5.215617920539779
Sc 9.625321778861254 5.386259917593165 7.447894615209868
Sc 6.829320962856084 6.449503095716687 6.168544000129604
Sc 7.820129479755338 13.774017147910252 8.595979615952029
Sc 7.902784646595416 6.321917352559808 10.137193851929702
Sc 4.3636848785006785 8.54902771846553 3.9391696502209417
Sc 2.5857393735410454 6.531864303866712 10.197681600492587
Sc 9.531306427090342 2.431423040635516 9.03897150826065
Sc 8.684834316053065 11.007863566518289 2.904473141191875
Sc 9.150464955243748 8.500905115972587 8.188986024316204
Sc 8.902657275278694 5.1943120075729015 4.162042894966756
Sc 10.780795208865838 4.964618836414356 10.200192358040423
Sc 1.9121322149382582 5.194689418274939 7.495479382859042
Sc 5.97854576252918 11.23844794372581 9.595167907126832
Sc 10.398792974813022 12.782165538667368 7.46107402228308
Sc 6.1071605206261665 8.366539611711 8.48550473181277
Sc 8.139687073152134 3.67179638140982 11.394801506127905
Sc 5.230549429410254 4.889274016362942 11.266879029496886
Sc 10.197410359299356 10.698939005831635 5.4567154670922315
Sc 12.035269950187269 6.90953340463505 8.018977695708593
Sc 4.610509598362926 10.411044218017006 6.5504720420955636
Sc 7.716209269484484 11.064597388136614 7.187916957785076
Sc 6.599307419016199 3.4526959205707684 5.078492126060666
Sc 5.821969291186557 2.2272906146794385 9.98479434840412
Sc 7.152090469603652 3.9922462391650884 8.116016017566764
Sc 6.411673583406287 6.461772989301158 3.093234658991941
Sc 4.644150812554856 5.612184541093122 8.414136339911094
Sc 7.80868003899389 9.180386370036867 11.022361898366428
Sc 4.443368114946313 2.7841667333450983 7.251870969862841
Sc 5.027756316851994 7.973392267596656 11.22439457647655
Sc 9.161944135596212 7.915222418644955 2.6091548868118517
Sc 4.199822720419115 5.288959812599417 5.246484971563024
Sc 9.428805588764256 11.256915123745966 9.774206418165969
Sc 8.266926452605967 13.164345285507407 5.311298374283587
Sc 9.994026981836774 7.770695543834735 5.510500567007285
Sc 6.461567296362554 9.361627174542816 1.8667751741491916
Sc 11.744245827200794 10.015145110371884 8.05528211693668
Sc 7.25440595676264 9.124974047389188 4.753943290168529
Sc 5.8618956446244015 11.625072903352029 4.0536963567626065
Sc 2.9514239505127278 3.487604117385679 9.825832743590185
Sc 3.499657021512122 7.684757716830598 6.731344558884057
Sc 7.163657916542972 1.1615864167380994 7.437941240642093
Sc 9.521615181257523 2.8008748588563614 6.025167271674589
Sc 10.723312562678819 8.17530747769819 10.504545462521259
Sc 3.2823335309466426 9.360451870925303 9.154693949716854
