40
Energy = -207.23644122 eV
Sc 9.368516780596313 12.979524782200055 8.37813463222738
Sc 10.815252629485121 7.766573229448149 12.657514483911676
Sc 7.296414567192321 10.939110752058973 8.856657689715497
Sc 8.32516953558927 12.28861310068449 11.323234443325479
Sc 9.495705660749085 9.478496516331283 10.622060561994173
Sc 7.535475007867455 9.420872685329627 12.800002252917732
Sc 5.625673892294912 11.255994044969334 11.368885923504967
Sc 7.568360055684993 12.278702569008875 6.194754688422428
Sc 10.822812404856947 5.304482108752825 10.622057293089735
Sc 6.101039588221532 13.264391804247024 8.888032398965413
Sc 12.070383510384897 7.92960747877397 9.850997437968326
Sc 10.126019004643803 10.028065860971552 7.771395641518785
Sc 8.295610032004369 6.539918724751109 11.772198387333885
Sc 7.317221651796428 9.010959854471594 6.655839422072704
Sc 5.415076074924409 5.714489049028953 11.100692278568898
Sc 4.246753293322273 10.18306468623875 8.935868300569133
Sc 9.140712812778949 7.075566454365885 8.753410380348239
Sc 6.494896828354668 8.441237632518206 10.096836934174025
Sc 4.43667302758819 8.527480317538075 12.048278665016962
Sc 10.257760687540458 11.738075951055476 5.427057016167621
Sc 6.193235589674722 6.310843581567558 8.061801288972902
Sc 9.99652768199886 8.743962784021267 4.8804740377653655
Sc 12.673238542566743 5.30187224116831 8.209526552038303
Sc 5.11891382478115 10.908801420702895 5.989864803019137
Sc 4.432718888270681 4.138106398489581 8.68750759472247
Sc 9.952509690994889 4.338460656024875 7.606591045166795
Sc 7.779389026620608 4.2868318004306465 9.770821159582757
Sc 4.0860458631757215 8.206626444005789 6.63548003215739
Sc 8.262785987906579 6.147585697298739 5.727839482880387
Sc 11.57651312961836 7.578299337777755 6.96875530227276
Sc 7.614411791375039 10.289724998579526 3.9062445238059325
Sc 3.5559693779210484 7.043608172361819 9.38806050831486
Sc 5.873619952362105 7.641344119514332 4.265980670355935
Sc 11.070362699039183 5.584926953057976 4.794030644116662
Sc 4.647573994568214 5.304602530559553 5.82936936703642
Sc 6.913253112326967 3.591326650486076 6.81373785602031
Sc 8.53608597521351 7.108595957250466 2.9291573878807906
Sc 9.29820612466877 3.188529875961601 4.798176691084984
Sc 6.897242719400922 4.605931119164124 3.597566407462161
Sc 9.70069817766859 4.4056287231912865 2.1927376198355217
