40
Energy = -207.69305991 eV
Sc 4.744060723244074 10.230869379014598 10.066492678824705
Sc 9.770741916358599 8.101522201956596 11.741697238336382
Sc 6.949003610345036 9.022813747688307 12.143299050268586
Sc 2.0674193883401646 8.633768353914215 9.631772520259481
Sc 4.358111587957187 7.399509341618301 11.333556612108238
Sc 9.82245650112508 10.863910625104609 10.717343231613722
Sc 2.9191240486139134 10.422996396511737 7.439769464334467
Sc 7.721088073286879 6.026881727383624 12.23200248569863
Sc 5.858338335818099 11.124996153506263 7.299733384012988
Sc 7.69776941461709 9.53359493632716 9.416543302779116
Sc 8.713699947394964 12.308369339108257 8.033411779624092
Sc 10.978275941181385 5.3752975109797285 10.797474534634219
Sc 11.911150492855347 8.70965011685181 9.673297384352045
Sc 4.498880120227356 7.909003703437561 8.077384642927521
Sc 5.193656275799023 4.50783839279092 10.985597203108794
Sc 9.590819206170295 6.89649223153962 8.971623542626759
Sc 11.76520185249348 11.67587626159505 8.536027436521962
Sc 2.087160424905341 7.504318509967109 6.629514731722372
Sc 2.7348680902738387 5.673117399283238 9.214314457728797
Sc 6.716431136164124 6.653350562559845 9.6153570823506
Sc 12.288109598169633 6.28182099276304 7.536922326645215
Sc 12.63420278351326 9.312310647301512 6.575768464982823
Sc 10.875871494218185 12.003308216768925 5.742138041347586
Sc 9.881939547516954 9.705850259696646 7.3698050975286
Sc 8.109356144582026 4.070229845929251 9.951232217571853
Sc 4.717587909309825 9.333879273700596 5.1236869846953965
Sc 5.226590622733326 4.506408605008426 7.938308442718092
Sc 2.744110340223676 4.583823702299254 6.327559722461638
Sc 7.993712025080938 10.907862726063485 5.164802689394867
Sc 5.218606877533769 6.319810060498557 5.436831722500085
Sc 7.108406569468447 8.348714513742996 6.676398566657784
Sc 9.901084923700036 7.131353102496339 5.693645761952771
Sc 10.43251088914677 4.001485170769978 8.05232866340108
Sc 10.525995523550947 9.444447941377435 3.978914354046204
Sc 12.635443747387939 7.047547247645982 4.457315736733292
Sc 7.952853125320775 5.291952606455826 7.041000851390821
Sc 7.596108351982515 8.03586476712754 3.7229412875350794
Sc 10.935841840607447 4.523973523421187 5.096677112004407
Sc 7.980954664933347 5.011445059601143 4.132262783667441
Sc 10.18107742782383 6.512313914758007 2.7805659773871625
