43
Energy = -224.1086551 eV
Sc 10.655039939867232 5.012976032037124 5.457099583787059
Sc 11.299397216146213 3.2699536991423805 8.009282588446721
Sc 8.728929457948546 3.836201032314763 3.436142129067637
Sc 12.843357629834296 5.691048015243878 7.69023800637826
Sc 8.461889458042616 3.0327157759508974 6.420876820271968
Sc 10.085571957431121 7.159790382281487 3.0916431555972164
Sc 5.915142605663389 3.377081688597257 2.239445384042263
Sc 7.37300743028976 6.005772053645471 2.107892008700399
Sc 5.866775192065171 1.9329443387900254 5.0214320024000845
Sc 11.397202700220063 5.158200515279601 10.495256099208424
Sc 10.955364820141893 7.9749515209601345 6.206467243433095
Sc 8.249089563175113 6.8413174926426805 5.070508006548074
Sc 8.724321624528292 3.2012673494733894 9.555123358332638
Sc 9.881098630430783 5.985636673595003 8.298721720222522
Sc 6.217802664386149 2.262643877195957 8.14123423743863
Sc 12.024244765433624 7.987090404047874 9.206288090897301
Sc 6.030611327935204 4.8300494007617925 4.867678180494996
Sc 3.492714812102382 3.60505143266798 3.871898713650759
Sc 8.950418061786829 9.901590643381619 4.995316378875014
Sc 6.688388944758146 8.68875764734166 3.0120280536981254
Sc 4.489002898994541 6.434373361531578 2.7735846040489345
Sc 5.328987561846511 4.473184292348992 10.219858601879109
Sc 5.396598906951096 7.82036785361287 5.794633197114921
Sc 6.032457303062123 10.665923689514225 5.01589300353643
Sc 2.859297973794402 6.246285004004391 5.346469471274446
Sc 4.064629405774051 3.746867622289418 6.9163652015124795
Sc 7.933662907524016 8.549882254210482 7.638865817988511
Sc 8.184200082835808 5.591574194640325 10.969438408843063
Sc 3.5017829280430144 9.323118247498094 4.176830541641649
Sc 10.168291460679255 10.320134373262608 8.081497175370663
Sc 4.115019477597511 6.474497151475898 8.196103060982738
Sc 6.9103677633693135 5.359301433808184 7.92791481114767
Sc 7.425270734786795 11.852907833983977 7.216347509202309
Sc 9.315656108359097 8.292552637977801 10.40608242676525
Sc 5.158499070320677 9.810897784365912 8.405899972488779
Sc 3.7879898370078933 11.753115214801827 6.603854932496625
Sc 2.529260643473632 8.944799100479322 7.146285004146235
Sc 6.180198493795091 7.579376630054459 10.203069332697224
Sc 7.696354685070751 10.86656072260927 9.966186440499134
Sc 3.08811822429581 8.272453693383534 10.312670775523038
Sc 5.253926869409344 12.659526459321656 9.341239962512043
Sc 2.6502560266859603 11.13276845839887 9.409815306339686
Sc 4.942203740514361 10.425089741427211 11.413452879149384
