43
Energy = -223.9974229 eV
Sc 11.88903720972088 9.76021580995602 10.13742491287915
Sc 11.461937031919998 10.229948528978802 7.2089460427162475
Sc 12.510787176633144 7.338604825975379 8.122746433334692
Sc 11.091154285814124 6.865177558193585 11.040100312525446
Sc 9.28096997145669 11.25479743451509 9.146026165410568
Sc 9.055834451458978 9.368997718345826 11.566868879425307
Sc 10.57721864007244 7.68730489220738 5.615554500552862
Sc 9.763035195146234 8.281837118711465 8.72712459678181
Sc 8.341151585604505 9.880539581330199 6.435748061409132
Sc 11.421351582969539 4.825026351233351 6.27889289016429
Sc 12.003403549968732 4.566029131953476 9.335045010745398
Sc 8.113351966355756 6.548133071505192 11.091169512943353
Sc 6.970605029101202 9.046887023162123 9.287483221930499
Sc 8.05130376284487 8.569372103818203 3.592645110020256
Sc 6.054369388902317 11.508736894395536 7.8123366467861945
Sc 9.15627030276871 5.6425468498080695 3.684075082882555
Sc 7.740016639447517 6.767140758580686 6.0519078014216205
Sc 10.31931233765792 2.477096067863611 8.272128688649945
Sc 9.282254982504115 5.3072546208717934 8.329749120474721
Sc 5.53700124559658 9.323687717965178 2.018408900623957
Sc 5.920801234835487 10.815684657628674 4.661588233583813
Sc 9.325537590949608 3.773972840838704 10.86494087708143
Sc 5.890355058288524 4.325716112047124 6.241830913225473
Sc 6.52618073639609 6.4115937100207905 1.6173892618725065
Sc 5.197990899338631 7.009794730871373 4.127159424173722
Sc 8.712274370335932 3.5527993928100488 5.873858099647262
Sc 5.166215340834954 8.721865729366275 6.691606266801707
Sc 6.07411320247789 6.146894935859806 8.63174181479211
Sc 3.4226861137804585 7.358482529749152 1.5959594721090367
Sc 3.367743870713342 11.21041886419216 6.556253132914764
Sc 7.187897689755644 3.0868863973575698 8.674650257873434
Sc 5.446466633370096 7.711025373434596 11.495629004779758
Sc 3.1717460530868307 9.346724021603785 4.081688724272762
Sc 3.8949236435000554 9.665426637900973 9.222063067446873
Sc 6.6102675095526084 4.008978786871044 3.4798471847284946
Sc 5.883948923145195 4.559253958847479 11.04651268028003
Sc 3.9120669330313733 4.734261638130029 2.6451667379447046
Sc 3.342531058790793 3.3995931742621366 5.164315346122145
Sc 3.5343463552045167 5.98988133449191 6.639795443752429
Sc 1.9752509240305731 6.4414291703214515 4.19444412696059
Sc 2.041987386364714 8.51984752060846 6.905675796847855
Sc 4.016265350893196 3.786684650942696 8.561568585761313
Sc 3.284505714241554 6.717564186995972 9.51553280720127
