46
Energy = -240.22309928 eV
Sc 12.648742055694493 4.808502304208589 7.622325121881223
Sc 11.796843408273961 7.267373228642634 5.948892920207962
Sc 10.519105064317433 10.018816117146327 7.322891962057035
Sc 9.239484504632193 11.995344240460302 5.14392841568421
Sc 11.609258863009613 9.87406741320939 4.535969519066554
Sc 10.614262647548042 4.368026653059921 10.137962870649504
Sc 11.341776780682663 7.50769119587328 9.064147751778316
Sc 10.743493024032153 2.5740262226474395 7.605206831383726
Sc 10.751080405207434 4.431534158909741 4.941996622442983
Sc 10.608421040607631 7.074495664598284 2.921667608368686
Sc 8.127454946454398 11.844481658094658 8.11831147880689
Sc 9.201167924729797 9.891007754915947 10.250413964264308
Sc 9.34141258948154 6.907215662013462 11.17654388051071
Sc 8.891328832654484 7.199940524803415 5.167813527020895
Sc 5.386416799754278 3.44586860620742 10.765811681370996
Sc 7.766372406084189 9.779886853506442 6.156926641513194
Sc 9.155431320549667 9.683312513797249 3.2635202296554064
Sc 9.811021809797447 5.365305362327756 7.411212239209207
Sc 7.398588692424901 7.645721464109066 2.426985215332678
Sc 8.138725660501702 2.931644200201762 6.172880057312722
Sc 8.224138454087317 2.256654652324553 9.55049732840895
Sc 8.289549334036126 7.897916335344364 8.448004720765272
Sc 8.038310130321982 4.304969101496899 12.03550111441365
Sc 6.388610712002207 10.727164963882858 3.6141954338765996
Sc 5.696872251663698 8.137984966260571 4.889576458958163
Sc 6.308624233145159 7.17792044804462 10.852527224462124
Sc 6.0889031358286365 10.147757168059288 9.612717847880631
Sc 7.758617533450372 4.786390352270202 3.6173557639274025
Sc 7.516627425372359 4.988263002411802 9.269329720287361
Sc 5.591435292142875 2.782510130300378 7.8870230050985395
Sc 6.534069782820474 5.589123936979318 6.364632309956043
Sc 5.156580264584918 10.94253984304473 6.501833054699686
Sc 5.38948142971024 8.06838844987083 7.82247364105263
Sc 4.786699119198738 5.847350707083661 3.162073508773279
Sc 5.037055205027197 3.4622994095715875 5.021478622873994
Sc 4.364941263253036 5.524733315794406 8.763224270096929
Sc 3.4642151683765707 8.158752215858483 10.189553992267832
Sc 3.288044732117332 6.3835607289270095 5.887005023427383
Sc 2.297956166902964 4.074094033925923 3.8838183425487633
Sc 1.420152123713692 6.526450627179593 8.293915676776965
Sc 3.1431788337518145 9.544905377234642 4.483826641845352
Sc 2.568512214663786 3.6657399308764096 7.091732996604257
Sc 2.66093742422705 9.218276262664777 7.452876781382658
Sc 1.7833903925111654 7.005643725327779 3.408606804594221
Sc 0.33423784522117506 5.37892680174603 5.627150135607616
Sc 0.45701889314147914 8.322212531512749 5.7893204420812445
