43
Energy = -224.91324194 eV
Sc 11.923020975322197 8.443014930448468 10.302213238921865
Sc 11.574223371419672 8.698146733883547 6.97153938442956
Sc 12.024704173009797 5.998027731717124 8.454239280168332
Sc 10.302829763332406 5.878587466385805 11.031984017207359
Sc 11.397723866194724 6.115427711438207 5.570531079203126
Sc 9.269700542354627 9.29302358522017 11.572433020800034
Sc 10.47298909965665 3.4108370998299913 6.191698732818741
Sc 10.312604636635056 10.871522844382048 8.929999997554729
Sc 9.277403108457042 5.180496289436789 8.122167841930576
Sc 9.497612341385107 10.6434146901222 5.777143345150086
Sc 9.366134387831094 7.925188178526301 9.008386492804995
Sc 7.374865871585015 4.479936743412991 5.989332980620193
Sc 8.742032397271464 7.5412177017320055 5.912602607756333
Sc 7.550027475002493 6.839083778632392 11.545090811734248
Sc 9.277125127190224 5.093197275350782 3.8204619014699124
Sc 10.412555998286267 8.266768821066606 3.7216322706146268
Sc 7.746219772454072 11.768796722854747 10.431791416651187
Sc 7.568810018253097 4.206738742698203 10.443255039760661
Sc 6.149497480945684 9.17957821382609 10.611649848816496
Sc 7.996217358978294 2.2732213618840715 7.8313937155235065
Sc 8.316419177251863 2.0214147588007463 4.64776671275817
Sc 7.55830623116816 9.51472894771661 3.7593158475262176
Sc 5.459250943357186 2.023915211511994 5.828520235446203
Sc 6.38871706562285 6.572782174595802 8.53335082288259
Sc 6.492953315692826 6.720998360058032 3.5377605360862083
Sc 7.491273525681304 10.005452569056738 7.941475164246797
Sc 6.030891310766342 3.758818045918474 3.252194227690167
Sc 5.712551866759942 8.386678960811455 6.057338321028005
Sc 6.377342316802424 11.541922737214827 5.590731722331834
Sc 4.7512152077498895 6.109806118452161 10.75643817293741
Sc 5.264139285585216 3.6835380518896983 8.56966290749436
Sc 4.4915683289191275 5.2046335093855625 5.76062330904504
Sc 8.097344022944538 12.88182493104805 7.727142800250154
Sc 5.258187919801707 11.696639838237973 8.579134907659508
Sc 3.9405338772080483 8.769446334462398 8.545919858135003
Sc 2.6978011845243413 2.9390800337785117 7.051818393406858
Sc 4.48344509423757 9.126496025643432 3.553467688937335
Sc 3.1391447097543494 3.023176618358879 4.02573798236612
Sc 3.437944285422164 6.03306407643297 3.122187670368349
Sc 3.6246245152864507 10.659412979672473 6.061821966247444
Sc 2.9372997493736754 5.8658830065646415 8.187029801618543
Sc 2.7449228797291734 7.816833019121504 5.713358395260026
Sc 1.4765716299365546 5.091842314356604 5.42177687634554
