42
Energy = -218.88151713 eV
Sc 11.537199444937144 3.7520039182738936 5.220479097712947
Sc 12.118429349045169 4.821840526089181 8.198335201737503
Sc 12.715446977513986 6.618343172770784 5.747711096789478
Sc 10.1332703328784 2.4921945867685804 7.706772368019148
Sc 9.133551745378764 1.5563543274822027 5.025428330377309
Sc 8.28701830965486 4.549235181628321 9.039590622520256
Sc 9.228648695902079 3.6836906307897186 2.92776126226404
Sc 10.21790350727515 6.5747396625121075 3.889152762094874
Sc 12.300055919466077 8.050116530343198 8.387050836187099
Sc 10.11916223799289 6.66135064951162 10.214612906383469
Sc 8.725854586704454 4.379262486550293 5.755694990787671
Sc 5.238818751445784 4.227114118567547 9.348063813813889
Sc 6.943683609595471 2.37346995520633 7.251308950721642
Sc 10.135567904612339 6.558692904094929 7.204600291405014
Sc 8.812600254012287 9.188342162056546 11.16857713157524
Sc 10.762267473245068 9.136836029676049 5.545530253521024
Sc 7.335287510339551 6.38437397488149 11.543642939307372
Sc 6.399446390861377 3.0514923657553585 4.298694511390717
Sc 7.137210788296933 7.419072027394449 8.897710603848015
Sc 7.198797266103786 6.002870081075301 3.3453263065735706
Sc 7.974759591703372 9.208939703402827 3.433540312570285
Sc 3.755983884383518 3.4714182878860123 6.5760297481910515
Sc 9.4448597818268 9.423266345830962 8.277894106246487
Sc 4.486703527992743 6.789277799900277 10.486990896357602
Sc 7.966229548219187 7.8960485683388395 5.910907350704421
Sc 6.022474652990995 5.320726462443817 6.595445287767596
Sc 5.80749261483021 9.416307251654533 10.846002132514345
Sc 3.9662619011542066 7.317499477328525 7.386707729276247
Sc 4.179718303524963 5.324718213077375 4.016876077741913
Sc 2.3472757204969263 5.3717971223872265 8.801428762894082
Sc 1.927837267039904 5.812080939797012 5.828295652844444
Sc 7.469221111336591 11.52555343496938 9.194059741709445
Sc 5.392196765146065 7.9578347204511575 4.716910996244049
Sc 8.02673534486565 11.039923971242207 5.980328950459305
Sc 5.663038709854817 9.79066192538462 7.555723775321792
Sc 2.9933697494327927 9.203912234529437 9.583908413216694
Sc 4.419624038206426 11.888489824210446 9.469249388446677
Sc 2.56692505460295 8.605653342424665 4.855068633874696
Sc 1.081252014721203 8.09278245690277 7.503069249877035
Sc 5.550854227327111 12.746603389322875 6.900395176712186
Sc 5.158516259081576 10.848842054888458 4.6265060173724
Sc 2.940811534156076 10.798928801617672 6.944571744851783
