49
Energy = -257.85760109 eV
Sc 9.316510022856752 6.825612229442947 3.751137396966212
Sc 6.616696120539848 5.207800628724425 3.465065874666427
Sc 8.958096171217836 9.908751236886049 3.6928259735555886
Sc 6.818063836879979 7.976576126777778 2.203454432607043
Sc 6.593869458154418 2.2756872922872327 4.693360285633138
Sc 3.945578579302013 4.052516960802266 4.872741736796693
Sc 3.532398238143453 9.69752024380114 5.698035842141045
Sc 4.325189100634977 7.275390861594197 3.750075313952583
Sc 11.170670030602365 11.585609312006662 5.268672567275474
Sc 11.726479318004934 5.537775743111465 5.2970175749078265
Sc 9.10275061818518 4.0525745917000595 5.112241122818818
Sc 11.071859222414123 8.650917206798331 5.605478046427786
Sc 5.95153660034467 10.298790448620295 3.9201451537596324
Sc 6.827578438202739 7.7476170063704215 5.2202246274565285
Sc 8.396668563912966 12.57015853572591 5.32768329724135
Sc 6.285156839858034 4.681785229624833 6.498815785171351
Sc 4.961311397289671 1.9406777709743799 7.0335502351035375
Sc 8.610842288431607 10.07975401651371 6.753052988803849
Sc 13.081885762312496 10.25399435405758 7.420627279083518
Sc 12.004198384614185 6.905056904294767 7.8999514659878445
Sc 3.9225441167560926 6.675331226474869 6.7800552570647445
Sc 5.525075255094093 9.038735081735888 7.589873228773601
Sc 5.77039811905329 11.773638704698243 6.418573037816618
Sc 10.916858567921825 4.077051857362013 7.809475326276913
Sc 3.1509899030840027 4.12596697603177 7.92869676892925
Sc 8.01927011399053 2.5066223795776867 7.538485335754732
Sc 9.110795796400195 6.4949975178567625 6.994565652560992
Sc 6.537583503875356 6.5747265748976 8.8774052014389
Sc 13.500117937297617 8.429589598179197 9.978252724079226
Sc 2.762808782048501 8.805977701027189 8.781626978380428
Sc 10.794015855003886 9.514659576585395 8.956445514785903
Sc 7.618608327621448 9.731432892786918 9.569825370218778
Sc 12.677903326647915 11.279045981395582 10.248710809903944
Sc 10.55237626536142 12.317868105648861 8.066170782860429
Sc 4.4815849057535555 11.37264909129901 9.193731628109294
Sc 7.513360036409291 12.53257522038033 8.715104771995405
Sc 9.272323370156473 7.208878283433097 10.173860395027374
Sc 5.703986438081791 3.7060110748296817 9.54851133280639
Sc 3.7802145771042603 6.17400202954993 10.104492582321313
Sc 8.789000624117746 4.381326395822632 10.00242388260835
Sc 3.086648837179831 10.094864297788337 11.604950144171562
Sc 11.785283888394035 5.7393994528348955 10.631519588559419
Sc 11.214528042880344 8.73441814267592 11.923519827902455
Sc 5.29213752305919 8.650841140329195 10.71024070894059
Sc 6.775178782343482 6.0193731147514224 11.755159250460856
Sc 8.101079017148992 8.897333316195471 12.456830505606758
Sc 6.261991858796336 11.450904981904497 11.620754620235147
Sc 9.528630535665704 11.45260045017091 11.015812751208646
Sc 9.673440199569608 6.04807056991114 12.771630458206365
