46
Energy = -240.62558686 eV
Sc 6.794305594322938 9.990956048531523 1.0283197492185718
Sc 6.8906888933465344 11.619982496726777 3.8544204499679506
Sc 9.36950446594552 10.01857563779433 2.591715332746544
Sc 4.284134871824833 9.948069240701015 3.124356132669517
Sc 6.9492307760476395 12.289015415006066 6.972733091354847
Sc 9.245565086240875 10.432430838892342 5.687630193619396
Sc 8.371021690706325 7.159321640706023 1.4497026676449412
Sc 5.201084593433901 7.464677385649032 1.2583764944125704
Sc 4.345745248545357 11.763953720424052 5.741944186018258
Sc 6.865822175215656 8.4399437029843 3.4977030388764123
Sc 9.688765537748958 7.53078520939882 4.339444936935753
Sc 11.830890824878324 8.67755990087775 6.258824527733225
Sc 10.823735841769086 10.23141375134883 8.499874239777292
Sc 7.847522472105729 10.214638897995378 8.863368547142043
Sc 4.171716031253588 6.938171037860244 4.175963547664084
Sc 4.780518370885919 10.047749513236775 8.690919281991475
Sc 6.291115310078935 9.466744165331985 6.15486836743672
Sc 6.428231945208202 5.100792580831475 2.918675937402896
Sc 3.15679744327495 8.98931512063908 6.102385741756373
Sc 9.092229116951943 7.93035023517062 7.310857248374252
Sc 9.262095792021874 4.5762704278829345 4.131621891193271
Sc 7.017086193193095 6.139056033004086 5.601459497626438
Sc 6.531526585032816 9.840307397585491 11.4914979481454
Sc 11.107139427191372 5.537821141204651 6.345041560999408
Sc 2.2857417161092832 8.032590804786123 8.938595157291667
Sc 4.7806485449397975 6.88680512327759 7.648051299868233
Sc 11.249883488186919 7.090830828222881 9.072619564239197
Sc 4.311427964171351 4.232072072167159 5.444880088064773
Sc 8.627120766202042 4.985628335960126 7.919381106278825
Sc 9.409957399816424 8.648314747140391 11.011018113862978
Sc 2.105274887688321 5.967806309491691 6.7269581360042
Sc 7.159332746640309 7.190870176616619 12.659807940181327
Sc 5.773336141744384 3.8885939133481853 8.097392976979979
Sc 7.067199579500319 7.2814611870961645 9.66847813632829
Sc 7.113457943989147 2.9643588926954703 5.478231975450814
Sc 2.708027238830699 3.0546747678206065 7.7606022618852295
Sc 4.460804913191201 7.576203802729278 11.08773893016722
Sc 9.81769520435685 2.5303540253291126 6.761227804109743
Sc 9.226125608197933 5.512901968082984 11.0062516094325
Sc 11.159548423822203 3.9211208112236235 9.036442869910777
Sc 3.2421704889622 5.169594692966563 9.67877640233783
Sc 4.654733293728884 1.3004184259985647 6.62174009605652
Sc 8.276512525208263 2.7813882298934374 9.857210992766616
Sc 6.068136975671815 4.728546158666181 11.065504555936378
Sc 4.911320450028912 1.8802568517258818 9.705246777697024
Sc 7.313302072612813 1.0111191247675222 7.799769213187207
