45
Energy = -236.5060784 eV
Sc 12.009974322963862 7.196277749080866 4.055206366173001
Sc 12.207068431692127 8.344906560519169 7.445234876995629
Sc 11.65987600270348 5.406968449155834 6.507132891834325
Sc 11.086800015853036 6.216089374548305 9.77851952733108
Sc 11.270746475333434 4.201360226999419 3.6799219623792774
Sc 10.444237833343527 9.146386028426699 10.118155133450294
Sc 10.18520527277199 6.111620344581345 1.7135747439175952
Sc 10.459166887282993 9.441197024533283 5.218685685602708
Sc 9.839167620552084 4.00924935199185 8.305563203323397
Sc 9.4596967248903 10.71307722773671 7.604023588744847
Sc 9.480253491368861 7.413694792561885 7.559421421207144
Sc 9.303373334065922 6.1851416456734345 4.652121103946704
Sc 8.979645980990535 3.3356409982888717 5.661379797525261
Sc 8.337180749469137 4.358401485154 10.713768202312208
Sc 8.20919664827805 7.26384749680826 10.32502549085904
Sc 8.105900980778616 10.959969587245348 10.234217344163438
Sc 7.972369009648079 4.16077190892991 2.806434342051917
Sc 7.923870942999769 11.37906382865553 4.672574960859375
Sc 7.2009415869643165 2.442908376544822 8.24245016292156
Sc 9.067954837696316 8.761340253441805 2.801028445699039
Sc 7.109932184949917 6.802445032077995 1.6186130249749036
Sc 6.911527961595996 9.10151049067634 8.372910785160052
Sc 7.348842273087468 9.047026818892896 12.411178049613532
Sc 7.415678335011783 8.854311662865403 5.520446556087384
Sc 6.292606189183501 6.025992388735117 12.55882947290894
Sc 5.133552701840257 7.195564454530488 10.041946880378525
Sc 7.161497838461212 5.290291411056463 7.6453003295015565
Sc 6.401152702167966 11.73285569179658 7.53385962706763
Sc 5.987474587383726 3.3262702027024194 5.102072354955935
Sc 5.379335407573537 4.199550600457792 10.23782971078088
Sc 6.279155506882061 6.2406732207664355 4.4641997753554845
Sc 5.177249843944786 10.317940736702312 10.69909721966966
Sc 6.108550323581229 9.352463873878913 2.867276920349711
Sc 4.505098524514094 3.7510377279283844 7.548943764615239
Sc 4.8206744420505645 7.29348652940141 6.872671826493524
Sc 4.743254545666291 4.964928909770725 2.463500056967058
Sc 4.261793431782062 8.317282264867178 12.811736280842457
Sc 4.720159955065122 10.253483346404622 5.327105579360662
Sc 3.1519937553855737 5.797747768395065 11.742954150134281
Sc 3.330391133371737 5.2305783923255245 5.294046050201523
Sc 2.718804743299435 5.782801121074711 8.687540555298527
Sc 3.8741862669992435 10.036451214282362 8.092702058355513
Sc 2.4431846903249155 8.427243595560713 10.166637996561201
Sc 3.772028342923537 7.7092293100953615 3.837442079152453
Sc 2.068711802231669 8.062499124093874 6.6071232556636135
