41
Energy = -211.2529159 eV
Sc 12.350026494784036 5.366841326469742 8.415876965644234
Sc 10.222306884337153 6.565100921929446 10.267776796344977
Sc 12.530568191213728 8.255297478030757 9.450281561376451
Sc 10.845209794778158 8.87631216674955 12.01557151443151
Sc 7.940931267080724 7.515499709872571 12.140717729612149
Sc 10.57361311012377 2.739823284418602 7.034297497725728
Sc 9.191844642507343 5.108916791613446 7.448982825125816
Sc 7.382675396355356 5.143163638751829 10.30530065838378
Sc 13.364750864349089 7.6351096859689145 6.497081867892134
Sc 11.933132188204402 5.2023398644364 5.691430939262621
Sc 7.7889754358535335 2.843082150195676 5.707485946440594
Sc 8.269139647944302 10.385055648279295 11.70190392483158
Sc 5.017894409664399 5.989259285333366 11.848078233761381
Sc 10.519506667005935 7.746265826294033 7.1471140980941055
Sc 7.541842901781406 2.6203816950045997 8.47039601356552
Sc 7.739079906518816 7.958081436528917 9.090556031270534
Sc 10.000484613149508 9.985730504593969 9.356629283143123
Sc 4.893834725784514 3.787463391995483 9.567168284158392
Sc 9.541108201623219 4.6060628821046965 4.236212679604091
Sc 5.565534549067807 9.05779343770465 11.368645770822802
Sc 4.715580350554636 7.07905351353963 9.186131414864548
Sc 10.916921488214317 7.4293836948923815 4.042365939193758
Sc 8.088287943521337 7.114417953131832 5.17499420759534
Sc 6.1646237328965805 5.37098851736231 7.157895985138465
Sc 4.820352361778426 2.9909965565447494 6.505064292912528
Sc 6.750042381249238 10.746044541635777 9.067890264218416
Sc 2.950680686210611 5.024169559739801 7.817374413304978
Sc 6.388129998091772 4.889568760936492 3.999314535882205
Sc 3.811301284270044 10.071131359174059 8.96684252040128
Sc 8.428251394049294 6.640016732645453 2.241893142949281
Sc 8.305367477629197 10.11781630627345 6.423869756084745
Sc 5.52044777318602 8.650084912262283 6.582237683470682
Sc 2.460960817315478 8.11415529375461 7.212405312568738
Sc 8.67359728983673 9.404477508553063 3.363355388640578
Sc 5.830439212000529 7.9294375251455005 3.401373033169476
Sc 3.8711310743809726 6.259854667506063 5.2151423831830765
Sc 4.922279453441267 11.690135034584387 6.6657800765174455
Sc 2.002666686370009 11.218607380803475 6.657713183165911
Sc 6.134580657590592 10.786796752911659 4.210782067283144
Sc 3.342647039428912 9.536637732574077 4.6661275253517545
Sc 3.4178833744554766 12.4610938735824 4.226612445922537
