47
Energy = -245.72642526 eV
Sc 6.7467865862309315 12.40374669792119 9.284680763506064
Sc 4.377147997188388 10.354740934733792 9.55891561749708
Sc 8.209799560873371 11.76833190661904 6.618250690863889
Sc 7.1201529279935745 10.282218086409124 11.351508560211126
Sc 4.528879306513574 8.728564415730066 11.886127619379291
Sc 2.28328967242339 7.6282241032972 10.113097341034594
Sc 5.153123737631859 11.29140192252365 6.8291263019097945
Sc 9.506082622995436 11.176000799037151 9.32681602908721
Sc 9.866850869599379 10.59198276089508 3.931198880502755
Sc 11.154984269344547 11.361306057208239 6.535960210004757
Sc 6.682114007751636 10.676596683989064 4.198530361297673
Sc 7.165485199089734 9.39905605690776 8.546754628883177
Sc 2.8067633747122698 9.104259430529291 7.184277560969752
Sc 3.5695735137531805 10.354807477501765 4.368166971275755
Sc 11.125147923832571 8.901918496840857 8.140164585883934
Sc 9.600335491075942 8.422530654145564 10.76565984872368
Sc 6.903220403405897 6.995620623871626 10.916859454893455
Sc 11.939623870363977 8.760704992512068 5.105118569656944
Sc 8.92827356102969 8.723687285776021 6.04776148177738
Sc 4.696955678475849 7.286935940445119 8.794327573877132
Sc 10.885574131149886 8.214052438601124 2.199600961540173
Sc 5.05916290272632 8.295710184036546 2.8883741452990463
Sc 5.553525415500888 8.437180825327394 5.821533000568304
Sc 4.1993226907615595 5.912321926161315 11.809257940308733
Sc 2.621270073731659 7.513731457796134 4.546307352322806
Sc 8.076222256494164 7.988636149773985 3.236249822583341
Sc 11.836304127915625 6.135127475362656 7.036202532943313
Sc 11.90851447572006 6.5996727346369495 10.06272564161329
Sc 9.42228706215668 5.162319467012342 11.287278328232091
Sc 7.58607253421519 5.634385740106537 5.540992433004588
Sc 9.126882249794987 6.17226245787618 8.499777220687664
Sc 10.360454773626234 6.137979915813425 4.2944540127032536
Sc 6.172291171828813 4.7140023393982355 8.256170036107102
Sc 9.125981507559557 5.8505453723472565 1.508650845173912
Sc 6.3567277098994905 3.9213336364661693 11.15177197344881
Sc 3.503781476465924 4.266042898027969 9.580800991528037
Sc 2.311355035370671 6.034917487637335 7.334735064888695
Sc 6.237541149784442 5.5411738767156615 2.6588111419633664
Sc 4.63015588240455 5.653559142208445 5.432338951664502
Sc 11.384406453262855 3.9433037150636747 9.214129790835566
Sc 8.423871365273182 3.6203828902865487 3.5666687661266323
Sc 8.500508357537477 3.0453702098079503 9.15591524904786
Sc 9.916903326499995 3.7961251042250574 6.44545896154763
Sc 5.509966781296823 1.8957240204011694 9.082497893646407
Sc 3.9192352948732605 3.141073140406099 6.841820747089213
Sc 7.119111979172645 2.5045740548684643 6.4405920510209524
Sc 5.467128089737996 3.141553839024194 4.171863985097112
