49
Energy = -257.94736701 eV
Sc 11.011403294774903 4.513143833936099 4.5290243306245275
Sc 11.866428491651355 7.0292693651911495 3.0109528347832804
Sc 9.173528008829432 6.115572582988712 2.4983368186061847
Sc 12.9443889528993 7.137764608640314 5.848524145193311
Sc 8.551848562255353 5.47118244411464 5.643862929789278
Sc 10.785509589291243 5.531622503236271 7.630508382075507
Sc 7.1070859214407704 4.190914455209509 3.007552915824589
Sc 9.352701652910547 9.06999633717987 2.7090308196587465
Sc 7.781228577896434 2.5498331859185885 5.321867682197037
Sc 10.167109200785298 8.007298471586129 5.4245601460567485
Sc 12.250649049381197 9.692279594279077 4.068509334254334
Sc 6.595298777665222 7.734773694937825 1.5472979367054305
Sc 8.039836911329369 3.5149384821226386 8.219071433720654
Sc 4.616646375493427 5.69172134368537 2.9442013131932705
Sc 12.598471463922133 7.596650157947219 8.923581879133494
Sc 7.86419290434213 6.455707044313561 8.3745369300999
Sc 6.90884533781852 7.435046635558237 4.269230103798222
Sc 4.61046804030073 2.793206171205755 4.1907552918054245
Sc 5.632895191811107 4.862144924792624 5.784469794418446
Sc 9.604441839137746 11.047709848659398 5.158643202883087
Sc 6.791559966127573 10.39977135418102 3.760742350230813
Sc 10.307768501289589 6.458663507141308 10.597346325942233
Sc 12.054208756369906 9.94767148446507 7.1112558228999285
Sc 5.306584720128698 2.0620373686127262 7.297194251193496
Sc 5.973074684243657 2.308035690300185 10.221880101042084
Sc 5.034465024839771 4.886770305992326 8.886470473555164
Sc 9.770920518299416 8.49420516846763 8.506684044948328
Sc 4.1467216503234905 8.550104794029249 3.758429446397664
Sc 9.684422924703199 11.463712466551382 8.081721291930549
Sc 2.647844112819138 6.191767269837749 5.087874694808858
Sc 11.044838252839687 9.79999351770482 10.554668500560677
Sc 2.9264892509905245 3.6644699054547702 6.632003503523195
Sc 7.314759468167164 5.139329411324204 11.025512738266745
Sc 4.659133551377202 10.628384981941892 5.734898111427589
Sc 6.9634481313745535 12.19408088312976 6.846062292883823
Sc 4.661398916106909 7.689957063275559 6.824220450025303
Sc 5.694871769181123 7.762250012160581 9.754487152537314
Sc 3.0081736083630357 3.1284471249073222 9.738388331591361
Sc 4.707379996798724 4.137317203824108 12.162282182025233
Sc 7.450059992606682 9.31414850085089 6.690885195220131
Sc 8.156644056263948 8.367461831766782 11.231498638744695
Sc 7.204080812779187 10.614572117294562 9.502006361713562
Sc 2.144121750027783 9.117098300146612 6.431522661405714
Sc 2.20142871319633 6.148072045294655 8.131006158526523
Sc 5.670331319019485 6.980958497566957 12.754997583706006
Sc 3.2131114632296645 6.353362361074577 11.060534584476475
Sc 4.406320319897257 10.98841776378545 8.561483326470835
Sc 4.843733453626049 9.738374503691642 11.541909291621575
Sc 2.8419239680110797 8.734663711140177 9.35079120258098
