40
Energy = -205.58239984 eV
Sc 10.957454589859086 5.564445957968046 1.7679064717158457
Sc 11.309852160735039 6.868202753815082 4.547430628006887
Sc 11.663159596049205 8.093957335948131 7.570304722645031
Sc 12.046718441551963 9.304692546143897 10.332566830828274
Sc 9.01659234244624 7.784265822972106 2.734906011652056
Sc 10.610372143010867 3.995683084384395 4.205265229143891
Sc 9.382463753039357 9.149825422455242 5.518152106924629
Sc 10.763704422403936 5.174438265933318 7.182231205997473
Sc 6.789318761612535 10.059276257985612 3.84317996564189
Sc 9.788717450038673 10.326536229496046 8.483611595322879
Sc 7.270854516316435 11.274942633386061 6.532549240637261
Sc 8.15435274119373 4.944469184655543 2.322132027612046
Sc 10.898889596654271 6.476083817072844 10.08731225230348
Sc 8.456987658417114 6.005450046548485 5.181761865863526
Sc 4.589860395003997 12.111361792204281 4.954288905126303
Sc 9.266486833156494 8.84923723525469 11.029648535135156
Sc 6.095281069433741 7.041621290171852 3.3997485724087033
Sc 8.379834595816984 2.21476955001185 3.3977969502308905
Sc 8.839749434895001 7.449465303047387 8.163801600240031
Sc 6.767756723103352 9.652715091513276 9.272132225913676
Sc 4.4268783355877535 10.49425352907274 7.361117231840044
Sc 6.591907702223042 0.8761833615184808 5.221953739825653
Sc 3.815913960265795 9.267271274583416 4.609702301596506
Sc 8.588955534907006 4.2876580869819625 9.232700899622943
Sc 2.64156118112071 9.634195279102595 9.630120658497434
Sc 4.19081583773445 6.350078653275378 5.600502401572036
Sc 6.4558931105316715 8.396929469705151 6.253873751980548
Sc 6.454068725504611 5.447363681640231 7.587622472848807
Sc 7.046249148801151 6.782416251861584 10.399856414838624
Sc 8.541265067461083 2.959058962345715 6.338872526431968
Sc 6.1516086667900005 3.8630094589245667 4.675450736291103
Sc 1.9115536987254134 11.195969405119843 6.307961396861827
Sc 1.4865917009167875 6.794060243450377 9.642030084245642
Sc 5.517903182679398 4.224533909800416 10.360539409554596
Sc 3.498186735292899 4.959148829728636 8.318272034928823
Sc 4.555425912465683 7.715515027941568 8.434689461870288
Sc 5.767427336380191 2.596512619618542 7.647431528361697
Sc 2.1175501645114383 8.233401434290196 6.950344362488435
Sc 2.4183865195605647 4.178246292877497 10.95038883446119
Sc 3.9558866037549625 6.714560253709688 11.152898460637577
