42
Energy = -218.86765055 eV
Sc 6.7713449464098 9.932119129200938 3.5174251983999536
Sc 9.060690017224868 7.419297859479685 2.332149506157607
Sc 10.136417868641098 9.69167451562876 4.169202094694384
Sc 3.508171183001949 8.091324291585453 3.592204048195621
Sc 6.016123260154949 7.320624751363783 2.285962526230896
Sc 3.962713906745777 5.108937471195892 2.676730407623673
Sc 7.946975268436479 9.829941631057327 7.073175106497057
Sc 5.063583653809143 9.049834459772923 5.974756401660884
Sc 11.8585933228214 7.14913539779954 3.8552159727675974
Sc 10.760332921285388 10.821841876861008 7.032867384379344
Sc 9.594158829089833 5.228891202920523 4.439533183667629
Sc 1.953486621451174 8.533330027360154 6.390483978504206
Sc 12.926493845583252 9.18230646086211 5.723033105638946
Sc 7.751198605864888 7.711307074693234 4.905493385577793
Sc 2.191559317653981 5.614345702238429 5.20682625677013
Sc 10.404470520391367 7.787089871496386 6.416777085880883
Sc 6.98268735587377 4.640486316018733 3.2175634213544684
Sc 3.802246061925196 10.036380224951083 8.49719655397227
Sc 5.175962138812303 6.054136806279318 5.1461715132259584
Sc 4.5685047109899894 3.2585091118288805 5.1801174097101335
Sc 12.921023271257026 6.318233498189872 6.796222510688506
Sc 6.141168672463992 7.900844283631496 8.662123235668695
Sc 3.645742697341174 6.618362384171782 7.798791785934519
Sc 12.074023869583872 8.638260909818452 8.79262893972873
Sc 7.57351900125195 5.805734958078319 7.014749891356492
Sc 10.402172276033749 4.619571812995559 7.16110367276737
Sc 7.6861199480041575 3.166574337631209 5.959808183549585
Sc 9.508530164688379 10.284475541091316 9.80397381676295
Sc 6.443768762825762 10.667258594359826 9.739759663952508
Sc 0.753357997770033 6.002380169716098 7.983979651195653
Sc 1.705911495475286 8.23578836972014 9.610761898385084
Sc 9.158558105144449 7.330187821758288 9.186909255424698
Sc 2.5363593334663563 3.6814257717958028 7.588581022828492
Sc 5.415371725798912 4.059808416932215 8.101958519552122
Sc 11.484937428735671 5.665372197122956 9.761371129177249
Sc 4.39728504780572 8.355634289540697 10.980034636581161
Sc 10.779033966272111 8.136184291368005 11.57699121245866
Sc 2.9312087149375348 5.4305520763986275 10.275892758159156
Sc 8.453836568230917 4.094781324371968 9.336922618257722
Sc 7.6098219381288486 8.453842156470373 11.528567116559342
Sc 6.1706256584759345 5.69577689634113 10.674883682127135
Sc 9.11407420784165 5.700749961977918 11.848844205196041
