41
Energy = -214.19807851 eV
Sc 6.156564153276749 11.465800113227546 6.907736597703088
Sc 8.517396521338808 11.024066711775324 8.966336023344985
Sc 4.252154150249673 10.621054375314207 4.43397520831263
Sc 3.384242952570588 9.858002406592211 7.383303533028317
Sc 7.085336986757155 11.979986055325952 3.8360401327852514
Sc 9.292194892820884 10.794243316586444 6.025062996369148
Sc 8.388327894716976 8.349512565250015 10.605843035271644
Sc 5.7237194120218025 9.703074034362032 9.483035377221539
Sc 10.605930471430089 8.81869740205269 8.398072562186746
Sc 6.806337571533993 9.475906789344569 4.8731155304344345
Sc 10.632732608533251 6.014938256626671 10.334358498957844
Sc 10.814179910322752 8.21895416739907 5.311580485152325
Sc 2.5228828458133443 8.123497655610295 4.939539260443294
Sc 6.1186020568778385 9.665442770879105 2.030126261286607
Sc 7.823259580529189 8.479786086890034 7.565781603274558
Sc 5.498992571451086 7.397461176046735 11.95413916762036
Sc 5.027848520069551 7.711376169498562 6.37174782991384
Sc 9.080506481798674 9.49395785425579 3.001880287662068
Sc 8.239482567954507 5.906114320757265 12.403186079655834
Sc 8.144208246156094 6.853977851242442 4.637493381617787
Sc 10.699529086473046 6.859827253165344 2.65342974811053
Sc 9.674065133239482 6.041212422710205 7.134268574625415
Sc 3.078187233925126 8.461835010960446 10.228375912051119
Sc 11.332616310353998 4.894552528399913 5.136318884532834
Sc 5.246960553405507 6.61715437516208 9.22515536343999
Sc 7.717298835889081 6.839887724412054 1.7285751775832052
Sc 7.999458169999218 5.501357085884008 9.451072557845201
Sc 5.085731364102887 7.1271794927932595 3.376417805641763
Sc 6.521339796074529 5.024717443367337 6.662790156977682
Sc 2.518099175674915 6.660581221211334 7.855923606371197
Sc 3.0433688695434653 5.614216148290142 10.877661550185442
Sc 9.02616892304027 3.369888148935237 11.168331621409939
Sc 9.17397783909151 4.476506488082954 3.205975701030007
Sc 5.866824563209457 4.231994692268198 11.157519370306959
Sc 10.229914338681384 3.507906346273438 8.355430110200633
Sc 8.604739953004774 3.120567972747577 5.773829672963029
Sc 6.268487914841362 4.353259317439736 3.6680036432135052
Sc 4.174875042954256 3.9011332349171512 8.347078659030636
Sc 7.13473875436763 2.684858463884545 8.555254197645693
Sc 3.7217859914768474 5.086625212114707 5.416305984912035
Sc 5.495687175423495 2.382267147820865 5.889880973568025
