42
Energy = -219.26029007 eV
Sc 6.802794144317803 10.11378893152407 10.564338901196823
Sc 8.759818177060781 7.41422631087543 10.955816804182039
Sc 7.4563986988029045 12.538103448377825 8.530825870164175
Sc 5.725856722210603 7.178715628651721 11.468035470099798
Sc 3.851933258308838 9.366957039503113 10.266816797797576
Sc 9.383173893079839 10.04965724091565 8.956706191072625
Sc 11.455234762565643 7.806429931328609 9.408920351352645
Sc 7.676092621606624 4.198899623289499 11.643261841498305
Sc 4.640434846308991 4.328716087665139 11.272131512730104
Sc 4.920733080422371 11.058891648246728 8.007396360605584
Sc 8.982782944026658 7.044494216810672 7.998032557971732
Sc 3.2191225980339917 6.4424718669425545 9.710741329775116
Sc 10.132690861606298 4.909384265174614 9.701929551614047
Sc 9.72523573035098 12.372236285771379 6.8087138915999805
Sc 6.0693754885706035 8.19757859451187 8.519769485234905
Sc 6.9238482588434875 12.561957696727763 5.3637241038002825
Sc 3.3289704939067777 8.444572193505403 7.257350379134083
Sc 11.55330157602694 9.833971979633052 6.78476324022725
Sc 6.881136256268077 5.240796978555112 9.261962411044928
Sc 5.936140468994206 2.385910336904796 9.693501296123411
Sc 11.927310554988384 6.835811238491045 6.602474680073405
Sc 7.527661876643316 10.241071073213677 6.562886602559098
Sc 12.035533321666511 8.508026894846406 4.050849627596572
Sc 4.648976263050881 10.127320865933648 5.117653946138075
Sc 3.1297721048649416 3.347612820424645 8.663894354546576
Sc 4.687496130047551 5.413692013837308 7.177211819715376
Sc 9.40506949106927 8.207164833462441 5.340648037657568
Sc 9.877754987935953 10.89219329271306 4.180363675129046
Sc 1.701172840866982 5.744333046727799 7.065806390482464
Sc 8.466564163296264 2.8092388679578817 8.135174262149492
Sc 7.67986534763887 5.100808648870046 6.108207425329543
Sc 10.514474445656331 4.269344006501697 6.730088285037026
Sc 5.728533022388435 2.5051017349697964 6.626154924120996
Sc 6.281422572471943 7.661745963858181 5.520756806599392
Sc 3.5384120148425544 6.6504306347511974 4.621744361447116
Sc 10.325903315618058 5.67584583885187 4.101193728774355
Sc 7.120532322181527 9.765170435670349 3.416060249224679
Sc 9.581492496363312 8.276858906577855 2.3652419526069224
Sc 2.9201922059920946 3.601066302853547 5.507847574355089
Sc 8.4008026179141 3.0110169753725966 4.607608494268096
Sc 5.48359891452202 4.236827147511071 4.188653636349328
Sc 7.443340404334081 6.179860096268564 3.06467862822298
