49
Energy = -256.19442184 eV
Sc 2.9247424626594194 7.10784110580783 10.154148861731583
Sc 4.795668366311123 4.545588337261418 9.831977714603159
Sc 5.184122795943381 5.996757799300517 12.484648025226527
Sc 2.562287379363139 8.625139677684045 7.667801296012664
Sc 2.5860702934629685 5.621092836930644 7.34445114617813
Sc 4.808333098615178 3.7410436488654017 7.033632490598335
Sc 3.963944165204703 4.492697458346721 4.2971017730388565
Sc 3.8337469214598894 7.613485294726607 5.138528759132182
Sc 7.318811959346043 3.6047294923741915 11.443454374985972
Sc 5.528638045159889 8.57664643770726 10.653361096940657
Sc 3.903541553945134 10.626302001510137 5.97078908261883
Sc 7.733980925315875 6.457846247236462 10.944685547625156
Sc 7.964980595567486 5.67361199620064 13.757380280100161
Sc 7.501308938258638 5.139742885700133 8.162054802640268
Sc 3.180467863862507 10.405979863765085 9.859658704477914
Sc 6.917370512266971 8.578866338640346 13.239420632317199
Sc 5.131114222686671 7.049283906633531 7.947360207274364
Sc 9.705740513958352 3.508523107014682 9.231000404298449
Sc 6.5846173351327035 5.709237225370583 5.148403772866008
Sc 6.408990778111875 2.569444907304884 4.979709564843492
Sc 8.964945522605618 3.30774783930836 6.302295344697632
Sc 6.973558702349286 2.2884407264422704 8.375907047062798
Sc 4.683993214294924 6.802591539300766 2.460553960113552
Sc 5.890353164205774 11.504166693265294 10.96917570651695
Sc 8.452597220108737 10.165325609036804 11.250848095681512
Sc 6.800468072629495 8.768774865582873 5.674591914058469
Sc 6.598039947557643 4.447405804799732 2.5531899998487644
Sc 11.526001918985296 4.803095638697891 6.962710777038658
Sc 10.170238703788126 4.794322861204225 11.930024305181544
Sc 8.09275011415233 8.52926304553048 8.747005651656293
Sc 5.389461737793928 9.82627415560098 3.3461330793772706
Sc 9.94328972910253 7.841934622836129 12.341568326448606
Sc 8.49211190842155 11.696849930159697 8.635531478021445
Sc 9.455350508026003 6.862323257445254 6.435085039500096
Sc 7.432626887438526 7.535697768745747 2.6865403157397347
Sc 10.588118193082124 6.543540943828852 9.422646294878607
Sc 9.526327829406446 5.183063172638879 3.969135474512931
Sc 6.864204813316694 11.765156136358915 5.793225183196105
Sc 5.619867256202308 10.206216669396845 8.216896479524666
Sc 9.556040913381075 9.941041648206696 6.49408549115085
Sc 10.8334108087253 9.64753007613451 9.592734760735423
Sc 12.208507436230335 6.787256371119321 4.767856160715002
Sc 8.490395709923583 10.595822267917814 3.5377759467384435
Sc 10.021257958619564 8.114226227374834 3.660658557820394
Sc 12.16541456991889 8.302134548848997 7.299107084399248
Sc 9.93014830563827 12.697565500436063 5.454668680764469
Sc 11.935545005902831 11.650332628056862 7.425620310015123
Sc 11.910602610338506 10.186760596193814 4.771404757347809
Sc 12.814762194251747 13.063952594148676 4.954559383847894
