45
Energy = -235.98138774 eV
Sc 3.4522034975108333 8.212668164439254 4.999757847359726
Sc 5.538620867428363 9.206722256944902 3.2380722958837573
Sc 4.504828324088196 11.765097898009016 4.765880014077531
Sc 5.867538304014657 3.2441864820405937 4.64895378908668
Sc 5.7265741351036485 6.197755777911694 3.8021577030524885
Sc 7.7626560630129875 11.006028980470083 3.6740064278888096
Sc 2.992488334774415 10.2133453161999 7.1430128776636925
Sc 8.084751505972516 4.439123456331387 2.815704826227769
Sc 3.68189974672272 4.927554567434547 5.846385617592016
Sc 7.961972818349037 7.807224090601277 2.0652999249413524
Sc 2.6579162379088563 7.310179905747491 7.819560122849054
Sc 6.066387423970434 10.08436891155003 6.295834121428183
Sc 4.789582085589504 12.217521718792598 8.235385452503555
Sc 8.548195012960491 2.493567026799448 5.673678887895042
Sc 7.149878429843073 12.806606393336397 6.195065784900998
Sc 5.4899666334631485 7.100216801751453 6.8110352321697105
Sc 10.396120811160808 6.367299549374589 2.780459878450657
Sc 8.043542860098809 8.176681707111332 4.920765302899005
Sc 5.670122229369779 2.129251658003612 7.5418852414834125
Sc 6.820700633232327 4.567979099637982 7.147706226651687
Sc 2.7985716776979173 10.29039569247401 10.340079318078908
Sc 10.899470797544431 3.6074151553526175 3.7320889325305013
Sc 4.005893271105011 4.689345050307285 8.811965366596882
Sc 9.382696292716195 10.744401361883423 6.2511376044556695
Sc 3.395693038193756 7.107837684162546 10.685127198197268
Sc 5.151119674055714 9.172670521001448 9.220874313653477
Sc 9.26361812410219 5.45004202769405 5.3544737478058435
Sc 12.276595102050624 6.132469116859894 5.018474719985786
Sc 6.375909867949058 3.56558021872386 10.294750909611402
Sc 7.726191208839375 11.218032929733145 8.90168584234156
Sc 8.23428157886514 8.306207533429378 8.128633481197754
Sc 10.628867760159588 9.076986757176076 3.8697620189223514
Sc 11.257591949713573 3.656692754340469 6.939580342742878
Sc 9.50042564473557 5.644231549767911 8.41649592947437
Sc 5.578631932147268 11.451466813519584 11.126121402130398
Sc 5.719021115934908 6.044320411889576 12.380864809037648
Sc 4.6583345173705375 8.95007545734721 12.432110862815682
Sc 8.842039603234353 2.773477914700142 8.780033900519065
Sc 6.409792335807844 6.382491020712918 9.597588450492163
Sc 10.80132220672572 8.021973649985993 6.7643910927339865
Sc 12.576968146070929 6.105507935675744 8.147302451512074
Sc 7.500706261995472 8.533951531334452 11.289384381410233
Sc 8.645284317757014 5.418536397483034 11.317345139049364
Sc 10.604518871485269 7.615316542028671 10.15623881932526
Sc 11.343455078058566 4.3938313150687245 10.181460304114532
