49
Energy = -257.77925902 eV
Sc 10.57664809262295 2.4363130961123964 11.222429375501738
Sc 9.524071458615918 2.984381281288017 8.409381731610724
Sc 10.284698424623736 5.26233377642014 10.629895209017405
Sc 11.530472315751457 5.200977228758643 8.068943680720636
Sc 6.61560098705767 2.7018294320552507 7.759513996686567
Sc 11.955960706153581 7.808630720711062 10.044957112724171
Sc 7.685074615154955 1.9958743138985817 10.508895992575484
Sc 10.949342402684106 5.385281000758361 4.9656605609905435
Sc 12.074820637532595 7.852084899430004 6.74305462470073
Sc 8.452979013444088 5.302417406726995 6.7817322042547605
Sc 8.240542709533964 4.17074128963428 12.435483429801995
Sc 12.145961814025242 7.676453596177534 3.560470420711617
Sc 7.371944573149957 5.011704704207346 9.558451188917443
Sc 11.082854964266838 10.357495753347871 4.867354942720062
Sc 9.290861485902722 7.3891224517368235 12.3093330154164
Sc 8.717426652141233 3.1847415002088857 4.831823527992985
Sc 5.7748348399888085 4.163760434949043 5.288157859953237
Sc 9.680622155234207 9.739768609605521 10.679523018957147
Sc 9.4768771554356 7.458214238294687 8.670328876984959
Sc 7.800812606542201 5.984181178870134 3.9286082101885094
Sc 5.257208719815648 3.7552342467670496 10.886834545833032
Sc 9.510885355356368 7.990871076143109 5.2572339751428006
Sc 9.908988139741812 5.905218907095705 2.0462092634077194
Sc 10.755590566163491 10.283727845524135 7.989609418482924
Sc 6.4378231253288245 6.758949480791262 12.014806564398725
Sc 9.727711422121306 8.822145059991568 2.479328705517153
Sc 5.647532884062334 6.502341138724266 7.449545695165671
Sc 5.291486646765611 5.723825740656261 2.487569238606984
Sc 6.666318707613572 8.727815136709095 9.679350154669532
Sc 3.991340452176291 4.175635378730463 7.907904992240413
Sc 9.146084736996269 12.247517985104599 6.241195679132691
Sc 5.826229103092515 8.076664469287184 4.769217953895265
Sc 7.182907281272609 9.998239180032034 12.20259584976953
Sc 7.844947423843482 9.610022404047356 6.955943138757901
Sc 7.99693886315858 11.6193587343617 9.192578570646187
Sc 4.08870850538126 6.572953256830204 10.109613268457409
Sc 6.963458418259711 8.133090097036852 1.8987227680798862
Sc 3.4933291985552244 6.092181385155633 4.944501020946292
Sc 4.395611121962189 9.14179708836902 11.711349559718183
Sc 7.714412142162878 10.573752452660226 4.0474210305905025
Sc 4.747901257469862 9.417364883142959 7.308046914177523
Sc 4.928222938413241 11.367383822271522 9.641734467549123
Sc 3.87381728908781 8.42484510206525 2.6439577157595204
Sc 2.518184767461411 6.830211238982121 7.648427165609476
Sc 4.540577538997195 10.859351536601702 4.4795215950483565
Sc 6.126651619063877 12.106536256904002 6.759420280616672
Sc 2.613472561631732 9.38648715162987 9.236193215090864
Sc 2.5214853850727326 8.930630524628274 5.444678822559635
Sc 2.885585989403486 11.592016110391398 7.051638826886648
