48
Energy = -252.24342299 eV
Sc 12.91356860142165 9.496430455979043 9.700781539684007
Sc 11.692139546336437 9.659369971107962 6.195642036141813
Sc 11.937990416259922 6.785188658254865 4.703944897093191
Sc 12.05801055677108 7.205203385321628 7.755258294418008
Sc 10.814248917294732 10.935678184631762 11.241356046548526
Sc 11.38606313410111 11.711939857312787 8.311639430061367
Sc 10.856147463230998 7.821293946246352 11.702759817823186
Sc 12.001254296642703 4.412655549674307 6.822079006286635
Sc 10.3767475755846 4.215469926394626 4.291358262484821
Sc 10.134594030801756 8.980028596977235 9.241971746793242
Sc 9.608336388044439 8.7719184970952 3.9561268403465193
Sc 10.021345369366875 6.2651552084638995 2.080306420397321
Sc 10.010484714543617 5.595110865108505 9.417831329031719
Sc 8.1142942452745 9.219827039894332 11.421004249768414
Sc 9.400558303246193 11.638630159466624 5.681967208597837
Sc 9.581166473805558 6.2109291599209895 6.455592918845838
Sc 8.593507471670453 11.645980863034636 8.827576039757243
Sc 7.270521242146438 4.014996412298711 9.392653494868863
Sc 9.048867217952017 3.240232943769179 6.882917003107026
Sc 7.343199292586418 7.137573479679142 8.911284264962026
Sc 7.987034620856913 6.147463447908283 11.660446940600584
Sc 7.609791663196087 3.2336756336337995 4.130837942067898
Sc 8.661163353212652 9.12641283236331 6.8455595080972556
Sc 7.779166051885311 6.286028536446802 3.9741524725454482
Sc 7.72612109551605 8.060945480136118 1.5548381647674754
Sc 4.788787426240061 4.761398105649433 11.147121152222404
Sc 6.63512025275538 5.153134063795516 6.50192673229376
Sc 5.929518625711593 2.3649113720136365 6.524660380858563
Sc 6.2162870544496736 10.074883190549345 9.232251355493897
Sc 7.116141704828345 5.046113738565374 1.5574257546844357
Sc 4.663267066515671 2.383462846578034 9.184130934128161
Sc 6.128741239782449 8.115355735565872 5.750340280155987
Sc 5.22691737423872 7.727109228646873 11.135683326564694
Sc 6.343904792272547 11.199467659952296 6.418940234009286
Sc 4.374547879101619 8.23831188856458 8.182702676439991
Sc 4.282755967585761 5.2047533873225555 8.295301892321994
Sc 6.818787580820228 10.13805373547358 3.671168009544314
Sc 4.989862925657689 4.443857863625734 4.097209892693986
Sc 5.068653775616259 7.440408910710764 2.988684665707856
Sc 3.5670114205950685 11.14533484793972 7.7782133837913126
Sc 2.0641378089030096 3.6555364072394947 9.605894327027036
Sc 3.0088808440390817 3.2568084894686957 6.588938576854631
Sc 2.3804707818789925 6.81886316473791 10.126155354165096
Sc 3.387815707925015 6.638421523789189 5.639166429656652
Sc 3.1102182627411334 9.866217110445138 10.360132633727199
Sc 3.8080449934664746 9.76632154314513 5.061506831991194
Sc 1.658545856450695 8.73659336427938 7.607312984665069
Sc 1.2348913063298153 5.632990439385741 7.550326747383337
