46
Energy = -240.51690426 eV
Sc 2.189310755879689 7.161477982981626 6.009231200137907
Sc 3.234248830142887 7.69637170386055 3.0486176491871975
Sc 3.064737546844073 4.813844150264168 7.93796335901441
Sc 3.5447797669203824 4.890664840951008 4.8448229651441075
Sc 3.5577928661443403 6.511549169605947 10.50083100701819
Sc 3.668640057918047 9.825355474316831 5.601548419660586
Sc 4.2462844895066905 7.8589085076836325 7.892431078533265
Sc 5.821044405449994 3.2069116906140107 4.321229031456575
Sc 4.985977869430751 2.3343887668449055 7.122229877529429
Sc 4.688550340497498 10.420459617928204 2.9478203977202884
Sc 5.04057347029013 9.225432102689657 10.877401454047368
Sc 5.822034531508642 8.102715794484173 1.4209636998172912
Sc 5.369417116281015 7.413806922731387 4.887859262107206
Sc 5.23785178812626 4.091091967816871 9.903650333346176
Sc 5.095983543223694 10.831387822691292 8.299325132172054
Sc 5.701790740560416 5.447094582098874 2.5514710704733186
Sc 5.875403188124714 5.06475463062905 7.053407501905425
Sc 6.504150423242382 6.949300955721436 9.463187458151351
Sc 6.208708033388577 11.410761694267569 5.518477639689664
Sc 8.006443785380364 2.3630405538723434 5.7081747666788045
Sc 8.522950306670825 3.613107709284432 2.919634769911701
Sc 6.189806518407439 6.830899513994436 12.30636149926678
Sc 7.175926155055197 8.758022584091384 6.929602912633906
Sc 7.830654054892439 3.1142951245919352 8.509954093916742
Sc 8.067831703378717 4.730007634951304 10.96763404436271
Sc 7.988237005695415 5.4345061412690026 5.0730044846849855
Sc 6.07657447783159 12.124219793885873 10.977872991710827
Sc 7.406340747421744 9.360853718765828 3.6247697589155075
Sc 10.88147201475134 5.326867929279145 4.147356994842487
Sc 7.658520497188947 12.665905383479037 8.231691369384942
Sc 7.793726722877987 10.065300314687532 9.680684680060073
Sc 7.708035387969464 9.887119799458363 12.587950076150806
Sc 8.569948347277393 6.700372316161198 2.437872663260812
Sc 9.074919863970425 6.011977204007823 8.104436670393799
Sc 9.027501094683608 7.475597998086793 11.068984509836927
Sc 9.169288472187745 10.957272660282877 6.17508440779593
Sc 10.455057503726282 3.7845323038111656 6.701844451439011
Sc 10.714185316761283 3.7458950488693237 9.665761418695256
Sc 9.6818072807394 7.976944995662663 5.14826354401911
Sc 8.9888258057198 12.500730770680923 11.18699161388883
Sc 10.625335756335957 11.847367013621389 8.768817350730181
Sc 10.672740140954614 9.980752983658846 11.189864062893749
Sc 10.167521101995426 8.873564317746292 8.31349175590378
Sc 11.77795671586163 6.597688135774594 9.710344697159101
Sc 13.13983222981267 4.397815118013447 8.021352714064614
Sc 11.856158454207302 6.6850806628795 6.748248019850119
