44
Energy = -230.91495525 eV
Sc 11.974187562985739 9.292472485447291 10.332942434209544
Sc 13.146356590905544 8.090470871998829 7.746321897895404
Sc 9.370754708076756 10.990927605285732 9.927661169520706
Sc 11.615655161193413 10.97420052824836 7.753630075861403
Sc 11.389765393352004 6.1482278878088055 9.789537454733104
Sc 9.067106829582928 8.056357757437297 11.15780974449908
Sc 6.297420734376749 9.566927302249239 11.10575810413276
Sc 11.879172062154163 7.570929752428895 4.984472074274135
Sc 6.452643619971354 12.004850623077532 9.237447216763858
Sc 8.477747540135843 11.909893939853122 6.960351874266539
Sc 12.081032914248974 5.289114490890587 6.9308513436643535
Sc 10.35646290629086 8.390226790372994 8.14663330812111
Sc 8.120803370325966 6.345889213526472 8.890412821187436
Sc 9.479505751276402 6.346753565562517 6.1737354895602286
Sc 8.979019418281563 4.839299848231255 11.279254792537648
Sc 9.774103190677435 3.765462185294023 8.46038922574381
Sc 6.25283920582847 6.363223211745541 11.297544599627159
Sc 7.601397250463671 9.403016086057816 8.237909141287098
Sc 8.090315531997751 3.7996442163247917 6.124808861358249
Sc 9.877785832788277 9.801329419914664 5.445489935037782
Sc 7.306908580851973 8.039645812914964 5.598464319073336
Sc 6.704387751790688 3.72247007119587 9.202218958217912
Sc 4.26239320866379 2.6061463195751275 7.858416575044448
Sc 5.410903250511155 10.745836882614432 6.6007473482683485
Sc 9.190814609231493 7.770958817079109 3.2767700736114156
Sc 3.7673961398745432 10.361825961237752 9.292358825704783
Sc 3.85187078226601 5.2679715779197664 9.44533075608772
Sc 4.358930448798501 7.963300387034693 5.94244782521331
Sc 10.360457823169348 4.640144993972298 4.129958380930159
Sc 3.4847387490508517 7.945554549355544 11.180200509136933
Sc 7.038689392777069 1.398699627106802 7.046785746850822
Sc 5.754955602470722 5.44079155222928 6.8375964289634625
Sc 5.200731838415337 7.853094009872711 8.857810732281084
Sc 7.216334698866106 10.566441041801877 4.09225765225759
Sc 2.8231623381987587 5.169191045672451 6.4706787369982885
Sc 5.248966646476896 2.978109712988159 5.116769171504669
Sc 3.9873657700179086 10.10802171895352 3.906747993204424
Sc 2.3792968718120937 10.232832897405801 6.42718605277401
Sc 7.266525757183475 5.372983962151157 3.797268909442394
Sc 2.2601584868222986 7.744946658456419 8.249820509537953
Sc 7.83781768170208 2.2206764960063596 3.8521481999405456
Sc 4.2099048724286385 5.71009498957546 3.9092430771026425
Sc 5.898314482138273 8.005174619151079 2.917285642254141
Sc 1.9513174661346 7.7886927713028635 4.63794795588872
