42
Energy = -216.99849776 eV
Sc 3.5097563900156485 9.20126649070592 11.664106334969334
Sc 5.435039157575642 7.117477717077408 12.795941531417329
Sc 4.379794513473863 11.169212202215254 9.378112430778254
Sc 2.4164436201279385 9.0842595783195 8.716764235658461
Sc 6.341673416746502 9.155531128279698 10.753731186594006
Sc 8.319291221018227 6.972069643943794 11.868093989551681
Sc 4.278235490629026 6.824198850901364 10.086242753012737
Sc 6.321150281841069 4.718716886267806 11.198905601967425
Sc 3.3441257837161693 10.893704994218881 6.577008823795877
Sc 1.3171907473032056 8.597045781214629 5.782972699619395
Sc 9.33630477503432 8.97624618875458 9.542585098819794
Sc 7.425423848844011 11.03869994903393 8.301603385790925
Sc 5.2853008164027875 8.84539605256475 7.696181381712003
Sc 9.240466195262513 4.10375870648224 11.75096453213511
Sc 3.0911470228131757 6.504488094661634 6.932602939018919
Sc 7.259565413587449 6.654898991851216 8.98671797977188
Sc 5.181219244036515 4.408839161306017 8.186824227693862
Sc 6.355530929195952 10.753141381442424 5.410814477097451
Sc 8.431476802099164 12.956497282451553 6.065663239063164
Sc 4.077037420052624 8.525081612907892 4.651546409629709
Sc 10.28259212840575 5.9206316951376925 9.656960296137836
Sc 11.087736791005279 3.0799086536336597 9.543249651046287
Sc 6.080951123879576 6.3874824643000885 5.8719228834068575
Sc 8.218692223728706 3.604269778015324 8.946857058422417
Sc 11.339671527552818 8.015652477893314 7.217849435609056
Sc 9.145613548478641 5.636655778849922 6.5855722277995
Sc 10.30514030742155 10.96863679719518 7.235996639238522
Sc 4.087377973937816 4.099422241843182 5.195881026048667
Sc 2.193817189175393 6.2630119232726065 4.116428035024577
Sc 8.307021575932584 8.686477608151776 6.552312915057346
Sc 5.022932441236178 6.022095015010622 2.9578967873022695
Sc 7.00912891652982 3.4690068916685814 5.898070724787062
Sc 9.241915429342372 10.682985485016955 4.343331142061404
Sc 7.129622052022666 8.369841175160532 3.604277556203033
Sc 12.05196574420069 4.888470627601819 7.154160380102505
Sc 13.025113900991476 6.9910397889009745 4.990637331284551
Sc 10.090869049349735 2.776827869814323 6.583200455730136
Sc 7.9496477569127135 5.392395237953942 3.6612346218636698
Sc 5.879580330928802 3.1831466306908727 3.00943462975824
Sc 10.99844198066704 4.630339601222451 4.406625317609688
Sc 12.11596348993764 9.849147181261017 5.0208452718068015
Sc 10.222405303942724 7.6727280648443 4.233545863350154
