45
Energy = -235.55870534 eV
Sc 5.992733929810626 12.689544656229662 4.41767700866468
Sc 8.557453906763525 12.037069886539971 6.197281797990757
Sc 8.157741181559341 10.216484382529192 3.623543854740154
Sc 5.767652256169693 12.78203159498172 7.360715791190319
Sc 10.790667005797722 11.505754149599118 8.11728716013821
Sc 7.886736555479636 11.875868597985418 9.357900425287355
Sc 4.90126320315965 10.221650796717896 3.109258471054329
Sc 3.5744150588302483 11.234172820271114 5.932599220413888
Sc 10.428567051351084 9.433448827741584 5.5672040306223005
Sc 6.195169091008247 10.15403284740188 5.884251975858438
Sc 8.553626945106005 9.46672336357401 7.959559980218704
Sc 10.03433678376531 10.168718395696226 10.621916464530528
Sc 6.72266690057571 7.974801959189768 2.5206164738370664
Sc 5.259551667532178 10.083695616151491 8.786634477623172
Sc 9.52728807400996 7.019507034603651 3.2553474463302763
Sc 11.378529102426533 8.463775861795641 8.44624666065367
Sc 2.384414052247869 9.032980645433707 4.134940065601013
Sc 7.284776424365373 8.717244515068552 10.637135682741551
Sc 10.973295316433774 6.3964441946928075 6.080087432173169
Sc 3.7588520206029385 6.811819368646342 2.4469281180469693
Sc 7.948211421816481 7.489131553358124 5.484856098841328
Sc 4.811858012746353 7.6422515301264955 4.935532782136808
Sc 6.53718878653394 5.197977209872252 2.9691277927854314
Sc 11.905818598429699 5.575732498488633 9.049577131172144
Sc 9.069224673298805 6.275822343603522 8.359488151087369
Sc 5.742941502409904 5.046406910314044 5.836506350982727
Sc 2.1998299758129742 6.300742776816209 5.177509590854804
Sc 5.977325160448383 6.957527855651108 8.253005081224142
Sc 3.119032724084648 8.377988047828264 7.321430183518738
Sc 9.980998302813836 7.117525666783919 11.058592781974719
Sc 4.198993323830299 7.206850460890972 10.323874510400177
Sc 8.655053927582461 4.34982947511388 5.267676029602703
Sc 7.051957533304778 5.725588022536507 11.038171869034286
Sc 6.2800502034107115 2.556196459996916 4.275589211003232
Sc 9.786316329621949 4.050995556408228 10.555817800772878
Sc 3.3066466274135764 5.3311114696842745 7.736710379325782
Sc 3.7147422427815604 4.033262648323353 4.117088437987712
Sc 10.40857595332708 3.3320883746306924 7.527971843042998
Sc 7.330897703177898 3.708585964342338 8.3570953313703
Sc 4.6882079666221665 2.5060862687631427 6.899191619946377
Sc 4.773721722388336 3.9802284734944733 9.877769403556604
Sc 7.8218499389818446 1.4130681954797695 6.618147297050543
Sc 7.1182276442847865 2.683414598884121 11.387780142634536
Sc 8.997210080576307 1.299556158870943 9.425642358806034
Sc 6.005198069345219 1.0601807762350808 9.197688098549493
