41
Energy = -213.00885104 eV
Sc 11.65744728918424 3.8695232423622836 5.921203651130005
Sc 12.25845851310935 6.787854289532872 5.1322636134797
Sc 10.557365205244555 4.809221638868179 3.268167827850188
Sc 11.403661960219855 6.139119096731438 8.087219987006783
Sc 9.801538471422704 3.4922990643051675 8.360081619871696
Sc 8.717142608302987 6.210565764195639 1.366307369859436
Sc 8.783926553440097 3.099458364144611 5.288040763467001
Sc 10.018210279249 8.034594393881699 3.51939520510646
Sc 10.359147357069332 8.992912516506362 6.686170010147409
Sc 7.370141869476576 3.5311737029588546 2.3726260188128014
Sc 9.466544701660267 5.992374046091696 5.776195185091509
Sc 9.615175247551575 5.659115100106811 10.527587379761137
Sc 10.739305207603975 8.501067989990151 9.953784789444581
Sc 6.94375085910582 5.7605596667153085 3.889995812735119
Sc 5.847360727234719 5.925293996610871 1.0564313653990125
Sc 7.357730170951236 4.76708644054437 7.646449916796006
Sc 6.994786486084468 8.41195190728833 2.488876217031568
Sc 7.200755474453944 11.336632616104861 6.317854562796656
Sc 8.416854295940603 7.482158727009604 8.4476879882962
Sc 8.256943769328487 10.380941463109039 9.19371086086798
Sc 7.561583953634616 8.367780686748278 5.591428447010073
Sc 4.345460300834117 4.165083226242991 2.9963458852471807
Sc 8.119621873334587 8.098017993372403 11.379072501801716
Sc 5.537633041519579 12.049854356639175 8.987110202300302
Sc 4.170712655348996 7.10393096461066 3.565219166814617
Sc 6.847507266288338 4.358122891307117 10.64947386788508
Sc 4.41922792061363 4.143087194947744 8.35695287719214
Sc 5.226670392612596 6.5416896072381325 6.495435274328422
Sc 5.124369699221271 9.75466425034228 4.586897792030648
Sc 5.621483633886783 3.445178542284574 5.504575580659277
Sc 5.57083944445018 6.867137839796007 9.757468945708421
Sc 3.9401450279558525 11.549289279932186 6.6185931937010345
Sc 5.639306024951892 9.345880876942406 7.860133234141596
Sc 5.587449631706119 9.683351234985768 11.018050393710524
Sc 2.9107399178610396 5.125769554946009 5.686123239357054
Sc 2.8742368851129223 8.544541696569082 6.205580586942048
Sc 5.778811648469642 6.572717818146885 12.691644625379347
Sc 2.69848405427931 6.73308785759876 8.697307644030293
Sc 3.775439796664885 4.949578216029877 11.217554893651137
Sc 3.0584316356225596 9.88718488338711 9.150044518303474
Sc 3.2138872178639297 7.847641172207926 11.548901426971609
