42
Energy = -216.91915237 eV
Sc 9.3955860349153 1.0426264163230814 5.708888869090782
Sc 8.327655762678887 3.361143417845691 4.129424881781928
Sc 7.574049699877442 4.975307682872153 1.6209107363553859
Sc 6.624626366728531 2.19893438704877 6.27404094172366
Sc 7.955975922757366 7.976288521867116 1.497478266122572
Sc 10.646446053395035 3.819125911780254 5.991624870389199
Sc 5.520614614626049 4.356567357353028 3.8378125261313984
Sc 9.770511904718102 5.842543566558248 3.5272491485037545
Sc 8.905728756199913 2.72501323645698 8.170948295175831
Sc 3.934584479824852 7.076297546223077 4.423547204657761
Sc 5.2446112923509896 6.778624310476718 1.7030479202723523
Sc 4.7368908040915665 4.585578014401089 6.698576171201653
Sc 7.834768365329515 5.19918543221419 6.660000415821214
Sc 5.792620562808031 9.45497456492684 3.2107446954244314
Sc 7.037649894896958 6.966072503494123 4.185205209225422
Sc 6.266871180557098 3.781826623691445 9.176406905546346
Sc 10.172607579823099 5.40022490962823 8.895438327244104
Sc 10.498496329419043 6.94786222283195 6.246278050297023
Sc 9.595789730586095 8.8461710201753 3.9063504195003493
Sc 2.2439063824170447 6.4954246381420075 6.939616079769097
Sc 8.569495043596385 4.073329392005443 11.079749921418529
Sc 6.200434418369068 5.59341892691419 12.050881367110392
Sc 7.336289090659393 6.819744280138521 9.477053151121194
Sc 5.198184554529253 7.457740853223473 7.052378364298663
Sc 8.322973291792643 5.103617420403927 14.060474219245378
Sc 10.756315749345847 10.263211170771534 6.361558917287869
Sc 8.157563638676606 11.233573156296853 4.9253942173640075
Sc 8.131210203125956 8.730234232928279 6.710674189116699
Sc 9.291110604116852 6.8472026422066135 11.856747145783713
Sc 10.111473812997522 8.45104463609828 9.050975785947907
Sc 5.433063775677723 10.279558739878661 6.0098439455296795
Sc 4.163847603313652 5.954796652996969 9.499121516744161
Sc 2.648912230409615 9.424740847930826 5.946802188956091
Sc 5.131324265638653 8.389896899863986 11.2470771361787
Sc 7.154502644687165 7.856878362088539 13.669415736352507
Sc 6.087204444770271 9.903906651082712 8.842157743136404
Sc 9.736773016461427 13.229282787130236 6.528557644357568
Sc 7.988970702380502 9.47208734989155 11.146287198313603
Sc 8.89638004591571 11.14530696689962 8.487837663782747
Sc 6.746799264685036 12.650191142311003 7.214028956063969
Sc 3.0967303023984813 8.705597408721776 8.78959061448346
Sc 3.6949615668784905 11.525702918863265 8.101444849019535
