46
Energy = -242.04642956 eV
Sc 8.3419359773126 1.2006559562574999 7.009082850484417
Sc 9.655174286851029 11.266410608584122 5.840634108403875
Sc 10.51100689134335 3.3464476157964964 6.960948578193462
Sc 3.3956862908687935 11.38739326003784 4.421452661040226
Sc 2.420279016554196 8.570000691217757 5.625525989951199
Sc 6.24643786923666 1.5743359968471227 4.951504201697111
Sc 7.6985690446510535 6.658425246732487 4.982649474492726
Sc 4.045335187393876 10.750478292945466 7.380080428846713
Sc 3.1880535897534683 8.866815343488613 2.7010692370318163
Sc 5.498862674164161 10.721098158794232 2.4159822453948356
Sc 6.768964316975021 7.727362136675575 12.355275577305358
Sc 3.4831605654892663 6.027523317003256 3.911539453809873
Sc 5.897842260829331 7.4217950337982295 2.5044888186671628
Sc 8.389317747764007 7.866365567846755 9.76209717684882
Sc 3.777528795134665 4.703813057947836 8.85918983573617
Sc 1.9182553957064006 5.646802685440501 6.531702861648438
Sc 7.310911452619405 3.917322878136522 6.387103048717405
Sc 6.470104207090083 11.787538637519761 5.228590707329736
Sc 5.306370355044769 9.110955930596145 5.030667908750161
Sc 4.648950100715712 6.858120410757764 10.653031420197905
Sc 4.8616499622402936 6.426598527387003 6.53344234673954
Sc 11.341407844019319 8.87675210400302 7.096849564633353
Sc 12.474040862362573 6.016507065113388 7.155780792663155
Sc 5.838140546370519 8.657161398668782 8.442994450883804
Sc 4.419947189255886 9.872008555080642 10.620758201179765
Sc 11.427165396588366 7.618610629477848 9.764033481643349
Sc 4.129838072895996 3.618375691885265 5.944166662459717
Sc 6.837096479454817 5.414826650482476 8.885550715799685
Sc 8.901164448135924 5.602957439673408 11.525744682917875
Sc 5.770429177087307 2.3673411069730497 8.390457107781089
Sc 6.171746218498634 4.393399077001199 3.4856676485282816
Sc 2.910418979435197 7.905707987451366 8.553938167230887
Sc 9.836197682092967 10.421691645309034 9.140638411888446
Sc 10.472945697982528 8.137595189526408 4.421906945705749
Sc 10.607956257546517 5.277224759680051 4.738653806685956
Sc 8.876673894388276 2.9244373544799114 4.156976475721082
Sc 7.087577294784612 11.533521440383582 8.176072720673089
Sc 7.369107904640837 10.351900111966152 10.918785024061224
Sc 8.809277301637113 6.0643842431056285 2.457716175889324
Sc 8.04439422992885 9.56258956092568 3.5368546065335558
Sc 9.647414976092097 8.652537283868398 12.128820319172545
Sc 6.06879837107061 4.258837359627307 11.346244006911931
Sc 8.231659485765036 9.095801321554006 6.689867076588949
Sc 11.001492443639156 4.7169841853959955 9.598509822320796
Sc 9.631815008218666 6.276976609415745 7.4733408360785
Sc 8.534795736364906 3.021048102647891 9.540262634812795
