45
Energy = -234.84017542 eV
Sc 10.440418865311102 3.815565901065316 9.36223070875159
Sc 8.526963183361785 3.7833046354535433 6.796787757248517
Sc 8.523046115949791 1.4433751835057005 9.009694425081374
Sc 8.812531599964977 2.710311546714232 11.798236349219266
Sc 6.108519753154284 3.496223739002295 4.733594995097329
Sc 9.485147500274104 6.49334577899637 8.408680980273633
Sc 6.0796787537907795 1.7445438919908123 10.849255815622328
Sc 9.08598875707556 5.794791947028741 11.615035532363697
Sc 8.957738160162354 4.52926641712468 3.907510258595831
Sc 8.399419287396757 7.210149461673625 5.757734326052596
Sc 5.782154501247967 2.310924793793481 7.722733091971689
Sc 4.549029449833746 6.501038921316934 11.207920803589857
Sc 7.0425019242042 10.377871607393178 10.37704708122957
Sc 3.3850958406095857 6.761370871535081 8.424910540254386
Sc 3.50507211373371 4.106434630076432 6.604127485090825
Sc 4.202261622413646 3.941436546243742 9.755102843042872
Sc 3.719235660680987 4.634325276582337 3.569540951057307
Sc 8.727139196972677 9.513557690669542 7.935685430379082
Sc 3.9740208275509805 7.203565976307394 2.081750168947719
Sc 6.354242239770723 4.547443552637583 12.454465595975316
Sc 4.304664915925074 9.236656913703467 10.098801598718016
Sc 6.004608005095248 5.610173904026502 7.062629390010327
Sc 5.764044387206763 8.835357864661413 7.345947787117583
Sc 6.064803030036271 4.511435596479223 1.5952197030727278
Sc 2.8324461246120993 9.460319734840583 3.864988249210649
Sc 3.888324040222862 7.083607124176131 5.370615696898874
Sc 6.365741110551443 7.348461133833059 0.37143132119315203
Sc 5.128773304045378 9.925527254483717 1.8244297484798015
Sc 2.9668833772232595 9.678131674379776 7.026083431163479
Sc 7.306025337902372 4.17894550752912 9.645391042500828
Sc 6.9912490393001425 7.372562099103955 9.713054557689187
Sc 8.780393797405448 6.007850614285562 1.3482152348990282
Sc 6.895743851433296 7.962701346744471 12.527534246336241
Sc 6.456864307874557 6.384441453386328 3.584095827136642
Sc 6.178076482986202 9.276288329388999 4.496366184759399
Sc 4.530201465166113 11.56840296900625 5.223746386521148
Sc 11.091424686332733 5.298880136336815 6.081932707968093
Sc 5.0514715840967295 11.608172308332527 8.33727444956646
Sc 8.16343408441941 8.891033658215349 2.236989738505052
Sc 7.0782974940014585 11.778799767312762 3.2820223635947063
Sc 9.533542458286187 8.666389644720145 10.764504617479957
Sc 11.263413451762847 8.240186766911284 6.639280727567408
Sc 10.523903457569675 7.305577505720812 3.673723028424327
Sc 9.36424907925524 10.015050342963841 4.852926335074962
Sc 7.252565155709442 11.629589081425355 6.326664615145993
