49
Energy = -256.75225171 eV
Sc 11.177363346465883 4.914358568874893 10.676081632800043
Sc 8.761137066329145 3.779673413536717 12.233039289165044
Sc 9.268971736199276 6.926669989566639 12.241438699364423
Sc 9.386117148113492 10.102179388943368 11.23891901109282
Sc 6.957556509156341 8.897169098794512 12.870557295365005
Sc 12.929365501237802 6.827839941620633 7.848991903198055
Sc 9.281495304375708 2.4787619516058568 9.477116216093778
Sc 6.306442287129612 5.797101359764039 12.30581346979147
Sc 11.154941079051088 10.222499060067827 7.994863801419118
Sc 10.611727404066547 5.036765243130987 7.723306377421707
Sc 10.38804916971155 7.688711512319971 9.365164246884571
Sc 6.350590180398464 3.004508169397642 10.377401693509764
Sc 8.261418725271929 5.266580864298375 9.719519259782958
Sc 6.280511653944262 11.087811642603176 10.915130669473532
Sc 6.91075848590395 7.825174848404836 10.171325490757367
Sc 9.081821483835277 12.481050732868008 7.743649241376956
Sc 11.112728005523557 8.003851236546206 5.860085757531989
Sc 11.82522952972433 5.2690778422924955 5.068900706676727
Sc 8.101933195577924 9.90693979728223 8.6064561052354
Sc 4.181286766187327 8.553876020321137 11.323057691250247
Sc 10.816652700730552 11.748202418199494 5.152791955433464
Sc 9.284340501593318 2.8259637084002245 6.402509855782167
Sc 8.421963284593728 7.153060024723166 7.168247542969929
Sc 4.605383185140841 5.758507810075643 9.656262189460897
Sc 6.64952712748252 1.4370521502183888 7.44026385437392
Sc 5.032589066951037 9.726241541954643 8.749165885979679
Sc 8.975932077375951 9.949584872138 5.848119580349342
Sc 8.768193943120503 5.324946394639375 4.8494854404217005
Sc 3.0820351594671225 11.300442618660671 9.69535891239314
Sc 6.63319746555527 4.322381133235884 7.202609009504864
Sc 9.825777499797427 7.610375956030237 3.0439104252597424
Sc 4.095736749727787 3.0408094071234597 8.324018556347426
Sc 5.851712390701338 12.36268482328707 7.909457652450813
Sc 2.6864668879597726 8.225153207520576 8.216861559870544
Sc 7.540419775043594 12.505471599305825 5.084174787458081
Sc 7.154879363886898 2.69630985210293 4.355360658388777
Sc 8.611605930095614 10.626788817229059 2.9833417280757955
Sc 5.419241150798442 7.141392395089346 7.124441735327279
Sc 7.06995722155591 7.901993359479669 4.18244717275483
Sc 4.3996873963876855 2.578552616791772 5.465995080582912
Sc 3.156746170798691 5.332616216928318 6.60145909176444
Sc 6.050937584033026 9.989178565238841 6.056284907285555
Sc 3.362858602513051 10.977617879665823 6.563163445744771
Sc 7.485699555758848 5.629830526950557 2.1078727113392732
Sc 5.481185379744728 5.302114047750522 4.498634682091197
Sc 7.368367093720536 8.56502875495301 1.2317828022281445
Sc 5.413817347321604 10.343721065784914 3.18042259083695
Sc 3.6533044142880726 8.21286534260055 5.02779511297782
Sc 4.816121990521361 7.363118947984661 2.1899066694311617
