43
Energy = -223.12090655 eV
Sc 4.162236687457342 3.9794197143753958 11.42717060210106
Sc 6.558133947030231 5.737048958508174 11.064700725564547
Sc 6.997151597034346 2.79286852507729 11.401553280496238
Sc 3.599208790994648 6.956523144112166 10.484487324607384
Sc 5.703926303908604 3.5113102591862595 8.868380109552618
Sc 2.9627320330413536 4.643134687137409 8.745631689151141
Sc 9.364912189478062 7.4653732746692505 10.659067095382625
Sc 6.3569508506264425 8.781408711306332 10.427419043282963
Sc 8.740921823343317 2.3911006235677283 8.729637852116102
Sc 9.614543111038067 4.299399236013293 10.932509679281974
Sc 11.827581157340155 9.154265530888567 10.127834388450632
Sc 5.499859042418179 6.7381910272176055 8.250302224935465
Sc 9.130868442795874 10.457198727532582 10.205425823419091
Sc 3.9076058207324484 9.653977098123665 8.70565358454615
Sc 12.090744892339032 6.1911877305706495 10.494982193140359
Sc 10.307616020275667 2.529672678880938 5.9287863133236
Sc 2.7451291217603826 7.269556343095273 7.287540938272494
Sc 8.226094304261824 5.339306278925299 8.561443674407059
Sc 4.506377537512258 4.801632763123069 6.04042020636631
Sc 7.234639824495133 3.1763897212903536 6.006905666422037
Sc 11.099960764491641 4.235502272222447 8.234618365661927
Sc 3.7681699053477558 7.319728927495786 4.46101014993432
Sc 8.194960553075886 8.59117961728593 7.877144831660932
Sc 11.070261665968475 7.252814703042862 7.8707455531802655
Sc 6.624809083133371 11.412722193025296 8.707695436015165
Sc 6.304376555989062 4.617908103094278 3.452797347115042
Sc 9.251413927586263 5.368427355694219 5.847112940091947
Sc 5.530873609344245 9.52984388837456 6.155912842245042
Sc 9.340208685667355 12.764121367307038 8.355956056046393
Sc 4.250231731579217 12.266988006988166 6.90714146433422
Sc 6.827315283499868 6.926019060026798 5.210317185313435
Sc 10.820833815426832 10.301743363030324 7.5628807527113455
Sc 9.257549871717448 3.555886894592831 3.510483393621807
Sc 2.6508870934272752 10.013515979177889 5.746328421936762
Sc 11.675821311564937 5.230081200425217 4.861948055298106
Sc 6.916768533983281 13.728419854310317 6.844369204415118
Sc 9.827171183633101 8.31492874026593 5.178898983792921
Sc 8.302045340419095 11.20811196390337 5.999197297793737
Sc 4.509708844070034 9.908771600063794 3.3226303115229388
Sc 8.765928728576581 6.492624988294038 2.959625516241798
Sc 5.836757718756637 7.281684778724254 2.2700238561138604
Sc 5.859820715115257 12.24773038884786 4.409106736811058
Sc 7.471733144940061 9.488561274002798 3.5204881447934784
