48
Energy = -252.38067932 eV
Sc 12.275258352140622 4.403859775419759 7.711016940630006
Sc 11.780210585205632 4.079986658172227 4.624288327303766
Sc 9.878640793380784 2.705604994551404 6.236800592993889
Sc 10.328902554255302 5.962498115262238 9.829868602607071
Sc 12.513874705423058 6.9707405190127405 5.1752905888979965
Sc 11.882174887591637 7.8712819050519025 8.154902716297984
Sc 9.057391282312297 3.467085913101879 9.023029773323403
Sc 10.447229953583582 8.795596790786954 10.926192124491658
Sc 10.155015264708396 5.688645550385405 6.673495335970126
Sc 7.94691545508184 5.066226800633222 11.371389004740381
Sc 12.417797967711804 9.847418556636436 5.985199095204261
Sc 9.003207788292082 3.1628202677581387 3.4413110324542266
Sc 10.037436301884851 6.1818428790713345 3.3582771303365218
Sc 10.67577175460044 9.514000670066293 3.3428885344276873
Sc 6.950093966444967 2.7390906971684723 6.976493142151582
Sc 9.678338794351557 8.416055828326828 5.614371328664733
Sc 11.056837678637756 10.961023614244263 8.744678644932447
Sc 7.5368859936065915 5.996178321831794 8.36268182142778
Sc 5.6901550222897255 3.8443813954351382 9.567989595567163
Sc 8.880996668681473 9.037905201273515 8.41556694034681
Sc 7.389814106048111 7.965520674640219 10.91751714711591
Sc 7.658016092710467 5.240022165243804 5.151769393954985
Sc 7.072403947325997 5.109185543273277 2.1941936231920995
Sc 10.09278829012968 11.367734006956121 5.93498045117828
Sc 8.329780981072412 10.979378740307542 10.690970764822438
Sc 7.579039887783524 8.068831978482672 3.348274346584809
Sc 4.89300013426328 6.001429740294568 11.664249989473703
Sc 3.6564663899971355 2.481239482945163 6.772637186593519
Sc 7.7598803962798915 11.808164979539702 7.654972610124126
Sc 4.842391614127231 7.340722917550411 9.166664833399114
Sc 7.3922671627613346 10.741093529125406 4.793944422744599
Sc 6.545890679284878 8.360721003396305 6.388122663622734
Sc 4.939073466600305 6.390767772655793 3.9447716792581122
Sc 4.816085410962313 4.9480343028164775 6.669818256931225
Sc 2.8273679888807965 5.02627966299767 9.176556175642585
Sc 5.839784212960956 3.027934241209641 4.270206877483767
Sc 5.968452502281826 10.005633616937672 9.072129819728733
Sc 4.709785985776971 9.221845742876049 11.696768389480612
Sc 2.2755315685456727 7.546543987415165 10.83734528745988
Sc 3.660191539571421 7.8272034359191265 6.428080239540807
Sc 1.7696008806687868 4.98347595814122 6.391269711397281
Sc 4.656272455302577 10.942480151881933 6.495453889065547
Sc 3.044913985690908 4.087136464314216 4.016279771395544
Sc 4.477556734627312 9.394943877460074 3.9546765644280435
Sc 2.8885992830172214 9.79156201779927 8.815402997257763
Sc 1.1473141322255085 7.474709955205219 7.907106987115322
Sc 1.8849726484938147 7.049149039825804 4.198516206772863
Sc 1.7880147947106644 9.850050493039522 5.799851269062836
