45
Energy = -237.35624889 eV
Sc 3.7892586464169984 4.740336124417616 10.758654423837651
Sc 6.754002188307449 5.4041456092910405 11.57336946795915
Sc 2.563882214496515 6.96963946941386 8.954565446662222
Sc 4.719473578007127 7.844269206486588 11.0660751541211
Sc 7.643633470684541 8.587474993393013 11.742153841351925
Sc 3.4419866181722067 4.253169345028259 7.74247650236766
Sc 5.8576873133668865 11.228811962118481 10.440560317939639
Sc 3.5993683613434637 9.751915468976177 9.042291761907018
Sc 2.0871394449662803 9.552015077890566 6.3469114801866855
Sc 9.061748424398052 3.7081414474183534 10.085991518234499
Sc 6.1383433590318885 3.12204255901261 9.360560687954907
Sc 2.040375166562304 6.445944988107074 6.010786992568075
Sc 5.548984233506612 6.010235531553009 8.797377440711724
Sc 8.673593447404029 6.550141802030931 9.603582194675868
Sc 4.417738346150251 11.660810118715531 7.098308766820391
Sc 6.692602645439957 8.966469593983922 8.891371503242611
Sc 9.026450101224839 10.869578722401066 9.76976063025655
Sc 5.763655398095781 2.7439482225779037 6.4584454097833115
Sc 7.173460135260462 11.824803624535333 7.726135050958203
Sc 4.461997234534343 7.937346644012649 6.711941901645885
Sc 9.788860009494082 6.008766772148567 12.212217903939653
Sc 10.811163812451293 4.291010697292177 7.763345604787144
Sc 10.528789139628126 8.669904833501507 11.036008435036191
Sc 8.701708548681541 2.0995181186989775 7.0572767474965366
Sc 7.900393053073987 4.727824313807282 7.148535215811662
Sc 4.143083100613818 4.583994310594274 4.6418469895542716
Sc 9.886603166569483 8.603734225721494 8.002720847377581
Sc 6.4178296627153495 6.4185695552166315 4.9479302166964985
Sc 9.76183061137455 11.208408446881965 6.521701059484218
Sc 9.56273069239907 6.9627635563727575 5.6660114000923105
Sc 3.7377426474872864 7.523662921644739 3.7357118898775465
Sc 4.592115794382198 10.217710934289666 4.652017243118084
Sc 11.706279465110583 6.3491654875040915 9.77755138230955
Sc 7.363063329912564 9.277522983770604 5.9317916328257185
Sc 7.317882049580172 3.674881028326266 4.128472364798966
Sc 12.308662037724568 9.576482922164324 8.650050995798686
Sc 10.24574952196783 4.255750297525008 4.850160683693827
Sc 7.164509020058321 11.833044133205465 4.652137596048995
Sc 8.709953057651626 6.315094371156784 2.8858091418088514
Sc 5.711466892012772 5.642170296472347 2.218094801502234
Sc 11.755643460705242 9.234480468040989 5.607524456065413
Sc 6.546423906074738 8.701424990653942 2.955718894058592
Sc 12.384586556817483 6.658748970001443 6.760945068496753
Sc 11.702262821107201 6.894031428194185 3.728704503420348
Sc 9.450495649229246 9.423073557785553 3.7406638934937892
