44
Energy = -229.96479875 eV
Sc 13.148386310306803 5.8045458641037415 9.41400863895207
Sc 13.182826269170302 8.796937030280809 9.117325697775277
Sc 13.409254141258623 7.0066201582247425 6.6823240411732865
Sc 11.120710771907868 7.529101418296677 11.131789231881452
Sc 11.444346731659312 4.6083267535354135 6.8473759482507175
Sc 11.77489335786186 9.637403996152658 6.400886846376359
Sc 10.438839313898967 4.566884984652961 9.979916634625573
Sc 10.495414568437273 10.332379386544694 9.192204345637442
Sc 10.735577747195844 7.166965898286043 8.254049971360876
Sc 11.043965403829123 7.016391638678911 4.751925524118647
Sc 8.327574909644287 5.931089317136322 11.80869909120086
Sc 8.899100059804626 3.06651587029573 7.597954667289085
Sc 9.564192171385903 3.990976323213749 4.163113120566637
Sc 9.516434458194086 11.750106529741606 6.540015414351005
Sc 8.317574030285614 8.617491928846452 10.32045943019173
Sc 7.7766231103899175 3.1794388830654747 10.679811506241974
Sc 9.357016893226028 9.71499719617547 4.145636620223915
Sc 8.597800540101522 5.77848628621659 5.988622944455466
Sc 7.8192611457146795 5.612164472856586 8.938865617267714
Sc 5.742369372799482 7.6592932883216305 11.625627749182206
Sc 8.72253370947509 8.930376404831955 6.9851195156842065
Sc 8.40758867678021 7.041525266457109 3.108795868184032
Sc 5.905981190219988 8.16788555307177 8.484196287873614
Sc 6.402673126785708 8.175915596169334 5.201780064199362
Sc 5.8701196218271186 3.008456343856912 8.299247174017689
Sc 7.170539652516667 11.013936729771741 8.515971936229036
Sc 6.7767767813832585 11.097300961950305 5.346394161408608
Sc 6.58060496910415 9.517832681604713 2.5987401719255594
Sc 5.280712485951639 5.003787937024827 10.379595010488858
Sc 5.708765069889601 5.582828774408744 6.650023234794628
Sc 6.5998559503906415 4.84878810325109 3.496886945504255
Sc 4.506732818163064 10.040207447581729 10.194994474993127
Sc 6.749273167119218 2.9463218156016557 5.497920770657368
Sc 4.2655681523959155 10.572014488792174 7.1522856555173
Sc 3.9157021880140763 9.662992550619826 4.116282134100931
Sc 4.748172324216007 7.017313505220755 2.99070957645557
Sc 3.4644223367868165 7.6258927223368875 6.552947482262588
Sc 3.1786773542760933 4.754290187046267 7.970600165500707
Sc 3.263487395871237 7.213846758607375 9.813605760762307
Sc 3.6911845187149197 4.6488794041952355 4.878082094020747
Sc 1.8465052416600796 9.432977536287774 8.655550446706732
Sc 1.3204407885343477 9.613890472382899 5.814871032941093
Sc 1.8166739249403843 7.170449452909546 4.171037968267395
Sc 0.8154137349577207 6.887265459657765 7.179565359731252
