48
Energy = -252.0035159 eV
Sc 9.881685156199223 9.969934285763756 3.6221377982622274
Sc 9.990615296328647 7.393530777050128 1.8909773402304049
Sc 7.663757641386997 10.2175851106589 1.3839368421906721
Sc 12.074355770473167 8.020695931508934 3.848783254558887
Sc 8.994671308390798 9.711696209951342 6.832550222647065
Sc 11.080320320239226 5.06518964660398 4.115173762517303
Sc 7.206186603988526 10.900158781862 4.393801723254024
Sc 11.991953523815072 7.156386978504259 6.719374320379208
Sc 11.843859906336997 10.16729834165356 6.067722461553582
Sc 7.215976420727689 12.395333079373199 7.2904906360713495
Sc 10.126988645015688 12.027199394009026 8.39125772473012
Sc 7.456468837171851 8.027850716945702 3.0977177840258747
Sc 6.359287256596612 8.302761211022123 5.753926271682414
Sc 8.074340435489878 5.03459726180078 3.134755660586958
Sc 4.925494231369109 9.443484143311311 3.191796569215213
Sc 11.830746857016862 6.0560819022665475 9.597314847605645
Sc 9.394425943680584 7.165499888296806 5.128731987162629
Sc 6.237963587740185 9.922171255387603 8.519116761717024
Sc 11.613387854079498 9.196361226802752 8.918148823579024
Sc 4.647518079515862 10.88577674463207 6.128220054108348
Sc 9.004569607822821 9.870026532474323 10.001040365824306
Sc 10.12556170141882 4.716275450298084 7.239711590119094
Sc 7.304837053177025 12.150576689071888 10.392692940630756
Sc 4.651496452242551 12.35820808006413 8.942297184465527
Sc 5.141283217921694 6.175817524696649 3.8023763599400664
Sc 8.843052453139885 2.8693986562060823 5.030478170420742
Sc 9.139266976782716 7.132793165425818 8.712696428083127
Sc 7.822303474218049 9.598269603074506 12.670759393532242
Sc 7.0014034502506455 5.090250952941093 6.062033157687884
Sc 10.524055813350676 7.927478723082154 11.578591921110638
Sc 3.3051430528742634 8.00752151450022 5.72460291543169
Sc 4.96829164946914 10.153984371566876 11.28326804307279
Sc 5.832010405223255 2.959279643550392 4.328031293638315
Sc 9.353329786961625 4.62313586032708 10.56442446634623
Sc 4.86680020946712 6.955394916408046 8.073302839712538
Sc 6.637895799800733 7.67989622661458 10.60830563055386
Sc 3.217921787993766 9.456465213593495 8.604606834354131
Sc 8.306720792398245 2.3958259874475707 7.966195281317831
Sc 3.75722909418212 4.890172440816492 6.205833365903698
Sc 8.257778002693101 6.516396450906722 12.654694820638221
Sc 7.00812684563875 0.5692112325952998 5.855387031360887
Sc 6.89110953050406 4.855670414810907 9.029774343070214
Sc 5.571841550808179 7.687662156285646 13.35039129171796
Sc 5.464333699808463 2.685401235307863 7.358991540826465
Sc 3.621347417086213 7.20901398313513 10.842122129392932
Sc 1.9539134449173086 6.5921700812650075 8.203517914944083
Sc 3.8090978700711555 4.4852644920684055 9.37950932858073
Sc 5.838921995996358 4.981317738298331 11.798722474011068
