42
Energy = -218.20724939 eV
Sc 11.658905590851536 8.519089689066472 7.058960925500307
Sc 11.93756668853936 5.397030381432973 4.604876708666615
Sc 10.862944809846764 2.9378782404956905 6.073684546415335
Sc 10.01885974128417 5.922205536222253 7.131633059102992
Sc 10.450554236569133 7.322351589610269 9.739039700070682
Sc 10.194892811493272 4.16847008604603 9.495601028501632
Sc 10.55450323852767 3.028728305926946 2.9391974305204194
Sc 10.232258880000836 10.310420501925469 9.058429312607162
Sc 10.213956667658262 7.89953516764597 4.419220247024497
Sc 9.883821445648422 11.026684848616709 6.102516456637848
Sc 8.31883082648061 1.879358173646079 4.567047535989748
Sc 8.186187927593132 3.0468837086658573 7.410076425707951
Sc 10.124919604929756 5.838911933565251 2.0958005040408505
Sc 8.917440358283693 4.899831513247142 4.694188482024543
Sc 8.27895466387062 5.920207851268349 11.534064730875855
Sc 8.573404209545606 8.673655311653379 7.106101380609356
Sc 7.615406989865198 8.586775560949054 9.956290610487008
Sc 7.325303093451905 5.596545585105645 8.676621272417618
Sc 7.542924268506927 3.0871614806454204 10.452922034091598
Sc 7.498646804409469 11.360055108550151 8.25746338032375
Sc 7.383348820706281 4.027409124316075 2.4399303879299152
Sc 5.686923792493225 7.8716624347152235 12.08591470271855
Sc 7.398264999902228 7.074910898169144 2.7846641651011463
Sc 5.375454537235188 5.089646092403258 11.16791742322619
Sc 5.277615618071046 9.4955818293821 6.903576698790229
Sc 5.1690075736726575 3.438055144466632 8.52105987840051
Sc 7.909408097867807 9.611138289044977 4.21834972525194
Sc 4.6180323265895895 12.360633407174115 7.8067808241451795
Sc 6.50167924080976 6.84017880215409 5.7842957440338525
Sc 6.015758357964434 3.8356424176840953 5.3767378345191235
Sc 6.445593416052329 11.820498278989469 5.403295071515966
Sc 4.958572651338266 10.290009801399645 10.161672128064275
Sc 4.823350808588711 7.376927867313347 9.048217792124625
Sc 5.109571095572211 9.123461354126158 3.8105031004725176
Sc 2.825153098558409 7.9854121454999545 10.937075849563259
Sc 4.679558874854756 5.976497479097808 3.68629157514672
Sc 2.7892415889839466 5.119935803269061 9.729191679643364
Sc 3.325752909800805 11.201930229188724 5.345619476835184
Sc 3.7547925874156927 5.56965953616888 6.77998865024929
Sc 2.8365622896006997 8.183450318821578 5.500741925161882
Sc 2.575484199628601 10.165247927017893 8.213744049416725
Sc 1.7499446231720195 7.383581652881381 8.21330170045253
