47
Energy = -248.37978909 eV
Sc 1.8321822984353278 6.560192165705778 8.633500549394212
Sc 1.7494758639390164 7.322688897691149 5.745144083579434
Sc 1.7823228368763784 4.429752376178066 6.635563079288219
Sc 3.891066973982008 8.632881798162398 9.776402911319082
Sc 5.51281423603464 11.09714966229944 8.306884385035389
Sc 4.032893305596871 9.100297135087079 6.684296759202175
Sc 5.034159820017777 11.522331974294183 5.002773869698495
Sc 3.8053287211166102 3.551793937915975 8.921508606715536
Sc 7.347573073870312 12.842320712828672 6.773082244779456
Sc 3.782263403374435 5.801016019006761 10.788253445258693
Sc 3.508448372538473 5.579310894424384 4.1054324048666535
Sc 6.210536970871206 10.321754270108341 11.044977422700107
Sc 4.281603677129637 6.031107696395504 7.1843408146117635
Sc 6.1697196096452585 7.3042971692804075 11.680988602626334
Sc 3.6280526924894176 8.758702271027675 3.6897452122074013
Sc 4.647459099200172 3.180827783707009 5.899347433926267
Sc 6.540452952470405 8.130188895566608 8.582386184552666
Sc 8.48820988255093 11.580410866767211 9.319484798205279
Sc 7.852093446982386 12.213077525471084 3.960830620671747
Sc 6.52335583234766 9.598632185433956 2.8920386325576013
Sc 5.962629559769787 3.7193935175490953 11.591596784210195
Sc 10.006152856324782 11.51921800493656 6.428369532239726
Sc 7.331539115818386 9.947953241214986 5.842302018259839
Sc 6.394278268619352 5.205403383830151 9.377326389207767
Sc 5.214700617106884 6.936755768592578 1.8805046766938975
Sc 9.339970170382752 9.059724567548201 8.017895278908286
Sc 5.988605329489827 7.236911359988064 4.751308513429549
Sc 6.6252864013273465 2.336322516182787 8.174668991234732
Sc 8.819203147369295 8.857083426350863 10.938157386272268
Sc 9.224025301843387 6.018957172278961 8.567371442024765
Sc 9.67309263268929 9.591139538697796 3.791605194683534
Sc 7.520213873608016 2.050107404684174 5.212221285457182
Sc 6.372828063625458 4.468118607619786 3.465738253879925
Sc 7.1938723613573305 4.755019545909581 6.384247452067998
Sc 8.809380435767958 5.714652862173246 11.574554943597446
Sc 9.10621514621342 7.205274006403801 5.585404191712773
Sc 11.432905363783563 10.233279973781713 9.435404543408984
Sc 8.705580528223457 3.238640054297613 10.110905806711434
Sc 8.29835929607399 6.9214289374482245 2.6717036340729066
Sc 11.678214052143167 8.8401987583572 6.065399671206878
Sc 9.47545788284532 4.4460962767989125 4.344890155084031
Sc 11.381877926819945 7.452686675977606 11.296884426805027
Sc 9.618975050204448 3.162118226206812 7.272853883366316
Sc 11.417222189268585 4.669755957546906 9.813069555106836
Sc 11.312712181171824 6.931952461454673 3.626005494518078
Sc 12.035858315474979 7.4001945760499215 8.603556950915772
Sc 11.509303990465618 5.551454196070104 6.425476214732272
