48
Energy = -252.77876612 eV
Sc 2.8712315861456563 6.770228839356906 3.135831891278403
Sc 2.5690585181098475 6.843132759313172 6.130514083836616
Sc 4.254678301994639 9.03851829663846 4.771331346927932
Sc 2.310690157234143 4.114231383139879 4.309705959463111
Sc 5.723903932053654 7.318805813755822 2.3951589184578648
Sc 4.4887917365648065 4.4168899690980705 2.232016193404945
Sc 6.904852907254454 10.115241411161465 3.5321780484517857
Sc 5.481006533809898 11.22639532698968 6.387136486611316
Sc 4.8913456037287455 5.341131563990548 5.1497602405334035
Sc 3.0370228314349235 9.59668478899205 7.869955014155101
Sc 8.017983703081121 12.706565924952065 4.91494574758261
Sc 3.2579281959727235 3.6963954171381253 7.260710088150922
Sc 8.830529551245558 7.671614910823231 2.836203230136456
Sc 7.000298228640068 7.43585686448232 5.170569316474128
Sc 5.017929530292821 2.506821555779048 4.6197097390534845
Sc 7.83397201029831 12.442000619407453 7.887623507607486
Sc 7.365681941684036 4.885266874554258 3.359336327155135
Sc 10.118580643519762 10.421864754667773 3.8597084090331726
Sc 5.864160386444655 10.823840819240852 9.432056773480133
Sc 3.0219232874067803 6.468836859493433 8.907056121568194
Sc 8.206760021754828 10.088795346270452 6.237704479058368
Sc 4.414092998017411 8.512392267262051 10.726917260852895
Sc 5.395453524759909 8.17878172545836 7.665346740182913
Sc 5.768762249341953 5.082651528763884 8.1959808549007
Sc 10.520884956303965 12.04198616443288 6.563997564409065
Sc 5.738059675918088 1.9850862145049073 7.564159620381038
Sc 9.394685142102611 11.342479035515838 10.078573760446188
Sc 5.775202901572247 7.0570498742424235 13.311353237493767
Sc 6.819186878328836 6.697817836598808 10.546339777472552
Sc 8.632246449949303 6.121132839250183 7.445819927065065
Sc 4.77866878965191 2.9977460188197913 10.080567132657999
Sc 8.188834407862153 8.829569360747628 8.897005595189588
Sc 10.21518743618941 7.951235092647152 5.630272612013487
Sc 7.392744475482238 9.423852970378034 11.84417434751338
Sc 11.929089504169147 7.676276796672208 3.3099158393310364
Sc 7.745963508584993 3.5895847680319086 6.046909186808035
Sc 4.214499716995295 5.518476806245811 11.35196196341654
Sc 10.22741424339482 5.197750724506873 4.6015947302580225
Sc 11.023413714821642 9.691691447310525 8.19360658520281
Sc 7.866697096123102 3.2654179725432275 9.257891408393835
Sc 12.63681481217182 9.56707870794761 5.613921347055426
Sc 8.678053163287922 6.7450204774946405 12.964605404338965
Sc 10.270806994600768 8.456416618030248 10.935912893813557
Sc 9.622252890397068 5.412998486086659 10.366991388582104
Sc 6.9411071745367945 4.2839645733327565 12.14273421686656
Sc 10.73032371531096 4.112298106004784 7.4990372230522935
Sc 11.484637869052198 6.869733457228845 8.521002669642243
Sc 12.728918287492176 6.357143905102101 5.8579064152749885
