49
Energy = -256.92103987 eV
Sc 1.6662999087238228 7.104982112555012 7.8176515002158595
Sc 3.231879873479024 6.6798507381024805 10.31999957678765
Sc 2.2807309385075785 4.085869603510056 9.438195336807086
Sc 1.924895512852074 4.449900907370081 6.37488905712379
Sc 3.571747445117294 9.032155078878597 3.0695981523894558
Sc 4.146509791350205 8.94974477845004 8.455027065590405
Sc 4.557198847359845 4.585598093229697 11.997383886968084
Sc 3.8988539106878437 2.3122980948123217 7.180043017096304
Sc 3.3852720345071106 6.938919285630881 5.195355157439713
Sc 2.6259578380471553 9.85073208929701 5.844253808096605
Sc 4.864798961457473 2.655885687486857 9.852498339620375
Sc 4.342327041883924 5.696816932989475 7.7360229944204795
Sc 5.610128060896403 7.936810058807909 11.279759621689678
Sc 4.572717548311192 11.581342980411895 4.16877979377931
Sc 6.02450757429353 6.897306989385255 2.8866255152107696
Sc 6.280625469058372 10.089420629235361 2.043187547145211
Sc 4.576956269432739 4.066952674191639 4.648991449207931
Sc 5.985577789238235 11.475654633425822 7.024122539147952
Sc 6.869216439802255 0.9924259064831858 8.37486592411914
Sc 5.472190416441486 9.05401335951317 5.475033721366543
Sc 6.853330019675709 3.571489604997574 7.082615724720759
Sc 6.516468172327062 5.311710870788918 9.810993420678079
Sc 5.968432234670551 1.3204154028634045 5.243211045937292
Sc 6.918764634561148 7.8519627682797735 8.389786265259715
Sc 6.5890231831173045 6.249765978382485 5.612618540794115
Sc 7.5369697026109215 2.9479217820186605 11.122790275251292
Sc 7.569973978161932 12.028813013710016 4.4582533875407435
Sc 7.344174134094927 5.713913411339404 12.666389494635718
Sc 6.815960175825072 10.5039183994543 9.729786199941843
Sc 8.82028240615916 1.47472436346036 6.017103674800714
Sc 8.5632523233566 8.051562480649732 1.3059066814852065
Sc 8.215460241286237 9.054478787451522 4.116998246886655
Sc 7.6573482755954645 3.6912155786149876 4.067410968989823
Sc 9.535532829750494 2.962769952965222 8.57572738107394
Sc 8.765706887300082 9.78035265504587 7.108245403959691
Sc 8.440093104232893 8.246660255536383 11.069156774468077
Sc 9.003385123560872 5.820414120556247 7.485760480348677
Sc 9.180681325481599 6.28918265770492 3.920754259032975
Sc 9.252558524041163 10.93133784606407 2.010156934978943
Sc 9.106122891331202 12.583073863894057 7.316515683767458
Sc 9.548195759804745 5.404955772968621 10.545055372454186
Sc 10.40124596911177 4.0618500587407995 5.6157747223763135
Sc 10.499899573438507 11.176470096762655 4.834281549683618
Sc 9.772574343467742 10.885225828164028 9.827381011296337
Sc 11.04246163873479 8.657997166450933 2.9875738235024496
Sc 11.75460811582264 5.2563636312237145 8.087050028526658
Sc 10.529507810744878 8.040865132348333 9.029505032013038
Sc 10.957271156179404 7.7252651270312045 6.008527316790233
Sc 11.59164188049969 10.56178490439038 7.52257524860746
