41
Energy = -212.87608725 eV
Sc 4.39698876433071 11.51381825966929 6.6561312285505005
Sc 4.114577998240723 6.0328066905529605 4.207742430017339
Sc 4.69477769904123 3.18217353331613 3.291683676603274
Sc 6.312250737095353 8.299866826642424 4.148694244242839
Sc 3.420816948542871 8.99021854968588 5.144884906174103
Sc 6.884292822076585 5.405822788768348 3.1808007230872133
Sc 9.281144350227896 7.498249788574621 3.300066013480269
Sc 7.357810164642771 10.764702108339254 5.919566510890557
Sc 10.252603948319237 10.094857358356082 4.399298003273862
Sc 6.914661303696699 12.78244390024744 8.266335994960423
Sc 4.7176461564383745 3.5221369693397087 6.356841933832308
Sc 5.448034459010093 8.783423788529177 7.3400580641779
Sc 3.3149382508012977 6.595557499926323 7.071763852086926
Sc 2.6305714564490073 9.469093726328417 8.016402298340283
Sc 9.307458630475818 5.182313561318471 5.119551655107219
Sc 6.377632406573318 6.011019836940708 6.103407986117296
Sc 7.179520800863642 2.9252951523637547 4.830028161339823
Sc 11.551242648803857 7.513096854557095 5.629346269975883
Sc 8.786496555421188 8.10472012874189 6.217364518139164
Sc 10.149177206739159 10.806125409087898 7.2364592809477175
Sc 12.770508124673846 10.084786403308176 6.439668147264463
Sc 7.843510957156663 10.161253469276685 9.095454007164673
Sc 10.441720375704564 5.534504790529163 7.867700356164092
Sc 9.699115377815225 12.613028604060286 9.645826703259615
Sc 12.235643046878142 10.66995172544165 9.498774752240351
Sc 10.436509703582574 8.29896741160818 9.219128636436558
Sc 4.910249043269896 10.786103647005246 9.67857361952644
Sc 7.77589966545496 3.865212957468642 7.691332880479206
Sc 7.564216034105341 6.958932228788261 9.1054016812101
Sc 7.229291327328905 12.11275024134791 11.254915776086229
Sc 4.443833705795921 7.712440168244987 9.99811527774302
Sc 13.14612555757042 7.764080214374678 8.508761654414453
Sc 11.790222154754227 5.818520842113221 10.510827160839304
Sc 9.71929572926024 10.233104010289379 11.52178853899495
Sc 5.121950924608431 5.090979665056201 8.915121628939682
Sc 12.35939885698008 8.469098697313607 11.524946019780819
Sc 6.807928700646885 8.914113293258778 11.590340978198789
Sc 8.941500194445386 4.44307559302961 10.40092264097112
Sc 9.327126443378724 7.089340102405678 11.837224854005658
Sc 6.398248034717937 5.532178239981151 11.56068943048699
Sc 6.344930314877077 2.7075925500979787 10.0906624647122
