40
Energy = -209.17568234 eV
Sc 11.150480330888042 8.612373841092948 6.666702133179726
Sc 11.677431584546845 5.327954794967851 6.545728962646935
Sc 10.257316705416645 6.9598469219726535 4.551714057599474
Sc 11.050806218349278 9.741522715229431 9.332588446883477
Sc 9.796298956465831 4.118708077779167 3.7771197796750844
Sc 11.752147779022883 6.919871248515109 9.586326821860514
Sc 10.907649764104091 4.129990791355009 9.285866272853497
Sc 7.960889680502004 8.466145803313571 6.084727174119409
Sc 7.983647982116194 7.198792265669786 2.8452031771440587
Sc 9.269062682209045 6.2870307213226155 7.911270746085049
Sc 9.091251686334758 11.037855716600172 7.446115068862201
Sc 9.271362327394172 3.2733280351968634 6.778374448594717
Sc 10.066736382447923 8.779846418423674 11.884444779187104
Sc 9.151547933099453 6.052447228110233 10.966555393330761
Sc 8.182106345635871 8.843853495783364 9.441843968539619
Sc 7.498162900585841 5.1875241354133275 5.277601327784733
Sc 9.161554730076066 11.470051119310016 10.66877270460596
Sc 7.055678356132614 4.372321518122045 2.303676023704454
Sc 9.369450819460244 10.003450151459557 4.267012684075167
Sc 7.3766271055329655 2.3469530512208117 4.405528119093892
Sc 7.850622795615993 3.7745043369124844 9.482007898714514
Sc 5.042890958327251 6.852833039619781 2.5488538414128485
Sc 4.716269420437042 4.239130235565864 4.3331882551564505
Sc 5.95113736501325 3.1545297954379325 7.107144382195533
Sc 6.326864412643062 9.467065087416126 3.6080828855597176
Sc 6.139086038506452 5.940584423925855 8.22547325670114
Sc 5.124136331578024 7.051095880409688 5.486685440111039
Sc 5.416564096784462 8.84507193915268 7.841338042703218
Sc 6.313245714191171 11.173257375309943 6.054599036310477
Sc 6.364710146992095 11.38685782332607 9.242210279408534
Sc 7.116879721882486 9.816335615579655 12.035094092069203
Sc 4.839484732668047 4.0813115630966985 10.038725001446144
Sc 6.166724649572659 6.933785360323137 11.036585329400966
Sc 3.386616724205989 5.00903422067607 7.149735265899066
Sc 3.7319354949153496 9.647745845596406 5.056526068771925
Sc 2.5554267067092136 6.751135638119493 4.339179535795749
Sc 4.428845346327863 9.452659010510079 10.516349534437936
Sc 3.5001445047255384 6.735297156036244 9.650359059992338
Sc 3.498026131145085 10.953801905582694 7.957387836566711
Sc 2.5437649322138265 8.053211353281133 7.171429561916886
