41
Energy = -212.60306935 eV
Sc 3.7350090063847747 4.77349857275002 7.395222321735092
Sc 5.817062490233647 3.7137223099772285 9.670837120116081
Sc 6.499151410883805 3.6637036176252606 6.278253230728527
Sc 4.412610553357983 7.708085731846263 7.395689955064848
Sc 5.104231896696724 5.680005542311633 4.831930707103128
Sc 8.857408283202892 3.7566350634111356 11.162550222654401
Sc 3.834583870955351 6.350571903605313 9.929262852934944
Sc 8.482278905318472 3.4525710504356226 8.331131301478743
Sc 9.581223618407899 3.8993278938143927 5.599621459854274
Sc 6.947663635064671 6.159001571080799 11.326982298771897
Sc 7.625247466788123 5.106051761775009 3.2883870265884605
Sc 5.455146272346513 7.296283538719355 2.4783000095591614
Sc 3.056571334609546 7.709006170035962 4.517668609235989
Sc 6.689896826203047 6.091260015504595 8.313907707871023
Sc 1.6866967943058973 7.314890006506892 7.508820061814611
Sc 9.650905462136334 6.272667336453142 12.696774123270643
Sc 9.702595941585779 6.274707601610497 9.579159552974218
Sc 2.9615931656222654 9.432603045326207 9.245734010852438
Sc 11.373053154559793 3.765498026647655 8.543287765687653
Sc 8.244562262972911 6.586165938203835 5.728149056377007
Sc 11.823540620109787 4.769254235920199 11.339523527276123
Sc 6.0127256280589005 8.734532599167192 5.384035173691322
Sc 5.950921895384225 8.74214313269055 9.959747203825701
Sc 2.9749932546861872 10.073751388996172 6.167827586724186
Sc 10.39022471574801 6.2074023965733955 3.7640009621166732
Sc 13.114188493364223 6.187513578138761 9.043809032457602
Sc 11.098383301529063 6.277578841221268 6.749738688062456
Sc 8.083387470363226 8.364517718217146 3.18868608449871
Sc 8.432034768313745 9.029023697158271 8.02209055803336
Sc 8.731580731836567 8.820322916919979 11.191142130349787
Sc 4.916970520127607 10.091484737028116 3.222589392984915
Sc 5.627182481968747 10.82427844921122 7.750271525959339
Sc 11.736744204122406 7.947201241423601 11.12818743326162
Sc 11.58401699617932 8.866292822280466 8.190263352781542
Sc 10.178347356844142 9.025487318048487 5.366489176426836
Sc 7.873359818146676 11.079919896996646 5.06324633837283
Sc 7.802176399493865 11.546057866301245 9.719289494127953
Sc 5.124623050184562 12.189031424666636 5.263598167242744
Sc 10.657186013118576 10.777607196668583 10.143946674954416
Sc 9.896987198676472 11.592781425614904 7.394940209474026
Sc 7.297008587521991 13.202930793250827 7.135257657116284
