41
Energy = -212.81701119 eV
Sc 5.732582071007936 10.199944944067994 4.239383961498169
Sc 3.430701432864247 9.54591591324055 6.165056220771157
Sc 7.943306478335468 8.081079100260128 3.13636330243012
Sc 5.4861091104933095 11.526340755632885 7.190512801157042
Sc 8.494564137477166 11.03524707796991 3.0735946825103078
Sc 7.35920137538561 12.780129302996015 5.172856380443493
Sc 7.548025521918933 5.002642018026398 3.5734907591511664
Sc 5.842516371210829 7.240670968533734 5.375711997284088
Sc 2.75748942842076 6.395861530387294 6.057629147519418
Sc 2.052814066122915 8.11517897596128 8.316386964866746
Sc 3.7173337359836194 10.146697395737556 9.611512635731811
Sc 10.7089306306154 9.137114355109828 4.048084886969613
Sc 5.4444127415789225 8.56910371838448 8.149900109019558
Sc 7.989731591102321 9.943529991239144 6.183953946582601
Sc 4.704998258460379 4.229890484028701 4.811617178348381
Sc 9.15128986952365 7.095225971769107 5.897609512286063
Sc 10.243454538839867 11.982976283174738 5.331121155201947
Sc 6.896228461381553 2.092558953952603 4.5062055194595425
Sc 8.670436345583848 12.22050307923003 7.94057005010191
Sc 2.607764936268783 3.326451333421701 6.793238045655464
Sc 6.543319001115456 11.042639429742264 9.876578837664624
Sc 9.634079450328766 3.007884419141311 4.347486044726221
Sc 10.983658276899508 9.641481274710301 7.137856694511759
Sc 10.469219145246443 5.913268350998883 3.5890792816828156
Sc 1.6892222142168731 5.2217452990534685 8.737146906579325
Sc 7.640364136887251 4.299573188539365 6.545879918121007
Sc 7.732372094925329 6.762463609553927 8.66144920907877
Sc 12.213958547434887 7.121484720440941 5.801954801705583
Sc 8.897065566867592 9.40325221469104 9.375316977292321
Sc 3.7433972299078064 6.791808290388991 10.32562779633725
Sc 5.283149075197921 1.9885942036698447 7.000844254087051
Sc 4.930184955984156 5.237483757340112 7.8848556967458245
Sc 6.352184005414346 8.275874750703895 11.052691286929964
Sc 10.778956674104988 4.526333196598923 6.55626960742343
Sc 8.723300905409571 1.753682983753572 7.041138451531927
Sc 10.809237538052747 6.87988846700944 8.601048401348658
Sc 3.8338421201512314 3.2885091870430068 9.701999796520475
Sc 9.267979014819899 4.263645340696019 9.339125456718987
Sc 9.094172093480143 6.820791155704305 11.241085820289433
Sc 6.78585682410111 2.7275407610071096 9.277845346012633
Sc 6.397816795258394 5.178500119232201 10.84298283932426
