47
Energy = -247.06666735 eV
Sc 4.265505200446934 4.869210576250881 11.103115650006758
Sc 6.847336052949981 5.015208457964818 12.919183072386854
Sc 5.507839788213148 7.716725647298975 11.836773200145743
Sc 4.148381056693835 2.270950141431745 9.391913063542868
Sc 2.8955147963533605 7.304035580214365 9.934170624340316
Sc 6.999347961358781 3.14848143281318 10.3997717210706
Sc 5.394543615723142 7.833085569339808 8.612398080886786
Sc 8.732473757614459 7.370252203515997 12.561880097955825
Sc 2.2617846152480237 4.4738478217394 8.316441384495958
Sc 9.571059578027112 4.564817523035526 11.577529137624783
Sc 3.0801579980182514 9.982977419434492 8.172381625049564
Sc 5.249330528065965 10.613994736238823 10.021685073138933
Sc 7.330842966167174 6.050915570383332 10.134667039028882
Sc 6.92668167301072 2.6050372677395757 7.356447905214259
Sc 4.951874592184952 4.8395112933572 8.259857097474224
Sc 4.023203784546839 2.4980687283530374 6.446611221435227
Sc 2.8432802974294136 7.381436398896749 6.801532830238706
Sc 7.891687288525922 9.335971671464163 10.44640881615631
Sc 5.930498958026474 10.10281704600892 7.106309495157528
Sc 10.058538721080023 7.020000263931317 9.680708192086374
Sc 9.39547854825173 4.324458104105077 8.408876731210755
Sc 4.727416765312262 12.54829610119922 7.50649297800632
Sc 3.784687587757656 10.423765906684826 5.151190992832541
Sc 7.232936559028171 5.730172814919158 6.75086658119149
Sc 10.703862585023298 9.949469740021149 9.33891383665035
Sc 8.581497589505371 8.757458912760368 7.670395763096029
Sc 6.7577976438274145 11.841959989232997 4.979270164992835
Sc 12.667036218623188 7.1438450914797285 8.352838446692395
Sc 5.443947655169322 7.774825408009454 5.232093763016649
Sc 4.03037414960667 5.209810247528772 5.205802862196689
Sc 3.1171444124208088 7.780602790948868 3.5260496151954457
Sc 7.902211845857444 11.762267005881633 8.369129482393593
Sc 11.823710556448766 9.406054545503233 6.6398192812245895
Sc 8.108067666294719 9.025053322340423 4.757620757125313
Sc 10.309121343191817 6.807111225192408 6.2668291068710795
Sc 6.344588038849896 3.5901834536116635 4.499894516244344
Sc 12.088175801453087 4.566020016248643 6.5699159565137135
Sc 9.354856525558228 3.6361959131794284 5.383404911203112
Sc 5.825607715868232 9.547408716050908 2.7945873298899895
Sc 9.693562569696837 11.267117355789498 5.835075043018364
Sc 5.590944292108127 6.338233837716715 2.6022331720629674
Sc 13.172959204045277 7.076460638932486 5.3418470167766445
Sc 8.115447766759491 5.978176146965666 4.05148287452554
Sc 8.809742499652424 10.951525259847024 2.7406737837908004
Sc 10.926986000781907 8.882800367484688 3.8171207523216513
Sc 11.058461485627706 5.730023586916619 3.58707534613485
Sc 8.530200724951792 7.967238849146496 1.9600922437404877
