40
Energy = -207.49883312 eV
Sc 10.661698153524888 6.973727386595009 3.639272331760346
Sc 8.278266379490402 5.940832223979913 1.6581847052728722
Sc 8.957448501379117 8.882961104194017 1.6132880561317073
Sc 8.845814162951005 4.327049701033207 4.252326594152609
Sc 10.894723995604155 5.158935055453159 6.284438742991898
Sc 9.915252671887314 9.995383059600623 4.385542954160315
Sc 6.160836887600062 3.067018089290411 5.772526406430109
Sc 5.9342211856724045 7.960637343026274 1.8292319118576181
Sc 6.274797652019962 1.9902525680834007 8.516685372118266
Sc 9.666221101444382 7.7921654813708985 6.525692079118099
Sc 7.809503860692734 7.6364011548662765 4.060042654677261
Sc 12.205732268377622 7.814290056025901 7.59634747450663
Sc 5.905103239217153 5.382637468955454 3.7386204016875237
Sc 10.71820585433256 5.530940474626321 9.165781163396863
Sc 6.908178316706865 10.506639658175837 3.2780396597221024
Sc 9.031945721873042 2.9564249569518086 7.263714288597408
Sc 7.623862857571105 5.546186033017134 6.593601064109269
Sc 3.690831947976597 5.52080359107915 5.858898824656243
Sc 3.55314465650813 2.5031118770163907 7.470312354611874
Sc 8.37009139619125 7.289744273221614 9.144259751135289
Sc 5.652153786340704 7.673235607738229 7.631094599832206
Sc 4.826592912608791 8.38568113929907 4.780881707190085
Sc 7.471046925389625 9.786298791073973 6.143974443985297
Sc 10.210123029483157 10.461829735480794 7.682742085589208
Sc 1.9816616246446765 4.9051608258892685 8.346899946219445
Sc 7.855733572866265 4.309800027464626 9.716361614860872
Sc 5.130613586111657 4.837517647104003 8.291706549491968
Sc 7.342790796879619 10.068043340193132 8.871800212805079
Sc 4.232813806668734 3.5159325926922684 10.416730397987733
Sc 9.228192636582168 6.371994591196733 11.743610779888634
Sc 7.75946040942244 12.553614944206371 7.505709089493415
Sc 10.608977652915947 8.757950750944094 10.231848780334714
Sc 2.7734910632501295 7.966636863208286 7.634558410491805
Sc 4.871609531075855 10.766557567585828 7.39925523907864
Sc 9.205845247108405 11.73883616104166 10.260840469709942
Sc 3.290106817425361 6.551904178636541 10.238736361418482
Sc 6.101550038640373 6.51130445325838 10.863690502298942
Sc 4.719757540083416 9.226487657415339 10.080837197743628
Sc 7.695680843033834 9.173442355370291 11.581829347695873
Sc 6.0850520345837005 12.212379666758075 10.1305508677491
