44
Energy = -229.07737542 eV
Sc 9.461857483944867 7.996290851773383 0.615674699779497
Sc 7.732183454335422 5.142102699364803 0.9369860139550583
Sc 6.509825051835246 8.107692529133752 0.27911194197554723
Sc 10.484771302634863 5.783255250482139 2.315696557639085
Sc 10.372927335919476 8.292567099654509 3.807682389628256
Sc 7.722022125126679 9.980014126183233 2.547322141974476
Sc 9.045798335095286 3.860169523313117 3.8994635523372803
Sc 4.7474434854050305 6.184525972409395 1.7792104476483463
Sc 6.288002597685315 4.914015957418358 3.8695706686492173
Sc 7.750598602290875 7.143284751291934 2.804502176573446
Sc 4.653630168332819 9.118979647936042 2.709137233223108
Sc 11.205681652608883 5.59430785391648 5.370099586897498
Sc 6.569119777643873 2.213982399236782 5.393097444326952
Sc 3.757939430409702 6.671527793854452 4.689941264338907
Sc 8.620111872925426 9.96160361856603 5.5645506404348355
Sc 5.834095362338007 11.301576245517282 4.657210907472856
Sc 5.704777940392232 4.677783826818725 6.75102865087694
Sc 9.01884115839979 3.55676342091091 6.873721649998191
Sc 3.72505038761666 3.6190806739721624 4.503442928174124
Sc 8.518651797703956 6.403046438088038 5.796135185104888
Sc 6.203086442421746 8.360973283364478 5.0870686456125265
Sc 10.860156093139059 8.463319733979976 7.045691578177701
Sc 3.9201351212580584 2.3239212524049755 7.213274190511768
Sc 6.600610094666477 2.270041880686531 8.642446227536285
Sc 3.5854645883930316 9.509076216542493 6.115345486182632
Sc 10.411827807281314 5.95904759760126 8.569253359095669
Sc 2.6461338590087484 5.1706725392192325 7.125412323925746
Sc 9.253755862056497 10.857198143913523 8.448923758818847
Sc 7.591571502191875 5.0414679578866215 9.092125639441003
Sc 4.929672658503503 7.380052614882544 7.805939127485562
Sc 8.045667320915822 8.052038972767367 8.29419236854274
Sc 6.187112014105552 10.372676908663975 7.546991586357112
Sc 4.403032829807882 4.3899641871663135 9.575677639139887
Sc 9.937962264630771 8.64146475646429 10.377604137941661
Sc 6.610536812384162 3.957465056372229 11.737961190862393
Sc 6.068680855642829 7.089485248632817 10.773099440488796
Sc 8.896497747602599 6.11219873994 11.630925192683577
Sc 7.107670732887887 10.077907649348438 10.499729604983449
Sc 2.8603034995919776 7.0844397198138065 10.116935849171435
Sc 4.196830126228035 9.651554213123296 9.65206757957267
Sc 4.03208142844835 5.551205389433897 12.4746384373135
Sc 7.964357643710663 8.683792022939507 12.916999890454141
Sc 6.5804752084211495 6.286328212975521 13.771529896121155
Sc 4.692388254215196 8.609726142514639 12.68865936379501
