44
Energy = -229.8480167 eV
Sc 11.117033550395497 4.7355210009779585 6.265658055006922
Sc 9.591896099117413 4.278113470019212 3.0970580665931005
Sc 9.729472957213124 9.73959387279257 4.5456817181535865
Sc 9.488198292163446 6.750083040143598 4.881531631503399
Sc 11.163861418040879 8.03171348065845 6.907068731655843
Sc 10.086999444316652 1.9756905808469982 5.2839112240734325
Sc 10.914386736794402 11.129386009076836 7.068333004331167
Sc 10.674959489416135 5.7458964934101004 9.081072680437945
Sc 8.5479398138507 7.416008189824417 2.195451800271404
Sc 10.147558366734247 2.5861878812872705 8.1789434186237
Sc 8.254199980495375 12.179864381140787 5.86167759180363
Sc 8.145548448325517 4.043304102842383 6.436937137353349
Sc 6.975896196294421 5.327475290641614 4.083446383349893
Sc 8.339372252008804 9.700362745623185 7.343478098563671
Sc 6.980185288457956 10.273071600182993 2.949129976543729
Sc 10.309013933374466 9.136278322436606 9.567488399475328
Sc 8.265604896950194 6.792368153726274 7.78346504415396
Sc 8.909086363502189 12.066455886592674 9.042401572591473
Sc 7.517216167012567 1.296045402453321 6.796992962296857
Sc 7.551251833407583 2.2181505583817014 3.782085825014941
Sc 6.920025106175512 8.266833741477898 4.96018480387979
Sc 8.013868079863958 4.300888699753023 9.629749476710378
Sc 7.284160750147498 9.654416004751283 10.279189779057658
Sc 5.709368443766648 7.414906988560567 2.1084884039879292
Sc 6.357794560334694 4.336312763733424 1.735455529130629
Sc 8.503857791909054 6.863972945852632 11.070554054318531
Sc 5.885532193200462 11.666541288210235 8.313137804298586
Sc 5.3785100685412965 6.017175597826386 6.553408274379164
Sc 5.0703642120711505 3.105243679705149 5.169277485907838
Sc 5.63581876102022 6.5342215815852995 9.691836143280428
Sc 5.453796407536975 11.165756317755793 5.450485011520135
Sc 5.545598600466318 3.4855373345754392 8.180542505924462
Sc 5.97809430648236 7.920094722348473 12.487769341022391
Sc 5.1753433804785045 8.839754789262717 7.505773464841705
Sc 5.897805221098099 4.852054947702339 12.002717205467418
Sc 3.9239421061701156 5.723035429880078 3.8114728568119323
Sc 4.0928713051486305 9.072674430950265 4.026399670092799
Sc 4.186848100022217 9.506055483080365 10.326939213487657
Sc 3.4140244936428132 4.441896856830965 10.100768172499754
Sc 2.8855672126202205 4.6048364790246685 6.957987573401824
Sc 3.425533370243847 6.7751115558858945 11.838275692521965
Sc 2.9478223423012673 10.352652661392813 7.212679966660259
Sc 2.620131352815696 7.513462161959305 5.935111667658402
Sc 2.7027164478954218 7.223805183799089 8.815451404808597
