41
Energy = -212.63159937 eV
Sc 7.186433583824242 12.099771279099464 7.641406771034834
Sc 4.310602769342809 10.180998065805513 7.987428909060177
Sc 9.619261972999867 11.375388335778696 10.12376383911513
Sc 6.86519179970374 10.019640961610934 9.693450815666347
Sc 8.597664317266787 9.32211206473047 12.169371523267133
Sc 5.006844989137713 11.942556790069453 5.391069806883822
Sc 2.874367877885358 7.352863678853064 7.372496976685835
Sc 5.1888072749219365 6.4882435120910475 5.525081339991413
Sc 5.842461752015309 7.549487826174348 8.183784396463883
Sc 10.265702699877371 11.995053272870205 6.9441356799043295
Sc 5.074461045604924 8.01780229811065 10.926998530761095
Sc 3.9577838286701716 5.448247003990315 9.484009942044024
Sc 11.552989418976216 10.41955979470838 12.131780074475829
Sc 3.774700834679253 9.127843603933847 4.9570935812354175
Sc 6.658296098989784 9.592259716943014 6.054320050002494
Sc 12.260175370869439 10.374391751925353 9.117866237062664
Sc 9.393847980331511 9.406242680825622 7.854539747283509
Sc 2.4985338538030266 6.239773308110448 4.39950161281678
Sc 6.459000373498081 4.946278672639602 10.891320546869236
Sc 7.882602036774579 12.237996013154882 4.80688087037361
Sc 3.484493427752346 4.317143496164717 6.690092915400316
Sc 6.242288357287541 10.113984510706619 3.20328207965874
Sc 8.629104866321018 6.744516756731168 6.838649049269857
Sc 9.534044706432296 9.761792397122145 4.7699938122960965
Sc 4.849536989836051 2.4609664699232 9.20992653057156
Sc 10.74401130547759 8.218334706119471 10.395032497531355
Sc 12.07359284381765 9.59656869244987 6.172747531285136
Sc 6.546439479307282 4.504976434245835 7.872619407785
Sc 7.97383676069979 7.289530973095354 9.996510969377907
Sc 7.717704951347651 2.3017831833031797 9.977561184449801
Sc 4.808858975927764 7.1938568722397855 2.694493861353013
Sc 4.668629680105486 4.252251452281504 3.724559231531592
Sc 7.694723120123396 7.407093213400177 3.9556440694310306
Sc 7.606134161094116 4.396566815998411 4.971030561317786
Sc 5.677061767184905 2.2379246547270064 6.095385319321558
Sc 10.795323740767513 7.074135832856816 4.794188422820278
Sc 10.564239251539272 4.4912372599145085 6.123859101052521
Sc 6.60096857348745 0.20828784226803548 8.192923005149657
Sc 11.614561338951683 7.010935607129762 7.67568803630852
Sc 8.53343634103049 2.367899132558881 7.119629656102088
Sc 9.494948809198814 4.809176336377181 9.035085251422693
