42
Energy = -218.71001306 eV
Sc 10.66996470859209 3.770802703359268 9.053847881974479
Sc 9.687103915246224 3.3379667457896933 6.072700589728405
Sc 7.862341893055438 2.724637707800296 8.524518182746483
Sc 11.243016897348923 5.951517292028413 6.91111743543717
Sc 8.319514328566344 4.635525783727267 10.841042178135876
Sc 10.47919273999133 5.639456856783204 3.788172196425745
Sc 12.546000145225253 7.789240846345444 4.972901006104709
Sc 10.364754239471916 6.871764499595233 9.871662176437528
Sc 8.544308118323377 5.519065674352896 7.905929520929626
Sc 7.696672140787214 5.519879293010809 4.925578582836217
Sc 7.9955250519836865 7.812645908464907 11.602708729349695
Sc 10.881184175358934 8.552096052619007 2.5821822029585126
Sc 11.077854830457895 9.069118155728374 7.7408864976476215
Sc 5.6252719912691 4.939007292601475 7.116399853067526
Sc 6.712882791652669 2.5591464021696906 5.742214391200017
Sc 5.775142827649114 5.009275982235487 12.53596758338998
Sc 5.21679209498744 3.5794313819759216 9.861363889577616
Sc 9.40727133084258 8.220222638349288 5.325597348083978
Sc 8.188776963318205 3.173264221358546 3.1699289814065787
Sc 8.956366270947887 10.44670915643301 9.884374841867407
Sc 11.581954296511237 10.528722063970553 5.043247737369394
Sc 7.801706789801727 5.83953007384757 2.0210934179397095
Sc 6.096120746097318 6.434020559236757 9.92395887357713
Sc 2.841780441347199 4.909528956216252 8.035549737949497
Sc 7.8481039647418145 8.64819697860476 2.709434229235658
Sc 5.328059731699567 4.40082134813525 3.7180652306698194
Sc 9.27697075021925 11.050104104918036 3.4636264572656104
Sc 8.018444569125817 8.413109064541485 8.368129029344708
Sc 6.100018380792038 7.906301276510043 6.116834780319705
Sc 8.871649074786719 10.934879588584227 6.608276466076662
Sc 4.9227861741956085 7.792519579236276 12.388169035019352
Sc 5.224645056748794 7.490767976222623 3.317196051346703
Sc 6.457288657883785 10.41693380342104 4.550009757536035
Sc 3.2498565730306717 5.875361387983059 10.801544102776965
Sc 3.3186078744464607 6.404560087569443 5.488354688863859
Sc 4.122153479512712 7.847263934246569 8.241009939991196
Sc 5.762799291944578 9.634402137901112 10.318384004499526
Sc 5.8175164350966595 10.64510134912504 7.492544135886991
Sc 3.519228950513342 9.409226923934517 5.539247041542844
Sc 2.576061837751095 8.824872262898026 10.661021008278793
Sc 1.4550646419170812 7.796773009763436 7.9093734689043105
Sc 2.8026016851521174 10.510403792976312 8.296442431797448
