41
Energy = -213.90708642 eV
Sc 5.537171692596414 2.9455564105350382 10.690061171023775
Sc 8.553943026285438 3.5613005077585473 11.02167737093679
Sc 6.244929239286484 5.156265358908041 12.422158158347084
Sc 6.963520830316574 2.5362565065155143 8.060268320865047
Sc 8.41215853484537 7.069432183558419 11.820793522669733
Sc 3.999560993664079 5.611699553974316 10.38713965787467
Sc 3.931803424887522 3.469110340559748 8.04136844943482
Sc 7.232055340713881 5.362698742655698 9.418344857227304
Sc 10.359710237264151 6.018942055022843 9.585640413140423
Sc 7.505452825610811 10.103286249360409 11.894248045379006
Sc 9.576430103302098 3.670559513695227 8.04314792620171
Sc 5.171240353555785 8.137984421869009 11.926545612429207
Sc 6.809687060401393 8.373400855500488 9.60451211598469
Sc 9.976521247788469 9.10611347257461 10.074819251410522
Sc 5.631019394989165 3.3414624533793105 5.589750921422821
Sc 5.007893107373413 6.236837286162551 7.4915504671007564
Sc 8.695994278515403 3.0938362147890746 5.071999601432805
Sc 9.004079639818848 7.838775548227364 7.532755573204357
Sc 3.536516552373455 8.38022897797802 9.152642570545774
Sc 10.857112477819843 5.627211938283687 6.3507034730057335
Sc 12.035533062820022 8.09517450062461 7.965411619104067
Sc 7.734623854860685 5.463940492624259 6.187975161235516
Sc 3.486192709895512 5.312443231012357 5.043332936171922
Sc 5.197401935655051 10.799153068540505 10.078054463818116
Sc 6.333729919600364 5.039035507737636 3.3350664219246386
Sc 2.1270767946362636 5.97973265542342 7.8050956784886765
Sc 5.730367807994004 7.457370616199947 4.88001587147159
Sc 7.9850706686556645 11.13604499464573 8.868304184521362
Sc 9.291662951385671 6.092879683531933 3.6192972723864596
Sc 10.300241906764937 10.481832822633008 7.055853547652686
Sc 11.301108540731796 8.284220902038227 4.987815860254102
Sc 3.144915244149247 8.323572374586696 5.878298636643122
Sc 8.390624308310372 8.89669015838481 4.668215242040204
Sc 3.9350163402975573 7.47771539094347 2.752290199102408
Sc 5.9376026766608305 9.63391767713465 7.037171331922394
Sc 7.0437748896781605 7.893550972673364 2.1296574888661817
Sc 10.028230676283624 8.82770168235134 2.1255952393320823
Sc 7.7417807316056 11.699823499832828 5.5495769584151775
Sc 5.298660274772238 10.173725337422686 3.9820560900100643
Sc 10.421968346315952 11.121463405013214 4.053144799894211
Sc 7.859076087616133 10.934534524974918 2.4657204352531443
