45
Energy = -236.025472 eV
Sc 9.62923382459289 9.153786574859994 4.319809562910527
Sc 9.35887176430355 5.949378903438588 3.495164871320034
Sc 7.540831334351734 11.189869402210093 3.4465322827806713
Sc 7.007807801103292 8.141758581514983 2.87753087634184
Sc 11.553490360659165 6.978732822569577 5.585952445553014
Sc 10.954670860623807 4.084387504272502 5.871291336508048
Sc 8.19148486952344 3.80398640173733 5.374829300320094
Sc 12.359575084083371 2.3424175148840014 7.839232431272311
Sc 11.704807567126462 9.891315903047012 6.394977001732573
Sc 12.259260357875423 5.445916824611146 8.292385488298192
Sc 8.318943625080609 7.020451015546531 5.9062413484235625
Sc 10.273304536775555 7.971715098594628 8.157469907657232
Sc 4.4215895520850035 10.607469464190439 3.5981514373039647
Sc 9.227861929090672 2.1366377590611303 7.566834863052038
Sc 6.1343185328203775 5.7917773897229194 7.939681016943019
Sc 6.1178729740442295 5.494274659333547 4.433981267796058
Sc 4.236372261302399 7.716876982387167 4.107654318008924
Sc 9.47681800006299 11.977776460766762 5.894587577284622
Sc 6.399549739393142 9.348297563318305 5.3946723484409524
Sc 9.122655463934358 5.058389105909461 8.08769713820154
Sc 5.733751526133928 3.1243976125403687 6.808193103813944
Sc 10.70634410327502 3.368042841096654 10.046192699805045
Sc 6.473198034014155 12.400451839172792 6.04608108995141
Sc 3.585074845342545 5.6790855245261485 6.2871075154231155
Sc 4.93632411219402 8.582773336962857 7.8693344861976335
Sc 7.6950141796117935 7.813293524295425 9.656240433934064
Sc 2.3716580058681633 8.765238202900962 6.057248868305678
Sc 7.063095399257234 3.3651774524232088 9.618465505708516
Sc 10.673698076076409 11.172239665676699 8.825866646825176
Sc 5.9154622426215395 5.87975585289146 11.179863976585128
Sc 12.852847994179752 8.636253532094113 9.048660916280712
Sc 7.982777768490929 10.224453704342896 7.744411158447384
Sc 3.861955271899779 11.13714863096651 6.518426832659075
Sc 1.554721404452376 6.683711106077788 8.155079621967312
Sc 11.39590306691385 6.438344505746134 10.945942353736461
Sc 3.81455568827789 4.285547849977496 9.012473143091285
Sc 8.196004462048556 13.071177884855567 8.515518516358592
Sc 10.406550547278265 9.144722808906204 10.960817982200581
Sc 8.767396031518341 5.315215583894731 11.186536071861452
Sc 3.564583322683126 7.02943316239651 10.024475259975672
Sc 8.12816276464652 7.934742259598468 12.5283224998374
Sc 2.550291802019465 9.711307012503156 9.032897748578778
Sc 5.332500344257016 9.125088113021722 10.99618497467147
Sc 5.46420949993219 11.512879588536542 8.98396103730581
Sc 7.967137773363597 10.770296054994544 10.748408234932729
