49
Energy = -259.73289329 eV
Sc 9.976079091893558 11.129377274755383 4.541320995058644
Sc 6.966118962206685 11.701038292710551 5.8013509287191365
Sc 8.932002223786984 11.162561833166315 7.7734897374047405
Sc 11.537717777647115 8.382944947130024 4.0231407433774065
Sc 9.139737633583058 8.40398175963559 2.2641796301563812
Sc 7.140812099481132 10.359222231206658 3.2408585530983007
Sc 12.975439387488473 5.9137497848151614 5.741173948605528
Sc 11.54711873630465 9.088554890415434 6.796529465012765
Sc 8.772374404874666 8.853810258449549 5.540448322151875
Sc 7.769265309202465 10.081089929251284 10.826770471739339
Sc 10.675810561534792 5.709161004201773 2.8106217095370227
Sc 5.890336767886972 12.163426936815027 8.87162568422747
Sc 4.17076334234201 11.074656799590043 6.402306426890318
Sc 10.05996092766827 9.088570417674182 9.310495641374532
Sc 5.980684292734248 7.801934434968829 2.225635671208689
Sc 4.052263672802332 10.046998788955511 3.481611935453826
Sc 6.228768593819187 9.489419549091595 8.24625521582042
Sc 7.96175735941639 5.617885095871336 1.1491500352533197
Sc 10.360559994234986 6.284964677270465 5.9224190301145265
Sc 7.924690532664279 6.299022014660789 4.002404524135178
Sc 8.208114642614255 6.990219867687084 8.059092063266252
Sc 5.69386436206817 8.5326031439361 5.357203191885862
Sc 11.381436010287658 6.521900529336295 8.787987781580897
Sc 11.1541798325278 3.4897898974290946 4.764666687143388
Sc 2.5247975472434554 8.592533232458825 5.954449674622174
Sc 8.440476510527354 3.4937201727835103 3.2324921263868642
Sc 11.406930713893024 3.8114522336231964 7.589875093266056
Sc 6.181895491871788 7.433859664228335 10.436530729422856
Sc 3.695621549914474 6.9013667239553245 3.870602721161605
Sc 9.092259156427131 7.11152663797706 11.247634907581892
Sc 5.808638918936527 5.505152960588785 6.136509994676273
Sc 2.9494897517586387 9.903438490521644 8.817226308047
Sc 4.8994694506352 10.10096776974273 11.066666236521291
Sc 5.617199794876895 4.695582796904307 3.026735200423884
Sc 6.179612040336855 7.77910616335605 13.077486274562844
Sc 9.13878161736913 4.493390410995548 9.581551900752336
Sc 8.529847697993963 4.10163677932497 6.376981937033598
Sc 4.0862653125863755 7.2065065947333435 8.125623708928169
Sc 1.2077572174888385 7.195705029666756 8.400694903790562
Sc 6.065994188008118 4.859872146442101 9.135501549876908
Sc 2.7113224213033833 5.276537352077194 6.306181522784581
Sc 7.259210881310283 4.878715035909711 12.02261367557933
Sc 6.210422795792192 2.494652850009009 5.208862809683798
Sc 3.0504554036507563 7.655267592220206 10.966433929710862
Sc 4.509852018779382 5.246456634901832 11.942960517793319
Sc 7.306525182723123 2.2296697561207823 8.205358720140813
Sc 2.870983611948038 4.78629862863591 9.471220014528322
Sc 4.430616061232435 2.902855529142251 7.651860569192514
Sc 5.4110043409134185 2.5813560043778048 10.623185943986769
