42
Energy = -218.49081053 eV
Sc 11.85206229961331 6.539406727488064 6.94299987496694
Sc 10.524439825961421 6.070949811378953 3.7994264646038083
Sc 10.166710680799257 4.17007661782833 6.00491641774948
Sc 10.701004006790043 9.707311752333846 7.82207206620351
Sc 10.530330039001445 4.241391381028402 8.872091599696425
Sc 10.924960185422051 8.700213848223004 5.039924329419709
Sc 10.084367972616104 7.282020104794625 9.48224397457779
Sc 9.330646159655231 5.054491315279594 11.523942972837444
Sc 8.32258469216069 3.3275206582795156 3.864972188768652
Sc 8.969522319201387 6.883929824639939 6.44914379837424
Sc 7.75158040348983 6.312232554989033 2.8614389235624187
Sc 9.36660631067508 11.14654400571376 5.384268373305097
Sc 7.76750695362876 9.222583692465358 7.871109284812872
Sc 8.34040811008515 2.547841878183643 10.302938569767464
Sc 8.719892185438367 10.194024986634249 10.519503759628183
Sc 9.479022072301685 9.06919491291827 2.4534654586259377
Sc 7.505336645700134 7.490464389419827 11.258723565200857
Sc 7.996119178117892 2.6234059634392923 7.193902773640715
Sc 7.647417808280018 5.199384805166987 8.896218712071823
Sc 8.577638904524486 12.105521180628564 8.215385847345127
Sc 7.50885124719654 8.892528916108896 4.528769385089026
Sc 7.23153612929999 11.469429293230668 3.1576115460758634
Sc 6.484563141750134 8.977176402800657 1.681311715901231
Sc 5.8836409204492695 11.118306879580452 9.314145193370718
Sc 6.782900673973535 5.097106574309438 5.511675076145645
Sc 5.5495889120800435 2.6261097694002205 9.11642396850761
Sc 6.253703955214488 4.50756684695754 11.49562836795876
Sc 5.5034103109925026 4.0738584657631165 3.064787964596297
Sc 6.275599036780191 11.3222954702736 6.223035012173283
Sc 4.702376143497387 7.121269612192381 12.379910266341192
Sc 5.333143297851043 7.826077716765272 9.254641989197749
Sc 4.758974431676684 7.020726695823221 3.133974531194681
Sc 5.784393524722611 9.813499196663024 11.865297052506563
Sc 4.603727382555064 10.00339461160009 3.9878029691253403
Sc 5.262066373548872 2.5592232344834005 5.76918746014111
Sc 5.274539846379274 7.766475218772201 6.144324130384054
Sc 4.797562860315603 4.999013669284154 7.677744692740939
Sc 3.7692922252076966 9.999698762289883 7.508045353213986
Sc 3.4840141504655744 5.103520764361747 5.1525954251833195
Sc 3.633488952346377 5.377034175039994 10.248932523588596
Sc 3.133994619360912 8.959663169341702 10.502599900955909
Sc 2.6933726065299957 7.1829335244810935 7.777807743019737
