46
Energy = -242.23402447 eV
Sc 3.4498369847694073 6.991224537501385 11.091324605271398
Sc 5.225286262610004 4.481032108912921 11.37649115208462
Sc 6.299298716581946 8.326741088775233 10.96522192559587
Sc 2.6496175746247475 7.448138543132875 8.142119063974265
Sc 2.6828125895531896 6.400453748803129 5.273443557541693
Sc 2.918592928183142 4.617685536803458 9.034264131736512
Sc 5.877361109504415 3.084044676090748 8.71980354625093
Sc 4.187444311435756 9.764900058272389 9.224160310402127
Sc 4.430490674657277 8.513021896578177 3.476957215395502
Sc 8.70473051709398 9.109852368165695 12.646883659037961
Sc 7.380588491041284 6.143830651195129 12.557954879842006
Sc 6.712960684001405 11.183222327655747 10.279380286627477
Sc 5.286173241414025 6.169739123576555 9.034332604123211
Sc 3.44243582051643 9.729189488742238 6.136227247746744
Sc 6.876099095159889 9.031223116174045 8.116775691668431
Sc 8.115915408315264 5.896066708836033 9.473865915132551
Sc 4.384548295520466 4.17526269645417 6.38843552899336
Sc 8.719812362583541 2.9556043461156074 8.122775556657867
Sc 5.5239418437977035 5.365709255636818 3.897650496226299
Sc 8.22063136787791 3.5909698851829703 11.05339456323946
Sc 9.636947487340228 11.43699555791496 10.8205837550671
Sc 5.67235209416984 11.849769169096739 7.213660085960402
Sc 5.227286818668571 7.227567746137219 6.205313532583881
Sc 7.412762951471394 5.155774628187216 6.424843715090628
Sc 6.334968571475644 9.791313012369015 5.262945461598253
Sc 10.275979366420943 6.449128462416296 11.60158286830581
Sc 7.043701914162385 2.6056010517162886 5.461012840726049
Sc 4.936712625047106 11.654798740930412 3.8979359149404913
Sc 9.391730875183466 8.701269585445495 9.764505260678657
Sc 11.560875975033076 9.400659654227455 11.618802433923731
Sc 10.944086309229979 4.658347565258461 9.017269404391017
Sc 10.02544720919061 6.815152762552646 7.076056182608651
Sc 8.061096845927139 7.529194011450682 4.426646910003582
Sc 8.67350568136676 12.210745522837522 7.93452289761324
Sc 9.311087690895322 9.742184872121063 6.506516914145444
Sc 10.298241050822076 3.9988325091069017 5.881169213020662
Sc 12.177610836123433 7.5055685569732224 9.13932005488357
Sc 8.523502412611695 4.700975465394212 3.5990170522782567
Sc 7.166822878690971 9.886114010876279 2.52902287850323
Sc 10.999332949105765 6.598974712158557 4.2422184915371295
Sc 11.517140006078796 10.586571400145754 8.606325261060732
Sc 8.119244827156674 12.018227642090386 4.739170010707363
Sc 12.758820674573881 5.749362656649657 6.62458562213835
Sc 12.166813388539088 8.835275047143409 6.080064063699045
Sc 11.062630861159471 11.88223771512917 5.7872787246263115
Sc 10.16321086401249 9.757733491967931 3.7045417446526203
