45
Energy = -235.39948192 eV
Sc 8.375080501789993 8.374377442309699 2.314048814350924
Sc 9.671331439115148 11.133238093031636 3.240292736802692
Sc 6.781799066539355 11.082132367304018 2.4513817102695454
Sc 9.398178670982483 5.952228637858872 3.970209144285196
Sc 10.902299638480907 8.579857448502304 4.402608509810053
Sc 5.374132685537395 8.408126257854848 3.2765747159345806
Sc 6.674352048399933 5.542844107299456 2.72173444554537
Sc 8.027504615608526 2.9847255987116714 4.1846912393524045
Sc 11.03608617095153 3.3742252162465363 4.99675403923942
Sc 3.814390849605108 5.928007769575015 3.428517641832754
Sc 11.70328863193811 6.085256570740433 6.339613993747344
Sc 7.627196730131439 9.628510377607977 4.977010620581571
Sc 9.974985311640433 11.008842794663652 6.344175085790897
Sc 7.671504237172233 12.620058314065995 4.9622439272215475
Sc 4.885713301336747 11.20772874931603 4.9318084712776455
Sc 8.773081304635044 4.540324572880773 6.49367093065273
Sc 2.7366968545903454 8.726407651363312 4.580885870999225
Sc 9.314555413133048 7.733444218301137 6.929143079194846
Sc 5.1585066817174265 3.811789409388508 5.038166744105014
Sc 6.466300810130264 6.490366262298248 5.624862101038713
Sc 9.472230689146855 1.6267220536390339 6.738605214248401
Sc 11.132680996665243 3.7375977463657226 8.21439674300776
Sc 12.071050385403693 9.022796849240766 7.260913139394166
Sc 3.3586175605820485 6.162571478647314 6.334315296382002
Sc 4.837278995347532 8.896944513493807 6.621672253746376
Sc 7.062176251739259 10.934037961412345 7.677833293444333
Sc 11.275660602926289 6.977673258595444 9.292904294561072
Sc 6.957716073678796 8.009466426706133 8.807556642242034
Sc 1.9322450767215487 8.80563884073531 7.717813452388917
Sc 8.398880860083898 2.5732039387160004 9.547024800152283
Sc 6.513634596578474 2.3200709572657616 7.165009071319785
Sc 1.3909098433290947 5.89542069555053 8.707346863665983
Sc 9.68624066569015 9.67354474830239 9.25027260110239
Sc 5.860664267577543 5.067438557581085 8.408287768730617
Sc 8.798046013012854 5.441003829765814 9.283878978647044
Sc 3.9382972536393552 7.340183895352649 9.008005260848023
Sc 4.252380221809302 10.180408395604374 9.473040834228016
Sc 7.019577576741294 10.192504361797594 10.815261924369656
Sc 3.4683097611748814 3.4355445906135267 7.838663611049642
Sc 2.078591917102838 8.039024756436987 10.838675630498246
Sc 5.414060294964674 2.5544611250955054 10.034629281244232
Sc 8.607205049608893 7.640927290167509 11.322149937325529
Sc 3.623603634631015 4.970561289870103 10.717775601657365
Sc 6.722906251673565 4.935417533142971 11.3912880110139
Sc 5.393188473540073 7.732301774686926 11.553683229257297
