42
Energy = -217.69361727 eV
Sc 8.353824091842183 2.914569783731065 10.494253735146748
Sc 10.582841387835751 3.129590265585647 8.280354748973823
Sc 13.345172420971616 4.440854501424894 8.644560558199327
Sc 5.648892290039263 4.690814023616891 10.295280673405623
Sc 3.0910185461634847 3.399051098368132 8.904672994603722
Sc 8.708278928437865 4.07141988998526 5.979365555450105
Sc 8.128529051456992 4.949123448426179 8.785983742947433
Sc 11.560101941986579 5.064332917109334 6.277350898042499
Sc 10.870958878009462 5.4718878568503335 10.0142945062714
Sc 5.229202263685141 7.469468235239613 11.468308148664311
Sc 6.048693681430686 3.077725197296699 7.712448873484708
Sc 9.959650580740975 5.20657895501809 3.497546899530656
Sc 6.108500875091961 4.374412235077589 4.762063753497668
Sc 3.1740582072077643 6.293223522211134 9.042225542024104
Sc 7.153140055529933 5.729747674165885 2.2559494809783907
Sc 5.843047306086172 6.08469273645198 7.388425697964498
Sc 12.488438862010563 7.389920929443728 8.061893317142149
Sc 8.181346572696832 6.101588050096221 11.641286435976825
Sc 0.8853505020916207 5.089481966007905 7.608536251285523
Sc 9.628803066349139 7.0199871786867725 7.518164379009917
Sc 7.259276109435561 7.997076864947944 9.514225063706286
Sc 3.4739350946779224 4.710479406709583 6.221714566655873
Sc 10.222841226302048 8.409886181070021 10.216891087416535
Sc 7.74698561689496 9.107630008288986 12.209167036778114
Sc 4.24345795670201 6.343887753436959 3.5931568028338448
Sc 7.974168566366364 7.0435564979738965 4.850951324095658
Sc 11.07514129201089 7.796153215390781 4.965998416825797
Sc 4.506024221824673 8.968239189224605 8.398020064492576
Sc 2.4016698504848684 7.53770919997139 6.362530344013746
Sc 5.5951064058143904 10.423345239870757 10.752535291147746
Sc 7.48799454553191 9.499790581136782 6.954639180774011
Sc 9.27732987364013 7.779948963468346 2.1701942895834234
Sc 5.090822949268955 8.269778885378388 5.521418362879973
Sc 10.46133074998189 9.904695068126957 7.289307911389103
Sc 8.41602744151784 10.914978743463353 9.526852599789041
Sc 6.4163577922330814 8.626506686215306 2.7563622691514245
Sc 8.979948601566775 9.986968944111295 4.353997266919969
Sc 5.844629973607558 11.795687928292029 7.982594787277275
Sc 3.64358304123063 10.999893341594218 6.182342988659475
Sc 6.222524101868154 11.102388948691976 4.736623664022482
Sc 8.308995201575422 12.393631052735802 6.453195056264006
Sc 5.396006938580907 13.678233985902759 5.8095287501084885
