45
Energy = -234.1778894 eV
Sc 4.338066814951196 7.654134827026118 12.164585313059629
Sc 6.423318205159059 9.403269204377647 10.717343917254592
Sc 7.403957520124014 7.396550238056279 12.879874639002791
Sc 5.124311872969608 5.036401364547276 13.356600640149573
Sc 4.376795924930864 11.779095835322392 5.480925659093973
Sc 9.448645824496314 9.093332121425044 10.825441483743449
Sc 5.622888599714645 9.777758445538112 7.60664979749377
Sc 8.414375860367292 10.703227533931424 8.459083986998834
Sc 4.271903676670295 7.396174001825262 9.019694002115463
Sc 3.259960388104848 5.115470536520714 10.902511268455717
Sc 7.455842949793779 10.941631249831257 5.4376461157834175
Sc 2.6865860347755985 9.11121434446708 6.527154295930716
Sc 6.38276020001294 5.725877844778497 10.597202783350939
Sc 7.786459606744173 7.722420273727005 8.697988844901552
Sc 10.395278919731778 11.056068550288693 5.999926234408179
Sc 9.450236237880018 6.116684045367832 11.001582460016591
Sc 5.813777438260558 10.975412188515707 2.758215047269915
Sc 2.696452476813303 10.31126634992437 3.4704469066532124
Sc 7.890047480811677 4.206525203142086 12.744700820258739
Sc 2.5131751501933524 5.946089274871322 6.907579275759378
Sc 5.6373280189154205 2.8899015051764456 11.001299424869234
Sc 10.651939067029994 8.543926975345332 7.793089893379001
Sc 2.5477067556115873 7.289286193021414 4.014952600360244
Sc 4.634203785710893 4.327002572318645 8.398938454687146
Sc 5.020150041325387 9.005013286086076 4.6593670792947295
Sc 5.308315116349784 6.616792477616016 6.26053700772204
Sc 9.245655010254758 10.240982562928787 3.143403917283516
Sc 8.367923608174765 8.106237929099269 5.734139119498268
Sc 11.157192921909568 8.58565037367978 4.726991082101348
Sc 7.456776439773268 4.9729707351414865 7.405721438237911
Sc 10.346558080342861 5.504119542756109 8.273109016898998
Sc 7.24843995644508 8.080885864985735 2.864666966471533
Sc 4.365022451013085 8.37848366626395 1.6965103791248701
Sc 8.53773392430226 3.4535477601989726 9.787521381919177
Sc 7.701727929155431 5.025028313037897 4.348899718899423
Sc 6.692425300424373 2.1329730631162533 7.721809996926721
Sc 5.069892963123736 3.622619376327535 5.435632928813609
Sc 10.541587415799622 5.732115418151645 5.369974114942898
Sc 5.140213000858347 5.840697830928496 3.2093941650117186
Sc 9.937495109117668 6.83767897886272 2.624992496493622
Sc 9.476639814964694 3.0519792535805323 6.495726530437866
Sc 7.56769211279687 5.546519063115745 1.2161206976881636
Sc 7.508911357238843 1.8599098695829785 4.695476033058429
Sc 6.41399605191848 3.068565923678549 2.327925050942839
Sc 9.507542849266443 3.569188909105015 2.893516036453197
