44
Energy = -229.25481833 eV
Sc 10.167664941259376 9.425116299774363 10.682018699866697
Sc 6.709626912101505 4.9717889344490604 10.992379266129197
Sc 9.592517473105913 6.266305842057353 11.103095210751048
Sc 9.185335279871449 3.186439691419624 11.175953298124412
Sc 11.551745493699597 7.167774824160138 9.114326836640453
Sc 7.01681313894815 7.983278696249064 11.31209845241959
Sc 11.561179734347585 4.098667103417962 9.48413343249167
Sc 7.365731176264291 10.828402811897064 10.290728214356347
Sc 9.530491893061983 11.280310800366093 8.098232332330154
Sc 4.145475526366192 6.617199119739205 10.986635119178343
Sc 6.878544288082883 2.568616850369923 9.08157128396755
Sc 11.303270970827116 5.918240129558791 6.409946583038472
Sc 8.665554376348169 8.220419507516299 8.664131238748023
Sc 9.754426626469806 1.7071519409054092 8.777301550813222
Sc 4.746008390503885 9.290607825041203 9.618323442352986
Sc 8.902344348478445 4.929104003559721 8.40026644975475
Sc 6.00602233070945 6.758376180958612 8.56348233979371
Sc 11.028659484057728 8.851884251245394 6.71654436883697
Sc 4.4246151498121495 12.158033274271494 9.097987844820768
Sc 7.077399743088255 13.213891390214807 8.455569826000954
Sc 11.115811573092147 3.0051536959214675 6.6148610021928755
Sc 4.398857604253889 4.283152356879156 8.949323963819541
Sc 8.111435513775584 2.7576120107338586 6.280368273099002
Sc 8.07795467901402 13.02148603037513 5.777381313954522
Sc 8.443175791319725 7.131026771505888 5.726607162258657
Sc 5.374217019091864 8.108448393516989 5.729666799128589
Sc 6.718776754031068 10.402235061131181 7.260941483780319
Sc 9.655852613790916 4.3837880150013 4.3130650513739415
Sc 4.964789219557909 2.451621478102407 6.248383140343929
Sc 10.297754195035214 7.47413310761464 3.7098945597596775
Sc 3.130503046055372 4.898594297698219 6.414185281462738
Sc 9.101042726670965 10.198358003794104 5.03051768579362
Sc 6.040379691771697 5.1273830097316715 5.721641381757454
Sc 4.950364744821295 12.661144842388406 6.160147544739098
Sc 3.0383650740715513 7.225410234170121 8.155841809630301
Sc 3.3828656388841143 10.093359789371615 6.924744579135178
Sc 6.453970569786837 11.154136419351424 4.178802332458387
Sc 7.244404823293621 8.6139451407574 3.1423673012316495
Sc 6.698744292200482 3.0166606889860272 3.6614010581022773
Sc 7.552804186089005 5.7898157180523215 2.933110271471262
Sc 3.878457426288156 9.8674005964543 3.859529788682337
Sc 3.8508927621850866 4.128532410366116 3.7478156495685084
Sc 2.59689622453163 7.340346867537778 4.922894945278913
Sc 4.801282075053786 6.864199987300546 3.024230443303647
