41
Energy = -211.7560391 eV
Sc 10.59811166568951 4.4980664402850055 4.803486181596285
Sc 10.333702266513708 5.286010256498165 1.8580555032408634
Sc 10.444177117294162 4.035546523797572 8.054813385151679
Sc 11.466260167352315 6.5589929824335815 6.901815141749843
Sc 11.097480828292301 7.52715207166781 3.8033694689650925
Sc 8.341744603930238 3.341207149220949 3.442983038060515
Sc 9.147019207218843 8.416437968644226 1.7942149073702431
Sc 10.669836603730355 3.012689694064388 10.928347752483713
Sc 8.020702272874688 3.8657308210580017 6.450554084949692
Sc 11.444293145271322 5.825470925916304 10.259138481449986
Sc 8.657279223482165 6.758173050315908 5.60111584460935
Sc 10.932921443104538 8.49940511448365 9.046480105642328
Sc 11.123098330404984 9.524906168219925 6.15322509258816
Sc 7.841702708399452 6.032104510316258 2.8280703949177246
Sc 11.055592002600953 10.591337369118465 3.261714019680618
Sc 7.928502123563648 3.360730410708616 9.717195116973995
Sc 8.88882867986435 5.346465351304956 11.781319016258262
Sc 8.560028316806473 6.361617637354774 8.875236903666568
Sc 5.796511355059597 5.225914257760397 4.827902804802029
Sc 8.331557311902966 9.281936504657143 7.459018418398472
Sc 8.67375575408587 9.66007614255979 4.448258259084235
Sc 9.37495241513221 8.35107089679459 11.447191680354779
Sc 5.793529322481071 4.936795468011756 8.058200212397512
Sc 5.84431778928592 7.647820319985026 6.793082180802563
Sc 6.004473958376253 5.788222012040439 10.976419694493313
Sc 6.1916886328031095 8.19149529517832 3.740880631438435
Sc 9.168162451050438 10.911700507080955 9.773422023947491
Sc 9.15255247376488 11.847564112474565 6.533586017656065
Sc 7.093581874379412 7.616224159923069 13.046973188276532
Sc 6.539079303493758 8.751287498991024 9.955278071360357
Sc 3.228281422278023 5.926335132533409 6.483253855888123
Sc 6.029484973676709 10.605017779098565 5.700368601802239
Sc 3.729967676152774 7.126629551454463 9.252119749994824
Sc 6.9905304883806005 10.577751163298716 12.134907930739342
Sc 3.4447804734920937 8.629662027085512 5.186854135087761
Sc 4.428671555252249 8.596981561296076 12.098301038440956
Sc 6.589259346581657 11.620503998370918 8.574217674585672
Sc 3.9178701728934837 10.052939244884747 7.960095540321311
Sc 1.5951827304745283 8.251492595578128 7.514990514129809
Sc 4.444005645990276 11.174736088599687 10.721799003460776
Sc 2.044201163218198 9.35585687348234 10.306501498339994
