42
Energy = -218.16812233 eV
Sc 3.408606789126312 4.533934175878466 5.1850806400490566
Sc 3.129628163998984 4.623830436582428 8.080836744484374
Sc 1.30140691278751 6.907140745818589 9.024838771631131
Sc 2.1002041687024176 7.074555756363995 6.034662898263885
Sc 4.2402833484466385 7.111311767332246 3.6581034819750458
Sc 6.090517812396356 4.140744909742611 8.465013415633187
Sc 3.5292727863725397 5.829150494061194 10.797451385710344
Sc 6.045902535813983 3.074133908851336 5.622735215220871
Sc 2.0718726090541684 9.516559934568876 7.870233022489803
Sc 5.452175027703079 4.41807957838587 3.0908678236282237
Sc 8.197418901623474 3.1087611312679666 3.4920499970816388
Sc 6.084198078758422 4.365941378483512 11.871478171759712
Sc 6.006565064399991 6.083957692301953 5.827898695537294
Sc 4.159275703131163 9.572490149582746 5.6812100063577935
Sc 8.57335970076252 2.938315540735111 7.251237356825852
Sc 3.092474408517216 8.862332953931796 10.691098274079389
Sc 7.704237752286364 6.280888220349842 3.038475490241842
Sc 4.252793642733433 7.443818987683748 8.118595923156715
Sc 6.476444661674717 6.462625310347412 10.037745451696795
Sc 6.733990291727406 8.965968673623642 4.219317846511861
Sc 9.00952676679052 5.022644571462952 5.371300350280781
Sc 6.920508799352769 9.080373503264006 7.407306359049168
Sc 9.350339208190356 8.071275284113195 5.4244802386501325
Sc 10.582110950443052 5.3000690815491955 2.671703264479678
Sc 4.5648774342370135 11.154989714868913 8.389193566036393
Sc 8.527091338681917 6.320880460952569 7.9931317733896865
Sc 6.791521751691521 11.577727203721677 6.014502036628152
Sc 5.239243173261116 7.3547920391159645 12.578339767463115
Sc 10.011452060233976 8.29742703222032 2.6162841866431905
Sc 11.028754029363059 4.799613407103021 7.790559784572147
Sc 6.015765722339916 9.379712701845328 10.343422472759446
Sc 8.341107870677947 6.670907274362314 12.223962342622176
Sc 8.756265950341792 4.302581774318494 10.238331587017502
Sc 9.02298127149845 8.755786456310945 9.77782935044428
Sc 12.850032529804528 7.492823863995005 2.537011571975045
Sc 9.626028626959103 10.568672565242828 7.14009903489916
Sc 7.488094415162256 11.714696061794603 8.96052669978692
Sc 11.859077103103981 6.441711833107452 5.113368470341909
Sc 10.809455799524233 6.427004090948257 10.38605956315639
Sc 9.24284009323504 10.854142315131043 4.162139170585221
Sc 11.2878457719516 7.935967887514312 7.742767919621412
Sc 11.896735522705427 9.474581762303954 4.774186314585705
