44
Energy = -230.88195865 eV
Sc 11.726621538244926 5.139210164599223 5.450072508947888
Sc 13.290577396192857 6.064759361005183 7.960223155079642
Sc 11.027394480166308 3.857787352276018 8.346531368875281
Sc 8.920755960762627 3.9453024446612424 6.140111299191834
Sc 11.128768832346113 7.367155156912818 3.326329583564218
Sc 12.340251687773025 5.488849670193294 10.705266825966252
Sc 8.10695350785549 2.7399809970943902 8.877052077275625
Sc 12.775811186231103 8.00017686678246 5.829461545278135
Sc 10.581126202308006 6.7336246163162325 8.768711851815217
Sc 9.783041470704969 7.314159083116767 6.009443997618756
Sc 6.12570341648651 4.3339220117090775 5.050037077491424
Sc 12.792698361951299 8.482275002803311 9.839290324828228
Sc 9.300369462212249 4.839160247519608 10.873945742845933
Sc 5.364797932389303 3.6863969797840794 7.848852435681695
Sc 8.46307199102995 5.811159690133144 3.751165450510546
Sc 6.0228632523559265 4.264881145774641 10.681646670325021
Sc 7.655984617593185 5.617052694038352 8.374380209671358
Sc 10.265093584181201 7.9125333671586935 11.48934689407476
Sc 8.325098144686871 8.818856038372436 3.011967080090115
Sc 11.176398692772683 9.728648146312663 7.653950703965266
Sc 6.459155478147603 7.023735502298929 6.048019757391711
Sc 4.8976575203462165 6.816895516732955 9.191587922073584
Sc 2.893762476844681 5.054295706672821 9.704882287943049
Sc 7.740681703731253 9.622217419807187 5.73437361491156
Sc 7.340292371680816 7.1963300407327955 11.19907399535647
Sc 3.6931125246218435 5.711805704910537 6.547068784893218
Sc 7.958084564132496 10.03253660669669 11.990614960030909
Sc 4.362880840790053 6.4754324639321466 12.116583773001333
Sc 8.261738737920256 8.900984857667735 8.80805631805722
Sc 10.616912610825873 10.100550915841136 4.744735305216838
Sc 8.108966816337347 11.89682702234925 4.095669938859761
Sc 3.7345509598632947 8.318886259273919 5.131486921399639
Sc 10.242006119508464 10.664556655695836 10.21918095928608
Sc 5.721466994622853 7.096371245105562 3.2380138178010878
Sc 5.298773749687419 9.431999382824044 7.669699453698717
Sc 2.442923425926713 8.07537720968936 10.632093189778649
Sc 5.493999714576661 10.29982619824661 3.9731244582470846
Sc 6.743063345783373 11.538499478354314 9.503444018160355
Sc 5.110888831148942 9.382942541748273 10.983445586898608
Sc 2.417567661490955 8.307515860577858 7.719452936106552
Sc 9.014278873875714 11.767439539190725 7.341277571038016
Sc 3.2009081757189164 11.072055312079367 6.161896185750757
Sc 6.105758752816176 12.133591528962112 6.460340911951788
Sc 3.362368140276546 10.922547332424447 9.177072739949903
