49
Energy = -255.97874288 eV
Sc 7.061627071347638 3.399947976549049 2.4989145169354816
Sc 5.338357132817513 5.852640457940371 2.5808693913536365
Sc 6.077987169762991 1.822530162624738 4.916252645960682
Sc 4.095933253692751 3.9681884702025205 4.4812964735004535
Sc 3.490955119317681 7.075228195771098 4.595849543137166
Sc 9.799335937893835 4.645560381511654 2.8825959470436375
Sc 2.0261266412142094 5.029095143730374 6.570258265412477
Sc 8.045307658606589 6.950362557717377 2.4027723637659797
Sc 9.00186796672813 2.497909857180561 4.88706487326224
Sc 7.148721465878666 4.858570539363057 4.952027821388778
Sc 5.7987282778647975 8.82897387585862 3.5422898173479926
Sc 4.14768239304664 2.855999144649829 7.295386124001981
Sc 7.199180472899929 2.8376031354508315 7.444137229931844
Sc 4.876036534970502 5.752081922428215 7.142900164507221
Sc 3.5255836088055172 10.389434458522798 5.408410890884827
Sc 2.4698147356051594 8.02068439089766 7.0532764757949185
Sc 6.246729433629642 11.504398428336344 4.704297740106132
Sc 10.352247089278574 5.270852514658722 5.712216797135337
Sc 3.0568721969012493 4.735812583809513 9.409645342259738
Sc 10.721144117185583 7.679066635255997 3.677373470222001
Sc 8.610328916725404 9.969049883253279 3.392037422011896
Sc 8.286882571192212 5.58410071882682 8.088171960732387
Sc 10.184448322417094 3.0953053755221966 7.761166213318111
Sc 8.30552636918038 7.747480694351132 5.49684092126024
Sc 5.5471134084355604 8.92468826504148 6.677124649638008
Sc 5.853928588311036 3.997687507556644 10.009596183761497
Sc 13.48273348376072 8.252909636807592 4.890820458224443
Sc 11.28897256768135 7.947997041617779 6.841639135636987
Sc 11.24712909845477 10.383723908672795 5.330437534083827
Sc 6.033335141541678 7.028792998978916 9.922868471860909
Sc 2.8768646391204573 7.522222814066276 9.7906955769208
Sc 3.508804344776702 10.328652116524488 8.861634319216535
Sc 5.418454854320354 12.09731751198949 7.559203879752408
Sc 4.271147774522635 6.12514414002191 12.05800971806949
Sc 8.346162939170332 10.657784895979399 6.5540665938390426
Sc 7.088970684412454 5.475994941801189 12.460685986521275
Sc 8.95906507881034 3.981093199175799 10.421773061380637
Sc 9.136005188040569 8.503011258773338 8.630508302589373
Sc 11.138025177991581 5.770837296262974 9.017233837231707
Sc 9.202023875093602 7.015648505236706 11.106343213431119
Sc 6.59224673287887 9.89132585982303 9.29541419456788
Sc 13.565923925661966 9.770719754394666 7.381716438094941
Sc 4.330318223930553 9.298024260196483 11.59345926006261
Sc 6.980705984563497 8.67595071347365 12.330386861992425
Sc 10.908067851330788 11.022497935026358 8.373668306529632
Sc 11.810871651846293 8.745988007250759 9.970358267036012
Sc 5.946936685327775 11.912194300503161 10.959955293586916
Sc 8.142727216887263 12.53825130112701 8.897569450491861
Sc 9.1446017639798 10.469367189378081 10.90165978816415
