49
Energy = -257.24036911 eV
Sc 5.375141329721587 2.7887658793339827 10.77698837344992
Sc 8.395393112908248 3.1518238265972407 9.530823932724644
Sc 3.645273563112574 2.59327908812878 8.008852360634565
Sc 6.353168965444299 1.5143415669309432 8.118680026107109
Sc 2.9732347688058076 5.3627624793284605 9.335156359874146
Sc 7.936454840806901 5.299167717450167 11.576839287670133
Sc 5.093770802003779 5.876845099786809 11.375316732274374
Sc 10.992690692901023 4.568735577757404 11.147697288175461
Sc 5.800800146367519 4.469286724682929 8.601948752051948
Sc 11.239875533643335 2.8102104023897296 8.710183628035058
Sc 5.797306395321167 3.365022971565539 5.579967434599037
Sc 8.904405307212954 2.321611520879004 6.55544641649901
Sc 9.89647469767109 5.8364378582692265 8.805619206445776
Sc 4.725393929672677 6.949640671120045 7.2385849296411395
Sc 4.033650016695477 8.23892726072905 9.89818663409196
Sc 2.795491033371021 4.99500886218321 6.270660573790361
Sc 10.001058326661937 7.488525617376244 11.257032290281703
Sc 7.097183271403276 7.182132103758648 9.322664750986261
Sc 6.612715835701335 4.783355511630907 2.107152641992405
Sc 12.898010838984831 5.336433387483904 8.79512495853879
Sc 1.9120519577042292 7.833276079242236 7.6001288750729685
Sc 3.872361261295329 4.85264026098361 3.395920250869326
Sc 8.01302125450183 5.123099598691709 6.833974070259282
Sc 8.798822140070587 4.310242619785757 4.123992892314963
Sc 11.221382040056925 4.506389670226754 6.317491169023925
Sc 6.943095304733083 8.372230438269035 11.80971932819009
Sc 3.24368216289552 7.647255517863006 4.555167413930216
Sc 6.207910996091249 6.276017633879689 4.632412924888955
Sc 1.5502596326284497 10.115069904621935 5.641044130781551
Sc 4.971647697116158 7.325060595705557 1.907186966859446
Sc 11.78524387788211 8.172398167771417 8.73884174725867
Sc 2.6705629889079567 10.924674144396853 8.489210293279717
Sc 7.381940712937038 8.657963726603128 6.674104685716472
Sc 9.154914666285022 9.56095582697 9.179099161553912
Sc 6.123946077472878 10.220604357194524 9.190136603805193
Sc 11.361882239545523 5.907162024364435 3.5527894445759545
Sc 9.95951336449571 7.30424065811924 5.840389592291478
Sc 8.535047826166533 7.361835126157148 2.9992902327021276
Sc 4.478480172635115 9.98261773857962 6.479994570236455
Sc 12.858014098608614 7.201351960936434 6.051938922056827
Sc 3.531459370050314 10.59867645532627 3.406888342469338
Sc 6.020083598023216 9.150904143732278 3.9696959276125874
Sc 3.0276454919256373 12.627994015264067 5.783989266208983
Sc 10.885849874105169 10.07810374158851 6.522966616962991
Sc 5.141163819182025 12.765064244724517 7.7919998218164395
Sc 8.813337617564313 10.252210922791072 4.3977403868241085
Sc 7.987126541239712 11.57413088036504 7.09592778921088
Sc 11.46289412971353 8.841566534876343 3.7214156175231183
Sc 6.011425942737377 12.077860956973979 4.864114523683511
