43
Energy = -222.7337595 eV
Sc 4.409174953665558 9.61589196213625 10.464612720381067
Sc 2.8535660298179595 10.768519935328435 7.645947176972385
Sc 3.338499563132595 7.757026168317606 8.193916160899487
Sc 4.6546537838823525 12.82669993061711 8.786193024414967
Sc 3.637331929625792 8.953872229011656 5.263304631813138
Sc 4.227900758671679 4.546768354377125 8.39455764224848
Sc 3.946552871827433 5.67972312468611 5.482079075108039
Sc 5.394588748503032 6.497278314081937 10.348171905833645
Sc 6.977281044809574 8.765198288204845 12.382093241452475
Sc 6.7647473495520645 11.444388511979492 10.649816752716323
Sc 5.182086394343228 11.98032342006902 5.717337375402532
Sc 7.4319097207549945 8.636552865628909 9.62269844268262
Sc 6.512163166672804 9.156146494458037 5.325837986392233
Sc 7.607238812230723 12.602694539388484 7.769762783475914
Sc 5.515612856586836 7.246637071531719 3.3485983186583215
Sc 5.662743714822384 10.225963226374473 7.979788914750252
Sc 4.935003078004285 4.169530860780209 3.1177434252318856
Sc 5.992590101176402 7.069075588437995 7.229876238171883
Sc 5.484716058219937 3.0404140628599623 6.053824801456004
Sc 4.783348571757469 1.5234267634618466 8.568668156183811
Sc 6.412876304630784 3.2983531799250985 10.408586164124307
Sc 7.2463641523418385 4.783483319467376 8.190671817402457
Sc 9.601319034884437 11.31088041704519 9.772172398221201
Sc 5.865848233798955 10.3676456435478 2.9046161192874655
Sc 7.056980360629633 5.202654216471815 4.855617100615931
Sc 9.937731524334426 8.604849274176363 11.206522188931634
Sc 8.349894809424217 6.0848573369576116 11.287480292229372
Sc 8.349035960718595 8.540118044847722 3.1374678562189042
Sc 8.80369393325254 9.881790502735628 7.27123270245958
Sc 9.543782463886041 6.697892465734374 8.627496962030941
Sc 7.794069708391923 1.9079676874595317 7.939003300725181
Sc 8.337796652911925 11.394362600466568 4.692096293090096
Sc 10.966390519669616 11.866288827038012 6.904278987738406
Sc 8.880634727009287 7.185477106041938 5.833454656598539
Sc 9.706712102843179 4.105971127263964 6.54057828149595
Sc 9.747231669338815 3.6022785411424003 9.659246642792521
Sc 11.3938920843878 9.222268610535341 8.54014166872749
Sc 11.801151802751525 6.285783642688403 10.19627221436933
Sc 10.925365312257751 9.409477538481624 5.2118323973524845
Sc 11.92107046566659 6.936051832749059 6.7506269420901654
Sc 10.93098327633523 1.59333158582297 7.783519041542961
Sc 13.499211012216568 9.809155734991881 6.579268066023098
Sc 12.276017941095986 4.146672643988422 8.153915775510784
