47
Energy = -247.62583953 eV
Sc 11.487033763253178 3.939853087407002 6.469871562029471
Sc 7.158781511814438 2.435641996207721 9.16482448022033
Sc 8.625777397593662 2.628093725163077 6.419477617417976
Sc 9.916437810886071 4.005391003768165 9.029201443361165
Sc 11.715308022375623 6.764263451427207 5.243804110741155
Sc 9.717063762293378 4.4090404959089184 4.008602833334945
Sc 11.440963296355168 6.619541947521777 8.355600638500581
Sc 4.278558727104034 2.149995531797861 9.35433148938571
Sc 7.374115505102479 5.388732494706212 9.679860640307776
Sc 9.680767560734054 6.797831885641172 10.954967022909923
Sc 5.271536832392845 3.99559558664236 11.579406993584817
Sc 5.22838181218834 1.8573382916817616 6.43978721990459
Sc 8.961575645862395 5.635199452935275 6.578717313125622
Sc 6.1810517117522865 4.411172686697945 7.0432197317956575
Sc 6.677028896581511 3.9243699962147147 4.157389782469736
Sc 8.785240881305851 8.093269301862623 8.34261627137981
Sc 2.1663998609874793 4.0890628841531536 10.405882811100563
Sc 10.952950158103109 6.736335428734556 2.3718286474084715
Sc 11.049134664568033 9.353383692381179 6.781083517255746
Sc 7.846476715340751 6.064959497367589 2.0400575194183186
Sc 2.5931680712616636 3.344264170953624 7.4135967385584545
Sc 10.952621870662755 9.374755317694868 9.923510642848875
Sc 6.653687974955983 6.944832810797077 12.267276766629188
Sc 8.05646546418168 9.51253287948925 11.001205848936767
Sc 9.16423235637947 8.721166197405429 1.2465495164409925
Sc 3.6980147296986723 6.779237355312484 11.4978620404575
Sc 4.602964869530212 5.947256143771385 2.3412481272803607
Sc 11.115077053123379 9.598820578031198 3.4861508774709073
Sc 5.89394924452673 8.011435401770441 9.61083505853411
Sc 9.026191949005336 8.007894544484452 4.483318380767855
Sc 8.747502032495447 11.119371884460751 8.376284113064747
Sc 4.353749094540187 5.170826924397533 9.074287977282255
Sc 2.0735192773751967 6.470608719247845 7.623677688963469
Sc 6.1013666584916155 8.471959775450058 1.7290070180327215
Sc 6.1249385620805255 7.020076456048016 4.44132094385707
Sc 3.8261429327382612 4.964430748682286 5.232781717376214
Sc 6.866123279930874 9.530415523702866 6.376168512841182
Sc 4.947869366315829 9.53206312238082 11.847843768929216
Sc 9.318263438508904 11.256665039281483 5.457849994947388
Sc 7.733389216629102 10.552630748586981 3.21602401399972
Sc 4.832218438196783 7.250400548195724 7.014403318743982
Sc 3.083217496522958 7.790673706715104 4.602387720505633
Sc 3.140980354864169 8.918584434607121 9.341613748768356
Sc 4.916050663024391 10.074615076563763 4.000637213755059
Sc 6.349677060320399 12.204026840573862 5.929202633405125
Sc 5.677156347647304 10.88897517083135 8.967151458675557
Sc 3.7821122747729117 10.14958962401293 6.639289086168623
