48
Energy = -252.39750864 eV
Sc 3.755603473621204 3.615433408343155 4.295772970315785
Sc 3.3009964267106633 3.6429151785145435 7.2538486709906085
Sc 2.9372188738067395 6.4891435261691806 5.271128078503901
Sc 5.272173215601219 6.482000749920151 3.4026814706406934
Sc 6.411370789721705 3.6127122873043245 3.3036518251965052
Sc 5.963152329325951 2.0582386154050067 5.9433758120135405
Sc 1.478304123748234 6.068330284490726 7.855465247423383
Sc 3.3747275642395103 4.932610699047794 10.119930740871915
Sc 3.8267823452082634 9.43020346063458 3.906548998739831
Sc 5.828626708133355 4.849829372991706 6.108604335446414
Sc 5.786696835391963 3.2491355471797774 9.054491486727303
Sc 8.244359455812496 6.167033633494012 3.0541506860237244
Sc 7.059681677517049 9.071594777494015 3.271279355593839
Sc 8.745085314929055 3.812422443241195 5.065619047463734
Sc 2.265815019261518 7.853923866363716 10.097090319954981
Sc 2.5018675322103863 9.023778450075797 7.045587193319627
Sc 5.475790730510334 8.379184892869896 5.865245932953815
Sc 4.325537868580026 6.874268787057932 8.16113700655726
Sc 8.616642818306595 3.0888955024055704 7.882554228667239
Sc 5.22885532744313 7.468109892363144 11.119460116362681
Sc 5.914141466572292 11.77359414992626 3.745934945250484
Sc 10.01109651791328 8.852737514374295 4.375088706899854
Sc 8.0910240090608 6.823722949161865 5.944762135120938
Sc 5.910294962363922 4.636103138114895 11.83089148472261
Sc 7.592220950945561 10.661359092957076 5.968659607145037
Sc 4.44796544294978 9.976476341656221 9.354607548641884
Sc 7.187207905203869 5.941078636016641 9.2039150895889
Sc 9.138407778028801 11.993702196270327 4.081779501646928
Sc 10.776783841457494 5.895017248833433 4.677075565364966
Sc 4.646668577595655 11.279920496708055 6.51402896733555
Sc 10.089984298544024 5.800869873110295 8.046212747885994
Sc 11.60023650141299 3.734302368779953 6.5688952801792935
Sc 9.760961970471788 9.003328231813096 7.370962714089202
Sc 12.232146867149485 7.732858367070709 6.32209206371832
Sc 8.066441411584558 6.67188269607809 12.227415062521528
Sc 7.011089604869712 8.820626646631847 8.491259625733383
Sc 8.68439804223298 3.9724860400445703 10.841470571207246
Sc 11.712631138133375 10.786510048939236 6.3686340232312855
Sc 11.365157953726133 3.3750590624409713 9.491653390049315
Sc 6.9911173463434135 13.488664442864387 5.868906599620465
Sc 7.24064333958122 9.79773497233239 11.256178606177789
Sc 9.53126172441687 12.589629756214975 7.10188450787857
Sc 6.981173310098802 11.921842918605757 8.718473413988148
Sc 12.929408012113438 5.786723230575604 8.572768604980428
Sc 9.52367396911543 8.070016707706676 10.178530687362933
Sc 12.240495591124567 8.805453149628383 9.129047032895883
Sc 11.1732396416874 5.882162196054475 11.125969056323154
Sc 9.796411827765784 10.944325776765023 9.59670881993305
