49
Energy = -256.93153793 eV
Sc 12.835366583533675 5.593777346929619 4.575277349031008
Sc 11.29981671838508 3.0169900095383735 4.255093146123723
Sc 11.429600526915726 5.188057559097825 1.974847690856822
Sc 11.105047952518593 4.841504439444884 6.940433616969641
Sc 11.16404102041905 7.8777633142599415 3.539627891014598
Sc 8.517993910597326 3.9832446292355503 1.7079322829141972
Sc 11.742006097988593 7.826669835338673 6.540856856832478
Sc 9.043095838368398 7.003211954261573 1.4423008920761295
Sc 9.15754444284498 2.473599390791561 6.811136850114527
Sc 9.499411922003105 5.423562757279485 4.252054094532916
Sc 8.426307911123816 2.2692206864343625 4.038069221382024
Sc 6.2959585731708945 1.5083248901295894 5.9555223362044
Sc 10.619812969653076 7.1194913851015285 9.31413984098541
Sc 5.716693417020747 3.154474881549273 3.44873504738955
Sc 8.663251705626521 4.757113007173222 8.833063159430802
Sc 8.753541156963287 7.166649729263466 6.838539537339348
Sc 8.116185347160373 8.333052544965703 3.9912248795015675
Sc 6.946510237999329 4.538845511091221 5.868035401233787
Sc 9.82510287166736 10.051729605732902 5.768358318611113
Sc 6.617220155973371 6.006437984095519 3.033594221552731
Sc 10.487566112424682 10.029354984454143 8.751418114758494
Sc 4.080760120302397 3.6005464720147615 6.630728805215877
Sc 9.465279493059771 5.694102897508425 11.735010937419878
Sc 6.211731627410615 2.8452021021722502 8.672402335556866
Sc 8.799279347899732 12.375314368575426 7.608091366623602
Sc 4.00165912215531 5.728168623647672 4.389407498853911
Sc 5.056141374235052 8.759774942409855 3.2579273207507216
Sc 7.432040740389421 9.857938773687968 7.894768943285652
Sc 9.584726003951715 8.832045687063843 11.798551190008574
Sc 5.732647789289231 7.827576052411807 5.861818515940121
Sc 5.692025062806072 5.863574955759374 8.427830447350845
Sc 7.276908569879711 7.120866340629553 13.101041018109843
Sc 7.57414308031546 7.610531285127431 10.085801252617673
Sc 6.512923329868014 4.720132443248447 11.259100592898825
Sc 6.974649428869798 10.85967108933972 5.081335560167317
Sc 8.280834822617104 11.251564463301028 10.42467124944236
Sc 3.577457607273248 4.419583076258408 9.757747597376973
Sc 2.5815077336946497 8.24305187404525 5.012145248034787
Sc 2.8481764049011784 6.358070503693631 7.293660627491997
Sc 4.562288646415876 8.9235595778041 8.771241149900321
Sc 6.1940400391643875 9.64206682436462 11.929540378114638
Sc 5.810473204205904 12.561052630471156 7.305426280601241
Sc 4.051316621038227 10.546092859713854 6.025231119245671
Sc 4.53901143185445 7.053617765607192 11.338007041852
Sc 5.402808257299744 11.694785488631462 10.022878218785323
Sc 1.9133891733405424 7.130870582046663 9.99946982030546
Sc 1.71179230021142 9.265593732670451 7.874822466507803
Sc 2.962871656009218 11.903527027535603 8.479430602684818
Sc 2.901476065182796 9.889663148192605 10.87485363865434
