49
Energy = -257.95661078 eV
Sc 10.029587685576578 4.906697506281185 2.5193599566128304
Sc 7.631451190545106 6.473880621093843 1.7804261978157554
Sc 5.582636635385718 2.393783331152037 5.632951289418246
Sc 10.429497206904768 8.293859056406998 2.3002149568505565
Sc 7.55663670639527 4.614939193678213 4.559288262720461
Sc 10.82159552998557 3.679608616085711 5.3893430231489665
Sc 4.392819385319226 4.906951849076011 4.473238816688954
Sc 11.83881601232225 6.244541891912462 4.296102103741815
Sc 8.330052049419196 2.6864055346888684 7.277999647947787
Sc 4.428745748449734 10.687783447849203 3.3951705222417297
Sc 8.916007016889681 7.213974845853193 4.287310715501952
Sc 7.556036481599506 9.68508972262901 2.9692636748000645
Sc 3.2680856845291566 3.567795704163566 7.3788100308634945
Sc 5.528041229202522 7.56583044961986 3.6709356705541545
Sc 6.100410063765215 4.483834984626825 7.771245704961258
Sc 5.526368923215727 1.7303802094572693 8.560913550928987
Sc 2.87597980910744 8.357844900656712 4.840592458545243
Sc 9.40151127449551 5.73065410072975 6.79051193983688
Sc 11.318837750972987 8.808174207881976 5.737468852946741
Sc 12.34165660424546 6.076157039253762 7.207185008981621
Sc 9.986546334205078 11.116026236522801 4.131638889949052
Sc 3.9426630000009135 6.50591739299849 6.823659653039616
Sc 6.917734938670248 12.170505978849041 4.656753475211267
Sc 7.565672056624954 3.3754032561323046 10.315178156194118
Sc 8.380031664440446 9.767250460622703 6.012884134157651
Sc 3.4688846530604964 9.219353774181403 7.840997324082881
Sc 10.478458905414387 4.076101751344582 9.060582979956617
Sc 4.175206300977767 12.047256450945705 6.51323270248663
Sc 5.553360201507472 9.701623069530529 5.724388313629995
Sc 11.592165356488374 6.667430059972922 9.943108236312318
Sc 9.736726162558988 8.504211084813887 8.44304158522254
Sc 10.324178075210893 11.302928764425724 7.631744680881752
Sc 2.1260781746459765 6.249426035522492 9.286268833605291
Sc 12.636182150679547 9.09488765059669 8.523004558941835
Sc 6.78561758936669 7.09878532720541 6.423179887774085
Sc 8.114002494076052 6.210030348906745 9.54991729366394
Sc 7.067142402812687 12.011578286059555 7.676653750389157
Sc 4.9178390190899535 6.928564517321594 9.697760470732048
Sc 4.365732236237745 4.0683242488389055 10.33912513366443
Sc 2.797236675831563 9.050144601620472 10.644149941438597
Sc 4.850112275086353 11.30635153045917 9.66127709455781
Sc 9.705696666004833 5.6261811447982835 11.95520057782615
Sc 8.322069687590345 10.959175169909825 10.259190569653873
Sc 10.99164105791004 9.30418192629102 11.032763863145638
Sc 8.31451595844516 8.266457929845586 11.673730957401721
Sc 6.678860248561463 9.100074072707779 8.749087603545762
Sc 3.386368028896938 6.544413132621676 12.129719974983326
Sc 6.490792542249702 5.858261088055351 12.100825434196326
Sc 5.479749411743228 9.037005059191225 11.81105323033899
