40
Energy = -206.76470919 eV
Sc 11.615759659706125 8.277661830524476 6.54837505578424
Sc 11.935503051015775 9.879452036874014 9.18148517037168
Sc 10.748618172246834 6.122019116109026 4.181497827023579
Sc 10.86855877697575 5.453997183863641 7.046272864623525
Sc 11.478411070220776 11.213340151225987 6.507731391116477
Sc 11.506211728994773 6.8511122784849015 9.51420600544668
Sc 10.504344241946027 9.486657579526058 3.8740066764203593
Sc 9.83390512046777 9.369915095995756 11.27092718096898
Sc 9.646104479009882 3.915276924909659 9.265671686166472
Sc 9.530729197886163 11.599197213566002 9.146008765434207
Sc 8.620995565607078 7.82867147914002 5.366064026152893
Sc 7.914736165386681 5.022424542778237 4.423117275246292
Sc 9.23468105527886 3.200330657133359 6.27998877969601
Sc 9.077717195132893 8.697718679854653 8.517968568712153
Sc 8.539377840814772 7.292608691772835 2.3885224575269066
Sc 7.976722517041802 5.800327342006611 7.660830507531905
Sc 8.633346553819367 10.879633096654436 6.132782736440126
Sc 9.026618374451663 6.400942302627035 10.781072530192368
Sc 7.252993429237823 11.169048686265576 11.38477440853696
Sc 7.464538211356436 9.93790812973898 3.4333721809754327
Sc 6.626189166695046 3.1380389446018033 7.969272321659109
Sc 6.29276597525437 2.4186595482909903 4.952137768787438
Sc 6.462992998572169 5.123175601608816 10.33712885832262
Sc 6.84654061931137 8.249539233503999 11.074696927706558
Sc 5.626297570172687 4.431113330992123 2.5893988587710886
Sc 5.102716764041077 5.115134865635947 5.904001602587979
Sc 5.772072962415185 7.273908592225691 3.6859674864264
Sc 3.858095461170884 2.4134136921321647 6.846661246194732
Sc 6.0047241067782 9.156031215892384 6.082962838130942
Sc 6.602970499199395 10.742318679285335 8.582054860612086
Sc 5.411620232001777 7.452326266137588 8.453635170527827
Sc 3.896346682189075 4.772457558754485 8.799141781720179
Sc 3.3370328668808438 2.9555227671352817 4.030790362398277
Sc 3.9338898084544685 6.863867574672024 11.095805832011463
Sc 3.043881012992864 5.794735759687913 3.3744391933697226
Sc 4.361990199084894 9.743721168726895 10.346038117094997
Sc 3.293766540734456 7.770987178487612 5.683414641626463
Sc 2.0768323514454443 4.967252046660007 6.249890821060761
Sc 3.614404534046875 10.221399541218906 7.54072483807202
Sc 2.4476580187800474 7.516417182265302 8.549515773868702
