45
Energy = -236.06305679 eV
Sc 11.291881863549111 6.442907072527925 4.864871126474718
Sc 10.813352467586872 9.055544513117717 6.102118966265348
Sc 11.116511986652794 8.95173931575686 3.0771192871438635
Sc 10.893584901389028 7.007542311124981 8.520261630795712
Sc 9.723335738052194 4.861550825327703 6.810681397739936
Sc 9.961846808884228 6.543443597719776 1.8374436975311867
Sc 9.854777587511155 3.1295908589186925 9.268506819812101
Sc 9.122556132286748 1.7636291292238975 6.19661579405937
Sc 9.499732642933763 4.125534403379986 3.8175274094853524
Sc 8.526304480129372 7.6625783828506995 4.196403655744497
Sc 9.024088317320247 10.83321119342268 4.331500546461186
Sc 9.040474047261801 10.8401780660522 7.542806830012267
Sc 8.270937490307357 5.70532351630348 9.429560250046414
Sc 8.322582257678594 8.898643338263529 9.87244485263162
Sc 8.386472163907902 9.247442646613969 1.7108759988178688
Sc 7.7075093525385405 0.7397049400984578 9.021906089634559
Sc 8.262764074517433 7.541551913841649 7.2302357704919675
Sc 7.265377561440546 3.2636265062028373 7.71120324488378
Sc 6.8278901978148525 12.577459924759022 5.801578759170327
Sc 6.952978954631566 3.353383716724921 10.778384643670302
Sc 7.227655811546684 5.282120898419241 2.2642319243681523
Sc 6.850863480383017 2.627866018072689 4.094106608394207
Sc 6.270419315118045 6.762766685890633 11.292033843116785
Sc 4.425488385156666 5.331734905258322 3.512878210373317
Sc 6.962534441947242 5.214663641660124 5.339408785028898
Sc 6.140242908504821 0.8234389194948397 6.454062697357896
Sc 6.768690939371428 9.744684958502392 6.008957840030357
Sc 5.890116963517743 10.682376147018045 3.4110256161303063
Sc 6.280327209702276 11.263588443332505 8.657269736083164
Sc 5.77960439685403 9.865473525096865 11.392103161743936
Sc 5.767201832273234 7.846455295371594 2.5338527556630313
Sc 5.393195364333708 8.321516125428905 8.815703921669922
Sc 4.058403853470437 4.723391094514519 10.743712589824208
Sc 4.828465789372594 2.038265465128951 9.018647019403078
Sc 4.1842995458744765 11.110125343731408 6.213894331588207
Sc 5.1320761577914675 7.503149631085149 5.605452824068289
Sc 5.095410019011962 5.326809620698859 8.0371128902995
Sc 3.2517954246324243 8.854807248219462 4.036745044703004
Sc 4.294673172871057 3.2528205320906247 5.840814666165627
Sc 3.5592426653441533 7.924632936928206 11.382647606605348
Sc 3.411769650930758 10.4516353584471 9.533318236814294
Sc 2.7064001983951043 8.807486303949274 7.0572818358609135
Sc 2.435903849964404 3.748789319036212 8.281297287321479
Sc 2.4901997350251306 6.6641440181593055 8.992748755002962
Sc 2.626876569574142 5.944886142380212 6.0331556984792005
