46
Energy = -239.86516023 eV
Sc 12.726127578139296 8.668065964168916 7.420720713289273
Sc 11.196767268497071 9.37870453747867 4.88662656648879
Sc 10.257867067112 7.092797865523695 7.137850198557173
Sc 9.400676115748723 7.292418892854563 3.9933831789886884
Sc 11.874332398216568 6.075275926914957 4.977779110886949
Sc 9.978085035094796 4.054556288570573 6.6445292778132705
Sc 11.178955033070906 11.440103718516907 7.161230952416222
Sc 11.716548607073811 7.477348070035609 10.124829979782755
Sc 12.562247099027834 10.485333427558409 9.854672194293455
Sc 7.940510752769403 9.777224047789058 3.008557112803334
Sc 9.398778869957122 5.22020136689336 9.323262739435684
Sc 8.387518791101161 9.407046674669784 6.1445792902561465
Sc 7.521563666827166 5.820644122758201 6.026003227380504
Sc 6.895570866900236 6.755496986908044 2.6260840756469643
Sc 9.073325696942822 4.383116978203277 3.794008424035327
Sc 10.004861720798342 12.22803904183249 9.985370682937242
Sc 10.451725844496936 9.932228708596167 11.86596339336674
Sc 7.9347642590854415 11.914297479548932 7.7100399874794014
Sc 9.209804010357171 11.886457105385825 4.817076509525477
Sc 8.20473278312961 2.4575399739772634 8.938031659647155
Sc 9.840586952306536 9.437675639806253 8.961488874035064
Sc 8.85495381085515 7.45623083186357 11.382502399692326
Sc 5.928778704929714 8.36309203556806 4.939468515919194
Sc 6.222305318212573 11.37739297127621 4.944597618298007
Sc 7.301094042401893 7.350218939259244 8.798068816823415
Sc 7.117555515910038 4.896657710895514 11.134400864370127
Sc 7.275140057568371 2.6806853807001363 5.95994872032477
Sc 5.636688345146023 1.099775193181654 8.047126248113726
Sc 4.634901140539203 9.534080741801564 2.610500477249361
Sc 7.433974024251654 10.206642425022775 10.420991984656858
Sc 3.9990745519412334 6.5653767867805275 3.136553477854016
Sc 5.789522064168653 7.632035839321459 11.388007390147912
Sc 5.852163616528298 4.292572765557792 8.389213120575912
Sc 5.716414840755005 2.2073306445161496 10.796466731675157
Sc 4.3499011382180175 6.107046225708817 6.213381067794027
Sc 5.574998669000809 9.788238650381341 7.776466392326193
Sc 3.5119345156764488 9.979490306257928 5.471184454580546
Sc 5.793025980001405 4.3278917607568355 3.957861918153886
Sc 4.04756013383831 4.947218201957541 10.892941553931081
Sc 4.008097470043711 3.0545474103186434 6.1413041129239625
Sc 4.100817851834127 7.27560654213713 8.967689222322045
Sc 1.8505956320703643 8.255590722401463 3.8255838338477597
Sc 1.8464072052436442 5.297443179773895 4.924700825549722
Sc 3.3161575467569775 2.593638543289266 9.074484851314999
Sc 2.154372230247294 5.095564391334011 8.063397922030942
Sc 1.9292902968288008 7.809867704102304 6.7957282404039745
