42
Energy = -218.6150083 eV
Sc 7.1328783916442005 11.056199886152433 3.014311883260035
Sc 10.686380679365364 3.017053240606598 8.336655942648797
Sc 6.558099040820773 5.28669125384173 8.009905739781217
Sc 12.243556586888719 5.3534722857398105 7.078037849380994
Sc 8.059331920433861 7.071135784396484 5.695932073799929
Sc 3.014656011696715 8.858488982148753 5.038430221689222
Sc 3.3172894343717725 7.691195017701317 2.266911622799708
Sc 9.092201207721564 8.663752585925426 8.065114940515086
Sc 7.098329541933953 10.99650826551 8.457728203064459
Sc 2.4147298865684976 4.44778372437793 7.48321341474545
Sc 10.51994952217859 8.135323204827412 11.130063607017917
Sc 5.659147852907387 10.595199100475398 5.693391895928734
Sc 8.928093510876865 8.783744400652987 3.117975854847031
Sc 6.004975453460916 8.278332417987963 7.7014653236008
Sc 6.066361829743206 5.317821830336909 11.27201843850084
Sc 4.919934720384139 5.38807980332458 3.0051062318888078
Sc 4.3351879640817375 10.471117658506857 2.62517942712506
Sc 7.815124641001722 7.294228088124006 10.085802377931467
Sc 5.922745693436538 8.208047972392896 3.9399024941831864
Sc 9.228189600175275 5.243489625775859 11.617690141326168
Sc 3.59136536182008 9.688536368657413 8.058276734105725
Sc 7.922464435875183 3.244850812016828 9.882311645716626
Sc 9.827215507126917 4.468351394545819 5.387864048925354
Sc 10.387863781987598 10.882773687731047 8.891629279751937
Sc 7.696136079489251 2.6283830843621447 7.087713944701822
Sc 11.886079207576225 5.409748718317801 10.051889257644525
Sc 4.353852102883941 3.2825028675909453 5.6521600078283125
Sc 4.924244018961942 3.1330116587856667 8.760309596193895
Sc 4.446460317626104 6.311639817762362 6.0906376257893395
Sc 10.903842089597262 7.744993636447178 5.49252672561803
Sc 3.9788702203427 6.506194566016651 9.264443399774736
Sc 8.778591289446068 10.342214767683094 5.7191057266347345
Sc 5.453531796451888 8.862112148804975 10.744629432183942
Sc 1.7592928854081327 7.321448331183281 7.265278447362354
Sc 9.518609785670344 5.605152174238833 8.235749349153215
Sc 8.264924735339012 10.138935248540175 10.981432018745036
Sc 6.911553022194298 4.389674324458794 4.869782688153998
Sc 7.7482805733497075 7.6978137684340435 12.824224507066894
Sc 8.122812165094029 6.04614359481886 2.818182731486181
Sc 11.996095529529825 8.008544988530723 8.455677208778344
Sc 2.1429700470413464 5.718005852716084 4.523160190002957
Sc 6.305738042463235 8.414515513375202 1.262741105291586
