49
Energy = -255.38524464 eV
Sc 11.326518633453675 10.227020211886398 5.952335088882436
Sc 11.74497811909646 7.243556961784426 6.746637938481972
Sc 12.093263792178734 6.362046959149296 3.8787556081941936
Sc 10.579678787244784 13.187699818519512 5.523985294115327
Sc 10.971514852530806 5.963800273492823 9.276461123011208
Sc 9.753411669242226 7.976253203943271 4.417842100784262
Sc 11.26694798837978 4.344397387490675 6.1605273203895266
Sc 10.765175248444304 9.06320116939659 8.88018860036021
Sc 9.247708995465588 10.979112547788011 3.9533402518447374
Sc 9.793297628292786 11.840825804697435 8.103931976727134
Sc 10.020501301576013 7.719430837559377 11.919396251612614
Sc 9.704277364381863 3.3714444070007543 8.655673839941725
Sc 10.101850935060813 6.80421010463384 1.6267894802850222
Sc 9.235472374291781 5.057770441181395 3.8572681591346987
Sc 8.902402419641929 10.345075097711998 10.92646398587012
Sc 8.904189485349058 6.051093437820189 6.871130926198283
Sc 7.885684599586138 8.804806191386277 2.1203948145408997
Sc 6.677373571513524 7.196622839976039 4.590457302046679
Sc 8.223643024052093 9.477869778509561 6.6751431052226256
Sc 7.631497578677157 12.431729862341271 6.098419133759285
Sc 9.046093137123261 4.798481965516882 11.191140780981527
Sc 8.009702241294793 9.337839057010061 13.589032310149403
Sc 8.098962213259165 3.009220571928097 6.275478869354402
Sc 8.146955317823313 7.550777822471962 9.6291873598904
Sc 6.282911644267608 10.311749972653718 4.128036562027529
Sc 7.0091212872761774 5.987292349848579 1.7782022922762841
Sc 5.027844010989715 8.401682289853158 2.0869266991997177
Sc 7.183691454894833 6.648703294927008 12.459747300269008
Sc 6.282421020565918 3.6975978051034155 3.959924807139776
Sc 4.809660409235206 4.997152827088445 6.400558672496201
Sc 6.957220565265308 4.787688929764845 8.744241069018004
Sc 7.073511444055466 1.9368036597231326 9.048822753625199
Sc 4.177754033409392 5.799805342033194 3.242886559606919
Sc 5.965973846342991 9.161576942798165 11.210480833603023
Sc 6.8965545022928145 11.133848679903803 8.892273306559034
Sc 5.285637029969009 7.977505223206838 8.04201606626163
Sc 4.809962883218949 10.738904395022358 6.64798408211027
Sc 3.8240321873930467 8.368833236813558 5.012400247300127
Sc 6.393862907363489 3.5619764976968096 11.571753497123415
Sc 5.121918387818412 1.9962272378654393 6.478606064196454
Sc 3.282300764504155 3.1618675396615763 4.304662762184249
Sc 4.991389238239459 6.053151811700241 10.535290042119994
Sc 2.043559867648511 5.925955554767381 5.553044005715987
Sc 2.8718475317401473 8.186335874383591 10.607248069152185
Sc 4.360226095713077 3.304715086818717 9.230693123638556
Sc 2.3531029144034745 8.704513761405694 7.646334607756749
Sc 3.938718122546918 10.580470954574439 9.43119399124447
Sc 2.6932538405659825 5.839125386308955 8.557774729101059
Sc 2.2795399953663504 3.2104536506824406 6.993302979667924
