44
Energy = -228.74733177 eV
Sc 5.605239891476605 0.9041779047224994 8.518417352464468
Sc 2.9426497463679064 2.309476887690033 9.015932415255323
Sc 4.762283419196349 3.1388838293388805 6.764625975923921
Sc 7.867395611116122 2.0345814360043595 6.537238695298241
Sc 2.02948115316719 4.649635072459343 7.320600690234095
Sc 8.127603067866595 2.2386401077181373 9.444649331013892
Sc 2.8143613129752265 5.071167734593744 10.319779246077493
Sc 5.501037623193855 3.6082625331854694 9.855933895292441
Sc 4.0216999954911286 5.76406254280883 5.069610484321227
Sc 6.74857924322201 4.291526282208476 4.471732670011238
Sc 0.5080648801441232 6.415546888090884 9.113394556944069
Sc 10.120229505875665 3.9968304461426634 8.03677019249395
Sc 9.920688141676516 4.193973228308912 5.010634731688329
Sc 8.325488562182377 5.211131609880349 10.344446343470135
Sc 5.693078183879635 6.624464398422893 10.923241231497702
Sc 7.356956258117897 4.794579050418877 7.427234145064203
Sc 4.666145305369397 6.190091837729305 8.042492253217468
Sc 5.5289737896265025 6.582907619460834 2.6066007049264854
Sc 2.272534741974807 7.658777744427203 6.894920150620075
Sc 8.591048428575014 6.278554063411125 3.1293185885372274
Sc 3.063307982204524 8.041117942782195 9.772760985649503
Sc 12.28617281372904 5.608909714796459 6.66855026177972
Sc 7.622990747094416 7.838212531721706 8.664535462978494
Sc 9.576129133209413 6.739388721558575 6.316865920003103
Sc 4.935164387374483 9.200742436627241 7.455950586189523
Sc 8.430933974185987 8.206121906848498 11.498963663017472
Sc 6.651649752126926 7.442869386526457 5.287943454197756
Sc 10.641579923723327 6.879828856486427 9.223351176473793
Sc 6.703707520953169 9.314514758907102 2.820218718790603
Sc 4.111078058717824 8.747396705519025 4.39209206314383
Sc 10.005270988883874 9.963358316456667 9.319436125686646
Sc 5.851123887150069 9.515107140023636 10.489606798059947
Sc 9.040135278660669 9.848033454536397 6.197723474676906
Sc 9.503465379096564 8.945003302336223 3.2978290406811777
Sc 8.181043904495272 11.301506208971537 11.323112325773396
Sc 11.615759615963043 7.223716434848726 4.209880007132265
Sc 7.2054223759925575 11.339601346058302 8.44442662044632
Sc 11.880474624689478 8.648273594359033 6.956200999299476
Sc 6.339747578007331 10.987576534780809 5.320977505829623
Sc 11.48703242900258 11.770313086330344 7.323043805921697
Sc 8.725869196617888 11.66323719336136 3.551433909125323
Sc 9.614916884236491 12.959695621936223 9.314670297433969
Sc 8.944628352586111 12.84456344780022 6.327713091172537
Sc 11.435091570927883 10.648650328688497 4.570860760498469
