47
Energy = -245.42892116 eV
Sc 5.971160335102457 4.315721438096454 9.649596556986088
Sc 7.016556174293865 3.17820213133535 6.821307392304665
Sc 3.9365262443218523 3.0719846815490808 7.533315982480722
Sc 10.101539682317682 3.9706571875374874 8.001113746738646
Sc 11.869959696570444 3.3816234555389313 10.284075332518663
Sc 10.249089874358535 5.44189295247667 12.063807913224785
Sc 7.186705582350914 4.915136624279564 12.379529605367857
Sc 8.796090041194997 3.0887367228863023 10.712938700099997
Sc 3.0469231582368894 5.162760493512883 9.327553270756141
Sc 4.6649268971707105 3.953800621948399 4.709873264191652
Sc 4.737512259533455 6.7125771235173834 11.352570337004495
Sc 7.627721792723265 4.156517983219088 3.7415819143804927
Sc 5.150948606115178 5.85053670688498 7.107078467079971
Sc 10.482200690232347 3.937537983126875 5.068283272928977
Sc 2.370758060665218 5.572515980711283 6.3491832384915465
Sc 12.946753853249065 4.073957299156788 7.423446797331057
Sc 7.434160230730817 7.994504799799121 12.051770558667766
Sc 11.720062092516525 6.20319915281351 9.36214790988752
Sc 8.315962193677834 5.840640315426735 6.383682198556621
Sc 10.242406091635122 8.552898167300208 11.07093335379121
Sc 8.523529964302801 5.934283103808977 9.831687498616827
Sc 3.294101933244217 8.032898294727982 8.737451144422922
Sc 5.264670682965883 4.74391935650911 1.7870463576007674
Sc 9.435306466886468 8.082698270789558 8.173490167291948
Sc 6.275216854584916 7.88758386704384 9.141300670055697
Sc 3.387958165366205 6.47025356826817 3.3205257938671173
Sc 5.12782018327994 9.8721898538645 11.09300959231891
Sc 9.450712875633457 6.730846903479809 3.7580113262020682
Sc 8.029973895903359 11.34187497351626 12.291444427776101
Sc 6.20704329089497 6.614900291729538 4.17164493418666
Sc 11.361501411755631 6.437252494264029 6.370175004487626
Sc 3.888308935882635 8.40568258154605 5.674396034122363
Sc 4.35686891734738 7.21318469224597 0.45325732762707366
Sc 8.091342622819099 10.105705453745564 9.911343026704692
Sc 6.93917683724228 8.615480368316923 6.179454187942296
Sc 5.001104642909465 10.548257234876578 7.8639438663815335
Sc 10.010504739467233 9.280243716181376 5.474399352383703
Sc 7.201838861664845 7.013998818972857 1.4114872762901776
Sc 6.286707130196875 12.447822504291334 9.914242343066604
Sc 8.01491467339847 11.071182099450166 7.352105018071626
Sc 5.1398600976230195 8.99643628208376 2.8341007953157766
Sc 8.044973436529451 9.496905879277591 3.31754693572656
Sc 6.181436499871035 11.283652642396575 4.99383843640936
Sc 10.831704293163133 10.60399684335616 8.265808122508002
Sc 6.914412618558992 13.592263573321453 7.053162298529197
Sc 9.152906232384675 12.20920000591367 5.097820808649627
Sc 9.090400419608768 12.969750026730582 9.50824886700062
