41
Energy = -212.57376006 eV
Sc 11.687909147578186 7.778411600947384 4.979323272033556
Sc 11.662150406046427 7.222196940890968 8.093540809053213
Sc 11.897876311772018 4.575788618648804 9.37865100151556
Sc 11.974858925782643 4.758518455719123 6.122522300232718
Sc 10.752218192106454 5.43081139782162 3.2747857938606972
Sc 9.301087734387858 8.562982756601354 6.695231734697465
Sc 9.783612501705722 10.887866591565032 4.755807011348642
Sc 10.22443155372584 6.402941368921999 11.468247067639915
Sc 9.044334338773599 8.023633623032158 3.3958171556773404
Sc 9.57526056252676 8.967178749645326 9.659607360890345
Sc 9.758541428756812 3.20357204560012 7.7103432164475425
Sc 9.22054986680245 5.738265120489916 5.884957764876276
Sc 9.597662807221589 3.489536285850699 10.8277020686141
Sc 8.128020482092616 11.305586193879082 7.469243285172455
Sc 9.568443928857842 3.0640819992642725 4.640004235963633
Sc 9.025672033448723 5.962625082202843 9.027500239637021
Sc 7.638025988742408 10.770157007764997 2.4116940215382887
Sc 5.81727904871265 8.004967275495265 2.7759687122900267
Sc 7.103467447541689 12.620078301361941 4.890821158844229
Sc 6.996093482355775 9.663083751863056 5.002938115994408
Sc 6.996329868187473 4.812309455688092 11.48287017037503
Sc 6.2043716203585575 5.559434769185729 8.627743344243761
Sc 7.5399132116305125 5.164686636500109 3.3834776567784295
Sc 7.17722138181654 7.707576816976566 11.041788851057598
Sc 4.737470130400695 11.090447144961818 3.633644487892438
Sc 6.345586669028655 6.833889927104644 5.726999499566902
Sc 6.71147325061636 8.660486697260534 8.235938432594805
Sc 7.101596549211638 2.784647902537596 9.119289948528422
Sc 6.7781277869988905 3.741524139683699 6.054979303912918
Sc 5.024796808448958 10.893460189766603 6.79478915108782
Sc 3.820704496216189 8.534837378497116 4.991485954230916
Sc 3.914690970826283 7.4012752368258115 7.818878425293637
Sc 3.766633873777701 4.29286222858082 7.149545494917559
Sc 4.397860932631426 3.689654329837861 10.131585181691365
Sc 4.209655954543124 5.492768834269307 4.424089780002779
Sc 4.242999089620004 9.799453415444024 9.720769468696346
Sc 4.230268772151266 6.702216518221717 10.803677890615946
Sc 2.1824793756055003 9.862595174140985 7.231715468732983
Sc 1.5984001658236444 6.663461467443487 6.478038807504482
Sc 1.9834876763596139 5.310471017621999 9.216740011864532
Sc 1.5986231106246334 8.167902379804255 9.621320004843604
