48
Energy = -252.96542466 eV
Sc 6.3687725319876884 0.7899828992864676 7.515953632622333
Sc 10.568956356476916 3.0327924536234203 5.294053463138626
Sc 7.79829583268355 1.9132841071079405 4.974220770652038
Sc 9.170101830601 2.01319611897031 7.941326852190255
Sc 9.230476905826567 4.139096736853807 2.5346098897816676
Sc 6.936113712247215 2.5646767033053015 9.912937053983452
Sc 4.175781041389763 2.88272123393537 8.632225456235822
Sc 4.602586288447282 2.6357445535944324 5.488862429390868
Sc 6.806919397689229 3.662613045170829 7.216186205063798
Sc 10.008713909091853 4.959553808534131 7.574791820444695
Sc 11.037266384888868 6.038696675172275 4.651811446700126
Sc 6.124370343413482 3.6414634382114826 3.1466630378260696
Sc 5.274637407649549 4.67576018363394 11.104270257383545
Sc 8.272287428475874 4.97945987743016 4.91123497669156
Sc 9.270667024628171 4.211095661347255 10.613777915104826
Sc 10.603810653573277 9.077784185064688 4.567645054882472
Sc 8.88152975406722 7.3096778416343815 3.011981765170347
Sc 7.530482921452056 5.918808042863836 8.989756058133187
Sc 7.487591635378537 6.641126235232846 11.92364436082786
Sc 3.5150290057223486 5.268841580924977 3.2939723686162266
Sc 2.347509881451775 5.148079351235314 9.970786211173507
Sc 2.618164033291689 4.833614674857405 6.608536602490461
Sc 4.671274526867279 5.87923982433858 8.521217584910875
Sc 6.204907923328621 6.464915305760706 2.3030140933242693
Sc 8.443714193125937 7.540340294857067 6.3518075022236555
Sc 9.863924769878958 7.2811396018067835 9.998621294456381
Sc 5.363542862479623 8.47093490657957 7.187688055606339
Sc 6.268821729166897 8.649378798672306 4.517893383926721
Sc 4.035266945406423 7.5030152819662215 10.988930060415214
Sc 5.385448509028657 5.770624255635799 5.417156300422419
Sc 7.137974810046068 9.726196781171385 2.130537683696819
Sc 2.4116688120634224 7.743187718707803 8.195028601543482
Sc 11.31013668408336 8.040043829502618 7.340909301843751
Sc 2.8355306365949766 7.4568272908421065 5.216546978890789
Sc 11.538516096363097 9.868290803267843 9.814843614545609
Sc 4.00963662232717 8.753615289690325 2.7758705989728316
Sc 8.74901463294678 9.96499655679674 8.311826556672077
Sc 6.536366460985376 8.647313737366881 9.92178973034326
Sc 8.298386946400134 10.720259701692608 5.19262648909556
Sc 5.933098552270912 11.35788561976794 7.057127469863565
Sc 11.060513384686367 11.174408485829591 6.958476172303786
Sc 3.994075670301721 10.248707230983593 9.149644521947577
Sc 5.407659038830511 11.390636031218685 3.999325688861622
Sc 8.923616320884936 9.831786605935102 11.44822710713046
Sc 3.293251229447422 10.240669174012492 5.928882301244762
Sc 10.018944290715567 12.346535663352322 9.836591341130408
Sc 6.917875815813116 11.771991230704224 9.921965077643458
Sc 8.456320798824276 12.94716735033896 7.37789972717118
