47
Energy = -246.11426458 eV
Sc 12.146502799174382 8.971390254499545 5.0677713620622935
Sc 11.209169136083828 6.324519770245382 3.5684590226572963
Sc 11.719453112955074 8.658364481244389 8.204073944854493
Sc 9.871687139340574 8.892239999589032 2.8326838263895646
Sc 11.879191546099074 6.148446123894018 6.767139405538058
Sc 11.012824692945872 3.9113939966845837 5.194022573167869
Sc 7.543680870765541 11.343296258681379 7.813552238529071
Sc 10.30586109834862 10.76218391177995 6.80536371299945
Sc 8.881545971748954 6.093493306060579 1.7180978883433313
Sc 10.001170498860061 10.44440966675941 10.003733437157921
Sc 9.992387438402348 3.2729453228900063 2.5471061781436872
Sc 10.634723976354932 6.058675519844724 9.705950784855874
Sc 8.733260010180652 8.53642988475126 8.389204596315846
Sc 10.503157817958527 3.2358222755179535 8.051801997470651
Sc 8.88941899274255 5.6041369846514835 7.3396087888307875
Sc 9.480507616533655 7.967729731478908 5.522083951224313
Sc 9.785376763726314 1.4274506711278871 5.35108369708839
Sc 8.308672093935733 5.042084341701106 4.462458129362556
Sc 6.509204119349238 8.870272698673366 6.308808389758696
Sc 6.924910805900085 7.638788171395879 3.50289866051269
Sc 8.57618091343608 7.612154616555746 11.138998308830038
Sc 7.96965871128216 10.694277210791368 4.6765891124106265
Sc 6.27926814619452 4.641203653708983 2.473218072506264
Sc 5.1631348358169395 11.567110930798835 5.84599144715818
Sc 6.922330847786667 9.976175674032806 10.66680509141078
Sc 7.498455000667931 2.1268159029495064 3.708354651516886
Sc 5.982235818237889 5.874530660321702 6.348963017170211
Sc 6.134537846394722 7.110662610320664 9.210034862373433
Sc 6.70974342201124 7.901787222405819 13.234906840852242
Sc 7.607111376289896 2.9176587322203265 6.831086864628172
Sc 4.1638896517893595 9.211497327370855 4.229344773610162
Sc 7.945951718340956 4.531998741166621 9.877996491882316
Sc 8.499590621948553 5.323118177916467 12.801571750399917
Sc 4.019621596156747 6.200964667894131 4.104236935748732
Sc 4.690588750100686 10.128245856156637 8.547148245080558
Sc 5.131478765445904 3.4127148486777727 5.048848010811917
Sc 3.5999681833388375 7.75082785992357 6.988755662268413
Sc 5.1729204842374505 4.010399749578437 8.647044931327713
Sc 4.338784717688675 8.418447213862281 11.235733130184341
Sc 2.3268898475613202 10.335554026431929 6.378504881889591
Sc 5.618471977975755 5.54908232967421 11.725415675592664
Sc 1.3296708562859532 7.704929721956026 5.0834184441677905
Sc 2.897303453141726 4.9134443655287825 6.692061685578323
Sc 1.8161235655831343 8.974555946155107 9.106868980243645
Sc 3.170029510902383 6.116086276881401 9.580282729399906
Sc 12.146502799174382 9.225575476240538 7.035977640808213
Sc 0.6413987764092636 6.62334892727548 7.84538443497927
