40
Energy = -206.46425377 eV
Sc 10.38513010352292 12.613107714840378 6.01477737181705
Sc 7.594914834430057 12.82790100740268 6.181393292633674
Sc 8.293113338429388 11.752900541292739 3.6236584664451703
Sc 10.810630510098003 10.231609956388734 7.954243308593249
Sc 10.109078133479251 9.815799161632956 5.040573053319101
Sc 5.228323598211756 12.293807050709084 4.834529741127691
Sc 8.78521281719557 12.351853580603068 8.789714789884378
Sc 7.672778905401401 9.986661786360015 6.992073755252955
Sc 8.702531851387347 8.556609248843733 2.6542649902374484
Sc 5.547424673550402 12.091096115334938 8.151181904212516
Sc 11.849783857272005 7.90038516131971 9.915305958545002
Sc 10.969706169619002 6.918693835808315 3.902887682194073
Sc 11.038557852124882 7.407313328892133 6.8797001079271025
Sc 6.288408929329904 9.605912283264352 4.168516645498239
Sc 10.06218373808215 10.247752862801388 10.751950512545768
Sc 4.37192226320716 9.898299410803578 6.521151840355409
Sc 6.991220859356246 10.039516104211433 10.070820650256735
Sc 8.811523310544414 5.304246709456529 2.860405865785663
Sc 8.116016212597856 7.223799600750514 5.442806904696783
Sc 9.024822100329716 7.822876782051723 9.132629522474309
Sc 5.76353746230419 7.653815009816413 8.15952094343302
Sc 8.36198296472548 8.502746844552565 12.319641445854746
Sc 6.292947980220129 6.683654216968506 2.7609939012819744
Sc 5.21100981663553 8.477517989102221 11.98151996938403
Sc 3.9029135655081317 9.591766365819158 9.49082663419594
Sc 9.827068943469648 4.684338748945188 5.7483521618084685
Sc 4.8335544747982215 7.106121667417569 5.329197925846345
Sc 10.68734837670916 5.082390315831033 8.84697587297205
Sc 10.01248947810391 6.2020933009951795 11.569114770578407
Sc 2.729300821110623 7.490326320697689 7.631319003674367
Sc 7.616374297891378 5.048650374071157 8.020874930245423
Sc 6.938840268162249 6.219336663863984 10.945872804940453
Sc 3.89143123781951 6.429268084589189 10.170906055122995
Sc 6.690947236502222 4.518870508306318 5.057815133009528
Sc 4.463549341282069 4.895261481629377 7.440800712799895
Sc 9.111904407924202 2.35264604729836 7.868387965249507
Sc 8.595283535556513 3.54270733118558 10.545620353293279
Sc 5.626733661241457 3.5987416843655904 9.927830071553124
Sc 6.162852300161673 2.2811211253213477 7.295299268722326
Sc 7.2205241810758585 0.9442176442766222 9.70219106297906
