46
Energy = -240.38628221 eV
Sc 10.37698376323094 9.344281507795065 3.589429419693944
Sc 7.451931125998898 8.048696927802938 4.007261678446193
Sc 9.893693930862307 6.4290663642546075 4.200329262141043
Sc 7.39733947833783 5.4818237372420855 2.0754495218236384
Sc 4.747580335598734 7.56355713560458 2.3572144462024514
Sc 8.349204264716 11.020202228880617 5.230662811372218
Sc 9.632946324105179 3.6803299240802665 3.3475993444336214
Sc 11.454420408065738 10.824954478272883 5.900874906323991
Sc 5.342696391138978 10.072452911335954 4.647917133881588
Sc 12.234285512963464 7.658407258861049 5.759333274851714
Sc 4.633795440362534 4.527566443948837 3.3414410867060376
Sc 2.510761978291931 9.18794539401711 3.9887977038232414
Sc 9.596235317000223 8.644389636188828 6.480542268766421
Sc 6.978781203818525 2.5442728587790757 3.223327504994879
Sc 2.1069449287643764 6.309474208226279 3.432255093553841
Sc 7.140484616675699 5.04463342331549 4.921938694402214
Sc 6.209076517091371 11.22607966824883 7.5093448168146715
Sc 11.440576609145705 4.3662268089311045 5.784527872865234
Sc 4.487795810262763 7.042063635919542 5.19826543506781
Sc 9.37114375822072 11.141160028819986 8.208848538578689
Sc 12.067571203799702 9.285207861051445 8.535266551086071
Sc 8.702266117381296 2.6296332315933455 5.988786303296235
Sc 3.4091616169238335 10.037971524381575 6.947267022772859
Sc 7.394918587327308 3.3576598401940676 8.732882370429921
Sc 9.010471483145924 5.621596085328903 7.234617671245003
Sc 10.202958019108001 10.125235950595702 11.12666004753273
Sc 5.512445662303021 2.6542987597993775 5.938111040293938
Sc 9.721868253406843 7.796356087895833 9.454233052020204
Sc 7.255908144945988 9.576923203773747 9.905025676908611
Sc 4.101900731274412 10.207386907664308 10.098936283479425
Sc 6.686347301092878 8.266372477308622 7.043381166865754
Sc 11.950287824696996 6.025766201466916 8.41862830313994
Sc 4.197759550152574 7.653106569540785 8.738306549490426
Sc 1.778895738170357 7.350632263058814 6.353806077168248
Sc 2.8181126605106606 4.480960750522363 5.846786708287309
Sc 11.726609609547067 7.48340693131408 11.411566944411264
Sc 10.49070768292136 3.306351924893921 8.453275995118751
Sc 1.4507318795114255 8.919907719388103 8.981359095693675
Sc 5.312283898227754 5.152828105366815 7.5451224741374485
Sc 8.753384968203994 7.675687591067374 12.18233944889107
Sc 7.124199622509081 6.3784292799199624 9.680587003700888
Sc 5.458694158442266 7.879574745033527 11.76093826276957
Sc 9.762593707641777 5.062523152575299 10.778322988503007
Sc 2.5918899714087704 7.454937939576355 11.245558297470689
Sc 2.1145918328873594 5.596652410132419 8.787442941185239
Sc 4.581312472349278 5.067910151422238 10.605919918918634
