49
Energy = -258.95724413 eV
Sc 10.103216494937705 3.236939948786868 5.365875964804174
Sc 6.997741385948494 3.3824570214885283 5.38697020194035
Sc 8.688104816500175 2.722743031933539 8.122186175319408
Sc 11.131052258497018 4.435065210079085 7.864406096694514
Sc 5.417229425424207 2.9831704837303454 8.019127603691729
Sc 4.0176807332786035 4.3825148754573355 5.4315250537125355
Sc 8.584219044406911 4.841236715022147 3.2681755193438113
Sc 12.455278058726137 5.238772092256112 5.324436254747615
Sc 2.2478836472373716 3.947319530666351 8.057784420445794
Sc 5.528011558268242 5.345062337356112 2.640305442991626
Sc 9.472094201915672 5.485994701950743 10.114425789669264
Sc 4.04732169740598 4.168886523603628 10.46205004803145
Sc 9.714041767935695 6.182061277108317 5.841231470183377
Sc 7.0336318766153365 3.7621804258607905 10.575758894212747
Sc 6.397247094797196 6.51115160409813 5.006270082765007
Sc 12.950144724766286 6.712357100769537 8.294673760573616
Sc 7.539758697567564 5.381864086250558 7.729247012765235
Sc 3.349029023330274 6.92792109565956 4.149373585343968
Sc 4.452266247599777 5.825470627746233 7.996290229359627
Sc 7.935171640976973 7.453431284524173 2.2476843762689147
Sc 11.448194104886847 8.220061737217316 10.992633512717429
Sc 10.78188729802054 6.966870975759887 3.209516264828045
Sc 2.1677461657682437 6.551229297539187 9.767325658564403
Sc 4.327997048228569 6.489997651975182 12.323149845042861
Sc 1.9036096378825236 6.729671353601116 6.665711647577739
Sc 5.22861031472249 8.682258052371324 2.9116885914389288
Sc 4.621049491636216 8.425691059119476 6.627356234568746
Sc 10.256407773296926 7.922777655674681 8.25035327513597
Sc 7.679881259598906 6.354862060655371 12.864247074957559
Sc 7.72634346110018 10.43115217288426 2.346779175505408
Sc 6.323461739121127 6.577585418454985 10.265096367698218
Sc 12.211870833488844 8.226301077743244 5.675558515439432
Sc 8.53966892068698 8.241237193353143 10.751130351611897
Sc 7.243474303072402 8.630405559761343 7.937455530176603
Sc 8.456156107576795 8.856863117647867 4.974108667370623
Sc 6.062307950799044 8.865567109206538 12.43844865388972
Sc 4.393867228850488 8.71928447947027 9.794536862501888
Sc 2.862883479798644 9.855942165232616 4.969673519995127
Sc 2.093880801591748 9.39675115515747 8.011739084542821
Sc 10.611143618545048 10.039087644926006 3.4229667490419997
Sc 6.039252898204728 10.687660820529047 5.007419246183065
Sc 12.660725894092222 9.660389863271101 8.55563249944385
Sc 9.085880094911756 9.82365950703503 12.773412193631165
Sc 4.701668114970894 11.11121481799119 7.815118626030761
Sc 9.968373277673884 10.714941718378908 9.795904293265282
Sc 6.853928013893819 10.732244632541732 10.306756325597132
Sc 8.779405610399449 12.047671237586922 4.589930804335416
Sc 7.766532786402073 11.564295141321338 7.497705787630452
Sc 10.435147894397444 10.524904646423103 6.562943568854537
