48
Energy = -251.63892776 eV
Sc 12.097044024971789 6.545543623676121 5.825671811302031
Sc 12.071458880761847 5.747349061109505 8.9832891071998
Sc 10.616888524259538 4.122056428821428 3.5067800291889903
Sc 11.830736711856625 8.788058015198226 8.34617341471502
Sc 10.88318040347035 7.2895526303961775 3.084320563844298
Sc 10.862071396388254 4.03000746129488 6.515918657996377
Sc 9.19823897571356 1.6970834236313872 5.6539170204413995
Sc 11.718614002635988 8.0840468911883 11.18047499544821
Sc 8.314718705116645 6.130605818485669 2.039731685154238
Sc 10.490607532591339 9.124156214648082 5.718022640197606
Sc 9.772929651336272 5.791825129788635 11.006711461163015
Sc 9.604219673733146 6.790108512233278 7.725647991429807
Sc 7.590878168045256 3.281684770220472 3.6105608782289598
Sc 9.385612607242745 3.7364720469070107 8.945689281077954
Sc 8.932148134532191 5.986919861688225 4.923087513764085
Sc 6.15678333841349 1.3694497140214636 5.721945805585182
Sc 7.5136952091891835 1.4701722432547746 8.399561239593977
Sc 9.746701886258545 11.099573311380695 8.063935378889372
Sc 8.144863152485136 8.720065440693443 3.7926418874079153
Sc 7.405549581952493 3.840294550334739 6.507871219549449
Sc 6.857086977117795 5.843132100573567 8.68458376467498
Sc 8.894070135475216 8.69404031279589 10.009681775574931
Sc 8.757037271781734 11.55022114297145 5.05654665824585
Sc 5.598044594103886 5.3674521837477345 2.9638505938280355
Sc 10.014869907614928 10.84078301264775 11.459551831572766
Sc 7.596055007595648 9.294879976910417 6.87179153178244
Sc 6.066491777569523 6.823472711377313 5.550467512397201
Sc 9.332645635662972 8.265657875976348 12.970058708410072
Sc 6.984883789272409 3.653630615330871 10.774823733663144
Sc 5.3332806666752575 8.265428971020441 2.839113180996427
Sc 5.840655984437655 10.717387917289207 4.504213165919537
Sc 5.04630854114398 3.263810193874954 8.385925224096852
Sc 4.552440054628154 4.01264302089153 5.385324210372251
Sc 7.024991737126269 6.702955424301081 11.661546256296061
Sc 6.628375211599117 12.168741790992808 7.101446224056843
Sc 3.2737728658846867 6.7406782081777825 4.383280514639552
Sc 7.367934000428448 11.475096292426999 9.86446734528431
Sc 5.808205350439878 8.560930365211878 9.391462274689196
Sc 6.829860917016382 9.79276558732613 12.138547089955065
Sc 3.880330612188465 6.122293007325989 7.658198771771109
Sc 4.253243969395483 9.18012371287781 6.702163970133325
Sc 4.450578336853746 5.759545546033542 10.558578620046815
Sc 2.5759060003027474 9.843729322495893 4.403723206027262
Sc 3.6972955553997244 12.224324370484572 6.05925326196866
Sc 4.317708391000548 11.243039634467355 9.005136679938433
Sc 1.5002175300389744 7.841470843064794 6.62234072388742
Sc 2.7368051393830886 8.527283886525085 9.41067965318659
Sc 1.6043210297393034 10.636566393056107 7.368513644485175
