43
Energy = -225.32163609 eV
Sc 7.8147805519327544 5.007130756395383 12.221934831209463
Sc 10.689892981737986 5.734027793339971 11.589171425143029
Sc 9.646251610317185 3.142890893059879 10.289682395300673
Sc 8.305032371378697 7.9273083672122295 11.666166984084533
Sc 5.374786880148519 4.686774194833181 10.665066212708295
Sc 11.312351752330752 4.951074673196308 8.422155632700246
Sc 7.0753164748977735 3.461671085083038 8.597903775243717
Sc 8.738834339319704 5.8564890554533875 9.537897486081569
Sc 10.713336214361117 8.055627996491033 9.4436823085052
Sc 5.150290656147417 7.421706946393206 11.92713312850466
Sc 9.661758518453311 2.6172877175739133 7.0359532389957025
Sc 3.371869425065591 6.53035047516204 9.656847224789896
Sc 8.721893904313117 5.2593985402081085 6.526955020028857
Sc 3.920599505553169 3.9544323132196206 7.81202407205784
Sc 11.22454413129307 7.400800314302094 6.689654218892897
Sc 6.261009784941608 7.240890561881941 9.249196990938332
Sc 11.146477865728246 4.924525729639346 5.008259933732696
Sc 6.587207328062872 2.7411530648144082 5.903284052155472
Sc 8.497367673999092 9.913556239061212 9.467504637807789
Sc 5.789102391781002 5.618262495153198 6.602795131429741
Sc 8.115114846494413 8.258962709592147 6.981184598404466
Sc 10.096640015845091 10.31516930518329 6.841786813655186
Sc 5.748193528926309 10.17319017287001 10.37404510671999
Sc 2.8943256388086374 9.415783345002215 9.956393624621523
Sc 4.780909767962279 9.202144825835358 7.676600835367162
Sc 8.821343273754215 3.3734082237967042 3.765942455587335
Sc 10.16728934785229 6.0092081895724085 2.2696002692799047
Sc 7.673061174462714 6.113233174204021 3.9143143225446404
Sc 3.5238381356159016 5.273550280750267 4.648390486761059
Sc 9.89003220639191 8.25800867558766 4.322933384844757
Sc 5.654967272471062 8.065747613554684 4.941906629809984
Sc 5.772703785105209 3.8944336042041185 3.364283733762958
Sc 2.000725802945985 9.94095553498639 6.964167611376244
Sc 2.9059686659438877 6.949343944650524 6.851026983332411
Sc 6.9386946140966845 11.236615713992498 7.37900619381444
Sc 7.580632376343426 5.0137308886659175 1.194712669227989
Sc 3.907676506006518 11.837661336124162 8.382134445976408
Sc 7.598029712308832 10.340480361938399 4.46675134312028
Sc 7.83924910017537 8.198114140914276 1.9502226470405133
Sc 2.891398520914253 8.424010550699762 4.201050868789783
Sc 5.037193667425634 6.641337352888445 2.2520214748619973
Sc 4.521310476661437 10.973830868818265 5.285332116288333
Sc 5.184774067465757 9.730259456424537 2.5169097063504138
