43
Energy = -224.85406641 eV
Sc 11.945785851827404 5.567436004172031 9.514413215386902
Sc 10.700545200402834 2.8853077540052308 9.578938344864216
Sc 11.571632432237054 4.224395451219011 6.765326394287114
Sc 11.72994185390935 7.2898891863205995 6.905546831676153
Sc 10.86780809950612 6.300221608257333 4.020402787961701
Sc 9.34111337115964 5.2055714384559195 11.23305704180067
Sc 8.001046748436552 7.924983497385442 11.640350608502928
Sc 9.202773913307857 2.1537175015097683 7.004011561816254
Sc 9.988881440562377 7.978108404928275 9.383436747627963
Sc 9.154305921680326 5.046268543299197 8.291402612917908
Sc 7.561554546848557 2.9708234769025825 9.818793394536991
Sc 6.204198040147791 5.588557262731437 11.075008615862133
Sc 8.887301896602484 4.5429509028353126 5.333613464731717
Sc 11.10718382063554 9.249738517458761 4.620587833124179
Sc 8.912420975418451 7.531502277049994 6.150353501983295
Sc 9.996807120859751 10.247674831487608 7.288910171866624
Sc 7.802726751000621 10.196062332779254 9.553054142825506
Sc 6.9267624173581135 7.227750657637545 8.684611401033914
Sc 4.626098722614134 3.7237449052357494 9.061220349944927
Sc 5.243150573879948 8.867352305895103 10.649509198535366
Sc 6.2408407942239945 4.814140915410156 6.703261559058699
Sc 6.280054460089422 1.960355202177338 7.273987494553707
Sc 7.6507178422421935 12.468645424366 7.23759912113029
Sc 8.600236195888153 11.083112295610652 4.63877652640258
Sc 7.8578986533780215 5.355208581894623 2.809068463108111
Sc 8.59013795964585 8.299645210086185 3.155177916846858
Sc 3.5072109599367343 6.587297096599405 9.810238014960385
Sc 4.366550709037326 8.471612310135999 7.4244810259700955
Sc 4.979768366993756 11.293654583402539 8.61749136613581
Sc 7.078582165618638 2.4008506190086774 4.467108911867427
Sc 6.9309618014751635 9.72789201537221 6.627363665248304
Sc 6.04327958817361 7.20068747925911 4.858603447618051
Sc 2.385997315788714 9.481553669619032 9.422977176764597
Sc 5.234029891177518 4.45582433794632 3.5875861529322903
Sc 3.895885022521424 2.9888112233485096 5.729336323522179
Sc 3.2179807023585325 5.482052784524625 7.127795544165292
Sc 6.141189928975307 9.960334808531837 3.3197331224598403
Sc 2.9999085374609793 6.090310501944572 4.360914453792359
Sc 5.160259990727689 11.732614775714417 5.540761714286926
Sc 5.2641191928227835 7.187549005003257 2.2403332957216744
Sc 1.5994794224434827 7.976329449496742 6.718065104457196
Sc 2.4984504436129606 10.862105129590882 6.808240569423745
Sc 3.5313286234474823 9.138130760857836 4.479359936287843
