46
Energy = -240.5944987 eV
Sc 11.634240737836699 8.99589637611492 4.482177284815788
Sc 11.380578905891731 6.372601598495627 6.276205796360882
Sc 12.112493495041898 8.55891975629307 8.473754571537812
Sc 10.92102032268385 5.990633187884169 3.138514979704282
Sc 11.90805643342888 5.594958337819752 9.229727981217668
Sc 11.055591250478743 3.371949626649922 5.1794128909275825
Sc 9.658228515477862 8.727047014092214 2.077334907834297
Sc 9.872285938131014 10.003212160135197 6.891993355108902
Sc 9.157706666614253 3.223156769548279 2.747512144683887
Sc 10.645780860501663 7.526317419228872 11.287280252606923
Sc 8.821562301611023 10.905540943472879 4.155213218288859
Sc 9.581364136093645 10.352741214480522 9.855271089821676
Sc 9.041340510009583 7.806368565725744 4.834448663770787
Sc 9.219596760673111 4.804005013888602 10.673877164666674
Sc 9.421071225781693 7.281993518853796 8.615047675857856
Sc 8.096011402829186 2.2745360218132586 5.6412533610987845
Sc 7.895776000986317 6.159136293736308 2.1252406131858237
Sc 9.540264911239179 4.287830050772485 7.6881771970994786
Sc 7.429468186834527 11.90131801710175 7.415624944650721
Sc 8.585179751982654 5.003071269216094 4.891371024342313
Sc 8.039760593069815 6.160581231541837 13.006588042670433
Sc 6.6351767068394345 9.178661412793625 2.808724909515857
Sc 7.786463516574509 8.576600218096695 11.490038906203017
Sc 7.0760332408175435 3.3006611916111375 8.949728217950202
Sc 7.058302776300083 9.242260075693633 8.666894778279248
Sc 6.9422233137490785 6.25871443773446 7.194316938004137
Sc 5.818168156233646 6.695001205811144 4.495860786803173
Sc 7.049297919319912 9.330339566524385 5.864388341901562
Sc 5.446724744411859 3.754847665486369 6.4038847139139605
Sc 5.1125061001726 11.163824903801238 4.80869322801963
Sc 6.414581565930279 6.098639734092336 10.153415428103093
Sc 6.160355151561338 3.8206269186339754 3.4521661593350395
Sc 5.79650053816552 4.23593202155653 12.008724905716992
Sc 6.34796356751095 11.214093741757532 10.591629868068393
Sc 5.259468345097063 7.303096283031559 12.752061374562263
Sc 4.252370292883431 8.683376409603692 6.4839096348248315
Sc 4.266621105073952 3.7973225174912253 9.342925989403538
Sc 3.4641512525609657 8.55040954004716 3.6234431466043193
Sc 4.638020738435053 8.56316216876623 9.95570201717213
Sc 3.3458036911512288 5.330608174983582 4.863810221910906
Sc 4.521628008685147 11.140491387606403 8.02890794054446
Sc 3.1638244474780155 6.1071285538731725 10.919004402303612
Sc 2.1395677622414615 10.501264184014717 5.7753945340532145
Sc 3.7920997909131544 6.229618054372102 7.816968662431242
Sc 1.5460902914936012 7.534051307528999 5.860646962631998
Sc 2.046249977445588 8.886230736793504 8.53394141194047
