44
Energy = -231.33139286 eV
Sc 12.610208353532398 7.955780332657208 7.830669238851703
Sc 12.865560350799921 5.485210160563548 5.981663098325026
Sc 11.410432374331744 8.606152439813792 5.152242432131197
Sc 12.088005914259742 5.552976277818867 9.14250469517807
Sc 10.836335797153836 10.315960940825411 7.876492379583241
Sc 11.560874388318615 8.33671392494856 10.737465907222397
Sc 9.857423565273814 11.231646199722757 5.051913938064538
Sc 10.592303290118352 6.00408516233113 3.6189684999708014
Sc 10.307634031640507 6.150844037190458 6.726395803136226
Sc 8.871907200104006 8.591783058594942 3.3720101095347523
Sc 10.5301256535558 3.575420129100287 5.202125603145369
Sc 9.488293026834919 7.692641866704903 9.06130607280954
Sc 10.050878182985503 3.402884816560213 8.240034092196325
Sc 8.514976374767937 8.830123060326875 6.358242285008034
Sc 6.856243347501322 11.268262969547964 4.664566971096828
Sc 9.585410287921468 5.085039666413555 10.734488817939598
Sc 8.07557565377893 11.69855685497562 7.527306644652234
Sc 8.28230341334687 3.8680725414204167 3.0697539258789575
Sc 7.8716436313715015 5.932521169082252 5.107687053496956
Sc 6.552883402440195 6.2704457572637375 2.4745439970468848
Sc 7.5707447871587625 5.30938909964497 8.311653377046493
Sc 7.793009031870495 2.950425770163842 6.1852928642188765
Sc 6.003308841891592 8.481935229660234 4.276950110160579
Sc 7.1943357641144505 2.8776094490042716 9.639265636005291
Sc 8.754591369516495 10.346406872103278 10.35254511990246
Sc 8.641091933186978 7.75302023333072 11.944402792026905
Sc 5.5011119215363 9.65319134513348 7.046123290974836
Sc 4.994481738616639 12.526159593105712 6.747257836861549
Sc 3.628707268390726 6.801093463898589 4.036556552118097
Sc 5.424924792531945 4.282457655620067 4.473133967014225
Sc 5.189238026662874 6.534217889086547 6.7428317459851606
Sc 5.173444680446085 3.4064150006909886 7.3091252957325406
Sc 3.7405814243086293 10.43217729758092 4.7711986805484035
Sc 6.366928699404529 8.20535309546209 9.725631070008259
Sc 5.764526989739225 11.402043379324793 9.601894053961317
Sc 6.7744254120101965 5.476034635524967 11.366548179417897
Sc 4.422923649978243 4.911445566622683 9.66678427562765
Sc 2.594746105413471 8.21901768788836 6.371094672983024
Sc 6.325714886360334 9.645826723273103 12.273576892103838
Sc 2.9828843555819793 10.699801401423441 8.089644057720426
Sc 2.7615921770204954 5.211181172856172 6.798990756463875
Sc 3.263130125267275 7.699929741203047 9.167151684133241
Sc 4.421448775627979 7.205448030798139 11.960015475571808
Sc 3.6776105809651956 9.958735936155927 11.036920551192384
