42
Energy = -218.25572001 eV
Sc 9.677860389094958 9.029741597898417 11.353892425974058
Sc 7.340876506214152 11.16127700505318 10.09251140349265
Sc 7.793465603450288 6.565428835076563 11.936885842292343
Sc 5.98163771539305 8.796986638838694 11.558010676341025
Sc 4.134509177099077 10.988090494777497 10.442319175997923
Sc 4.9153992646605325 12.136495195260595 7.698833986088469
Sc 7.849391584338116 12.819967832816593 7.652417099526708
Sc 10.032665897489464 10.773728489750157 8.487409113152783
Sc 8.267640172180208 8.253093159065157 9.255297743855348
Sc 10.571277102414717 9.238757564553545 5.693808117812676
Sc 4.9550564829808295 5.554593044936731 11.483093386594323
Sc 9.936316012926454 5.872540600694802 10.135309176261538
Sc 7.680722223980757 3.9095763888312356 10.741857445943165
Sc 3.2528538128149997 8.003322549933912 10.159563020212577
Sc 11.322841056363938 7.9158746432925975 8.44760682410258
Sc 7.746558741397344 9.99903100888321 6.695961624064544
Sc 2.6143035819120315 10.183076350306944 7.9405822916794655
Sc 6.133140980201299 6.08891330220104 8.85749745096641
Sc 5.38445561654978 9.231166710395762 8.43458118049803
Sc 9.362178972311924 11.942232124739247 5.170512535124052
Sc 6.458721366812301 12.259065434371543 5.008448963783361
Sc 5.378457591821386 3.0448452199748566 9.06287854710212
Sc 7.611050347711537 9.474461556723462 3.8371409254794657
Sc 3.235680352234779 5.12095028512157 9.002163134190742
Sc 7.979413419595473 4.027373737253048 7.7488693500557
Sc 11.047334513676853 4.547888339664816 7.6297952939774385
Sc 9.14694397239818 6.7918735508053 6.734131779126761
Sc 3.363089244324386 7.354877072866666 6.961527375031184
Sc 11.999096281296655 6.593779902747245 5.588890740566717
Sc 4.648108823762243 9.73003548611911 5.314022739791236
Sc 6.297684929015797 7.280278380256633 5.8007833877221175
Sc 9.529020428436507 1.8361727900068783 6.5959070380351275
Sc 4.889426312850264 4.54748274776581 6.3255283652396646
Sc 7.813715917797443 4.670663991753258 4.890777101048623
Sc 9.58739522345059 7.01023332668893 3.651059485434428
Sc 6.386932621990965 1.929520007994079 6.0410517097164576
Sc 10.665292735000467 3.9893178576025115 4.6359902518911325
Sc 3.9654723790223625 6.4927979023878954 4.076949888356685
Sc 8.383455943723867 1.933578194931667 3.8044638509830038
Sc 6.662562660303721 6.583933976088977 2.7385734519996565
Sc 5.65923317562569 3.707600933648815 3.318983645636598
Sc 8.613396977569446 4.40909644799511 2.0958681747544032
