44
Energy = -230.57471346 eV
Sc 8.69084629518952 8.8202050037281 2.497284921145799
Sc 10.376006880363137 6.531756145798509 3.4903892807352643
Sc 10.940444400772712 8.95859683592644 5.06916337434073
Sc 7.95772181716176 13.155943895612305 7.1772487158724445
Sc 6.038096666898911 7.31533596299079 2.6718733773160688
Sc 5.933012532876386 9.811192830856708 3.9689486226870883
Sc 11.254646401853748 5.881951797607484 6.318378891698809
Sc 10.67026902013473 11.1914530719011 7.223947468705527
Sc 8.426092705763386 10.874156532384637 5.08546982193046
Sc 12.46476923456264 8.303569891550849 7.961304739648754
Sc 8.008777857501633 5.45895774130034 1.976275675927299
Sc 8.125265172898345 7.757292695507942 5.116514284610468
Sc 5.441107653679475 11.408812879307026 6.611719558115371
Sc 9.348336222032254 12.58152186810268 9.69925393627473
Sc 9.113799672453833 4.152358286804711 4.722373730794854
Sc 9.69201111534577 8.097925847801836 7.89920638766662
Sc 3.7729644621334 7.50867813549239 4.540549298474769
Sc 5.73532725436057 8.289694723351502 6.732805673688657
Sc 7.830744369835779 10.359850160622567 8.101310514489056
Sc 4.327372017794041 4.8342186223349914 2.7879000506251805
Sc 6.7080363831457515 2.985435706334417 3.20828046855113
Sc 10.876440371683866 9.99513323642032 9.977730488680647
Sc 6.2691581278930055 12.263385160034202 9.731916713827278
Sc 4.2898313659248 2.593040415017608 4.807333879847714
Sc 8.153110448625343 10.206461073001956 11.33261593353148
Sc 8.276650395378297 5.42314191655876 7.595899999799956
Sc 6.986752057919709 2.649478691070368 6.301171617477378
Sc 11.020864766324829 5.733867912223715 9.233605341364743
Sc 2.897691934192059 7.534124735447722 7.693782534681983
Sc 4.636991764480194 9.788317182547972 9.10547778996289
Sc 6.997618351191225 7.701821943178541 9.666047957278371
Sc 5.9789401953412105 5.32740004748262 5.062142185968308
Sc 9.983786660213427 3.1730893437698455 7.704252946707039
Sc 9.7107043197812 7.603367122014771 11.208312576725948
Sc 5.199471771319005 5.559242127583447 8.106374380219545
Sc 2.9568908204916218 4.925721731695599 6.110344165797908
Sc 5.3178803010436635 9.923045554436126 11.861806675412877
Sc 8.404891418667686 5.055961588576143 10.756905961028966
Sc 7.213498566619563 2.8998081680781453 9.187695393841574
Sc 2.584703253596068 4.853382649780261 9.258332602412958
Sc 4.047449871670705 7.264756267954539 10.631113850662107
Sc 4.382381855410997 2.746417415257129 7.962187849447931
Sc 6.748367664767098 7.236556565843431 12.438113379652373
Sc 5.373182958598415 4.591635588526922 10.840910165560466
