49
Energy = -259.11208549 eV
Sc 5.443316086761604 2.6274268186636656 8.6166363964644
Sc 5.031027544222788 1.5150863157567214 5.712034121259227
Sc 5.65079185641324 4.467244635295239 5.566063804147036
Sc 5.067699986622031 10.389958393924926 10.638468049373953
Sc 5.698162470022443 10.24797364933458 7.570258516890902
Sc 10.444397205878225 3.0310025461797343 4.696018050904001
Sc 12.367054688464739 7.535791197473078 7.991283524365999
Sc 5.674490998307792 6.0599197123390915 3.0775325842201453
Sc 2.797640643040059 9.915599022460082 8.378876513917865
Sc 5.945974534882256 8.036253410622278 12.550835336149307
Sc 8.679193704321175 6.704832434412493 11.567933554001538
Sc 8.818837635236585 9.84505162965006 8.345692596015255
Sc 10.793997219027387 2.836714315903982 7.876935688184946
Sc 7.842969923589345 2.5571351816412373 6.599410055763407
Sc 10.926775207135067 8.738983202885093 10.289769556046952
Sc 2.0991519996182584 8.938241141176656 5.6127596509577495
Sc 7.178471539087766 7.22016185225719 5.801813596993347
Sc 3.6369640948233797 7.61101923774969 10.39545199951206
Sc 7.316343754376543 12.286800048491802 9.268693051152113
Sc 10.360521578021334 11.82187480548159 9.848693139954056
Sc 4.935210311172064 8.89904405621015 4.567612052951902
Sc 9.493685655308186 5.020608535422865 6.526702342668352
Sc 4.286709651151722 12.723394287872402 8.460265730939351
Sc 6.582240431691092 5.241985756012272 8.153321174789971
Sc 6.54909472009675 7.956059294526472 9.698818045445261
Sc 11.721967379978492 10.315765661204377 7.444937328090147
Sc 4.380091765294036 7.4216423315476705 7.284003779432064
Sc 3.5844730825356224 4.962978508686244 9.162855222633086
Sc 8.36804058135581 5.067961802706326 3.7772687087118424
Sc 9.491970963769475 12.347135333236615 6.886883323474674
Sc 8.594974509327038 3.896112629944166 9.82817722812161
Sc 3.0955848371719683 6.1889113821721935 4.823230583328668
Sc 11.448788570209489 5.229439106834971 9.683088079656306
Sc 6.884498554380352 2.54542598279986 3.56456073243969
Sc 3.8296889890295023 3.3967542392491668 3.608401451809198
Sc 1.6490001870831525 6.704956928330398 7.663240718196256
Sc 8.194613273875971 9.936712117240612 11.341550008964209
Sc 12.90623654929857 8.23997327217061 5.15660692769488
Sc 10.053802317694018 8.07054181104692 6.046389277843151
Sc 6.453016839102488 12.92745673993774 6.380074709744633
Sc 2.940598457467442 3.6599471472112683 6.631602773266561
Sc 9.249011732433935 6.784854988718046 8.695093353814459
Sc 12.46896953264651 5.082884674331911 6.4262177422521205
Sc 10.662392072546714 10.396042065553017 4.513794500254523
Sc 11.083009123640105 6.10562540892094 3.914001701435614
Sc 3.687541895420781 11.527691138720307 5.825387299697883
Sc 5.896595108461715 5.283597248276428 11.081513932459641
Sc 7.755391928447496 10.296928016253252 5.279850408842676
Sc 8.592918857634869 8.097309541247062 3.290611265828814
