40
Energy = -209.15702082 eV
Sc 11.590219742355645 4.57523807245851 9.657315314845832
Sc 9.267353550909826 2.4188183023166685 9.484742224526382
Sc 8.888736198491443 5.008823599009966 11.377570015588304
Sc 11.68972549891456 4.7255956255330585 6.658143320556896
Sc 9.383790611529053 2.8349967176272184 6.2619764614765785
Sc 10.378908467379807 7.191794690170002 9.892618835087735
Sc 9.876922452567968 5.020960939012381 4.156257488515116
Sc 6.265213289137608 3.8566794487431375 10.021114652370656
Sc 8.82038705481276 4.968248727888703 8.467845617003992
Sc 12.151403300179618 7.196022520670646 4.844645900175786
Sc 6.8771303861027615 2.4333924100969972 7.472183805513548
Sc 12.422041866872599 7.476435487298852 7.885862562820908
Sc 7.963881151156423 8.196563573819454 11.086512343693146
Sc 5.9229292568168335 6.134657592501783 11.903529074863542
Sc 6.711496282052497 3.130178630948622 4.363157314118704
Sc 9.797004905661304 6.954702802727063 6.433714733832115
Sc 10.66842447299186 10.085938622574824 9.369401406602963
Sc 7.25822094558308 5.129929975333378 6.044081915504631
Sc 9.247389094112345 8.299263174592625 3.810774908808434
Sc 4.5814202876431205 4.3624875102743585 7.394344801780933
Sc 7.235682057501572 6.086780393633534 3.14761935797172
Sc 6.654361724320779 7.87608472965646 5.599304066347555
Sc 8.369118405431806 8.990520118656937 8.05296256707842
Sc 10.82903225408137 9.760848675731435 6.252915000247861
Sc 4.673646426438882 5.9504906917237275 4.49293359797281
Sc 6.27833412581404 6.751298622994411 8.749665031255995
Sc 3.6375466259023326 6.225264564102474 9.918996963139513
Sc 9.189810527309476 12.030907174762007 7.694591793661916
Sc 3.634746532479594 7.0828454603422415 7.098074559064013
Sc 5.059846468935169 8.927565365114436 10.728917856741688
Sc 7.3219216513333265 11.13662643082508 9.908042900667246
Sc 6.095555811674187 9.063484085081024 3.0164444694397163
Sc 5.389555312772635 9.839562158221982 7.757709555077511
Sc 3.754931642333767 9.210067592730455 5.125003286701474
Sc 7.8016706156925295 10.644075236980122 5.3655917997143785
Sc 2.645483909822461 9.328907490151428 8.839625049208971
Sc 4.226220986492421 11.77732266741523 9.716361812966024
Sc 6.14548936791613 12.676171508711464 7.346114550081212
Sc 5.155621776240599 11.652527764865864 4.535841617084707
Sc 3.2297641905575967 11.754677047852512 6.8855010978681355
