46
Energy = -241.95167951 eV
Sc 10.613952667938607 8.695296974182394 8.785455478408744
Sc 11.616067717043041 5.544627963323423 8.815180024831822
Sc 8.3457987759151 10.50223221287368 9.547271887172089
Sc 10.785545792732574 7.173930449094551 11.290943939318513
Sc 11.419438290683642 7.499471391951094 6.087569580535978
Sc 9.738364598040423 10.34421735635433 6.244661847956612
Sc 10.984245978039384 9.1854697750047 3.424030182058762
Sc 8.964594021125581 9.327025749035972 12.543668938606102
Sc 8.166857934376178 10.616290718494504 3.4667436550259025
Sc 8.85881742270384 6.248674963215506 13.207705991056889
Sc 5.493933923809288 10.976912313093292 8.894687680273629
Sc 7.313809502357701 8.768955717768868 7.32318073941581
Sc 9.065696868588077 4.633753590934821 10.534306654370836
Sc 9.084898197931912 6.3511043189154455 7.800013028576082
Sc 10.605302324632655 6.000395659336828 3.456524021767572
Sc 6.185261821465456 9.468599694429084 1.5577575060151583
Sc 6.656285549941637 11.449532304757737 6.08852838327066
Sc 10.92789009645837 4.548814314656625 6.004385898804065
Sc 5.798821669038987 9.70756873746477 11.44488603902818
Sc 8.719485554446333 7.954422484482118 4.716049572195134
Sc 7.864680442929242 7.56979473577773 10.515198377181642
Sc 8.791283421226764 7.82203426249286 1.7727178083244
Sc 6.432517318688091 7.728618050598339 13.493681621400073
Sc 6.543447505891101 5.055265827313706 8.418844373133942
Sc 5.121034979192288 7.764750113203355 8.984365844754405
Sc 7.951368069514459 5.158600960801868 5.221199227286649
Sc 8.29966598850181 4.532104232011642 2.2373156921068995
Sc 6.190837463839865 5.243076390079811 11.57717137672967
Sc 2.8829570700748173 9.285556271560043 9.705685402554
Sc 3.6893560737772857 8.096800999453583 2.1790505659528163
Sc 3.946170329971596 7.240102346598814 11.701400840620966
Sc 9.296974300290646 3.046754315196739 7.931384993529266
Sc 5.787197219318294 8.90484484841369 4.4991754554443615
Sc 3.970470000034973 9.92229190864916 6.833904762859325
Sc 5.3111222910420866 6.441360679102662 5.967241743771541
Sc 6.182359645786322 6.4628927076144365 2.8535767142507966
Sc 6.330565831261433 2.625553608955205 9.62561568902564
Sc 9.095043827856282 2.5824312720012133 4.576422225221482
Sc 4.3318664180297874 10.949838296495011 3.5725058889060333
Sc 2.6674350495954906 6.697690969160675 7.41972603088416
Sc 3.811649861565928 4.896289274457988 9.688616482730868
Sc 3.2316700687622757 5.5752283760071455 4.096953804432686
Sc 6.787174326648719 2.546066275248634 6.577671700035308
Sc 2.757435299860766 8.350318103139568 4.866639267483914
Sc 5.76887522679207 3.6371052028912394 4.031997343070306
Sc 4.097705202855759 3.822810443763261 6.839807711728312
