44
Energy = -230.07134086 eV
Sc 1.2713154823962327 6.193106424060329 5.946628040885321
Sc 1.2912549322483156 9.043087854199054 7.3440841823360925
Sc 2.2396726621043235 4.058601511427628 8.071859871864392
Sc 2.9637147882733674 3.5187838446890285 5.162100969656732
Sc 3.3993990336118283 8.985670187234268 5.056961722650707
Sc 0.9515674036874396 6.691772259686119 9.161449134111924
Sc 4.23585850870414 6.222217504507104 4.922446773359033
Sc 5.497747724278345 7.934035078410864 2.8536696878175176
Sc 5.009842984010421 4.638493271080553 2.5402226925295954
Sc 4.247349599118115 1.6592665554560486 7.336829521837587
Sc 4.5379729391514765 3.2256748620479354 9.872389375060127
Sc 2.9467219947366416 8.959016264899477 9.916608897458296
Sc 5.193391610192606 4.3977035277856915 7.220351411641835
Sc 4.298609570935362 10.369775978657966 7.571800796221132
Sc 7.796632115007143 3.1810380187595046 2.5238417456430553
Sc 3.4382567029218207 6.963762202801907 7.725892239247147
Sc 6.101098826007828 10.84556701498964 4.775786075973996
Sc 3.860778826881135 6.181665578402385 10.60005365589342
Sc 5.769194417487656 2.6417848675716247 4.774169513599311
Sc 7.183280773143098 5.438322721363121 4.4163880403933415
Sc 6.44897045569073 8.297070389101783 5.848813102373855
Sc 8.127120637353613 6.247977601566003 1.8263416906807057
Sc 5.954245781068311 7.974643059553348 8.883124485347786
Sc 7.491013526339461 2.824801298025619 8.308401927070422
Sc 8.611329885244851 2.945391110609136 5.465415795443986
Sc 8.288702012468478 8.867378141077456 3.3068265477672782
Sc 7.844748601011132 5.6722754656372905 7.370258512795596
Sc 9.820552118930491 7.139926776668671 5.499957317706569
Sc 5.810399233677391 10.389636027920918 10.510629924168299
Sc 6.737086643296796 5.140657714108983 10.157886126942088
Sc 9.069507362261373 10.223483743746906 5.777399432877981
Sc 9.000590504839137 8.345772517309792 8.478099292305126
Sc 11.022942464767006 7.597445602523277 2.7765350326370672
Sc 10.226777017248285 4.75387591695112 3.6707587688311776
Sc 7.87560371667653 7.870527323130477 11.276652185838199
Sc 7.254323256272679 10.92091943511274 7.9436129514896106
Sc 9.749519724030105 5.674573916101819 9.76801496020148
Sc 10.715031008642587 4.568800280010809 6.904560328689488
Sc 11.806496649583519 7.363215368699436 7.854943147507616
Sc 11.917283264061659 9.208806595845367 5.293307264489178
Sc 8.86629480757671 10.633713162075225 10.533545118620562
Sc 12.637688212861853 6.311567985339933 5.002360668644459
Sc 10.952432178949074 10.432780341368078 8.193721013899241
Sc 10.92972379957135 8.481735978258781 10.671579236526505
