45
Energy = -235.7342702 eV
Sc 9.388890539137467 9.949350519802014 11.444265356231147
Sc 10.010475093651479 7.6581616632028044 9.694053746598957
Sc 8.69541862675703 6.9384537016677115 12.208779610572877
Sc 11.246581926941472 7.259062070306873 6.9721838015823385
Sc 6.634959989488798 9.309913981229167 13.059324255444105
Sc 10.280722814414538 4.530356413147432 9.531598926946646
Sc 10.670881370670433 10.248315830170526 8.239030583724558
Sc 7.955771334563317 11.252219045099897 9.076565696132358
Sc 11.835034026853643 4.275213857109056 6.661779887910517
Sc 5.249439263317769 10.930080154145516 10.489590488889148
Sc 8.481843743570845 8.594621763610576 7.319676842102669
Sc 6.954359715520788 8.568454451346824 10.405397155500461
Sc 7.3079971085345905 5.9795050614169165 9.432825934278565
Sc 9.810581093411054 2.2244457806856577 7.348684346716225
Sc 5.739720007412664 6.313495578143085 12.194244203467983
Sc 11.61231473511789 6.2351519605111525 4.049487559127935
Sc 10.439077709644907 9.408428454789348 4.921526232275938
Sc 7.452580175008977 2.993546677692499 9.116481547732551
Sc 3.8896210443551302 8.717028212855592 11.78933425675646
Sc 8.97629422474452 5.05753948603159 7.078128703570738
Sc 8.347141042950845 11.433623287067983 6.057239722199438
Sc 5.45922648383303 11.363446379807543 7.431005108507606
Sc 10.150884863578153 8.27373418701438 2.1220725744135005
Sc 4.49323571599701 3.569449184417783 10.610097109544412
Sc 3.0110403594249355 9.515831396918532 8.795848755915452
Sc 8.815617385752894 6.784055263629127 4.435088353733366
Sc 4.632133753106401 1.7610088755719528 8.060382095742
Sc 9.673008691025114 3.7593681781721875 4.428122188507641
Sc 8.144505206537053 10.511840857026689 2.975359047576353
Sc 5.053502683739916 4.49752621280057 8.01887392735081
Sc 6.9194072448887995 2.959530063817683 6.040912899271119
Sc 6.551402667352683 8.9981359577759 4.8365151348133395
Sc 5.690206124706769 11.883744422634889 4.417061126853533
Sc 3.892512456441493 6.57679432800923 9.737972673834305
Sc 9.459120959004235 5.420384516141133 1.8580641742915487
Sc 6.2091661130551135 6.055882345930962 5.995677982310418
Sc 5.509090580926495 8.453526820357009 7.818137054628393
Sc 7.109484702590965 7.558614983486697 2.0511745311871423
Sc 2.3765096826188943 3.965403025727794 8.38436048479314
Sc 6.732483119221452 4.692621162431179 3.37397439447358
Sc 3.6978081475238676 9.647898086012999 5.4345927726933025
Sc 4.016025065850252 3.952435432742031 5.358064201231788
Sc 4.979104668992619 9.820118287842066 2.477644264371162
Sc 3.2012787219901675 6.745325021809992 6.710729379158703
Sc 4.412600615533323 6.963665960663383 3.748848253352545
