47
Energy = -244.94084258 eV
Sc 7.639872144043102 4.052018291717153 2.622397707795979
Sc 6.398058477446872 6.828823321624123 1.3847034355220083
Sc 9.872302186815746 4.141555379008142 4.740497628997005
Sc 5.318400463672974 9.65658659537447 0.35815744445338016
Sc 4.570302861658625 8.5451209481328 2.980353245535002
Sc 7.015226994394538 3.0754182195087285 5.627888898313728
Sc 12.12762477230872 4.025990059667052 7.501291169496381
Sc 7.556480868766689 9.508079584849828 2.2356375682200085
Sc 8.882599328697248 6.7326455020413105 3.357178471510007
Sc 5.874663957768038 5.821681783874734 4.26470660738487
Sc 3.02886613758857 6.711219751035805 4.972150929997225
Sc 4.395688382034225 4.478404215621449 7.016223991378333
Sc 4.402257962064814 10.019359625359103 5.555266321386436
Sc 9.451407591683864 2.761477552361829 7.199844473735977
Sc 5.341185262881084 11.461327479146892 3.0063174753422044
Sc 10.015548988113553 9.481074961762545 4.889389619572638
Sc 11.157465724329484 6.788740337898787 5.915864367107549
Sc 4.241019795282833 6.13278738323918 9.718826019799165
Sc 8.08283909844885 5.990442200868587 6.239072262518555
Sc 1.8426355714518803 6.271230496030512 7.598692115498951
Sc 7.035385758530542 4.472220422916401 8.475445798617463
Sc 7.069059466710796 8.633974442437355 5.025879541348981
Sc 1.6455586653896908 9.108817488932404 6.200286253292004
Sc 9.96131120298458 5.626838172720475 8.76710231109677
Sc 5.182366761444735 3.3043702947652838 10.321139352050027
Sc 7.790762134768693 11.467623733528868 4.653252268824877
Sc 2.9793750749627783 8.649852518962609 8.76871463025767
Sc 7.433108394204222 1.6634168515953291 9.028909359443006
Sc 9.109680051390548 8.43852329025087 7.63903369226064
Sc 3.5447085641975873 11.362273315627538 8.006902460431986
Sc 5.1020921045558865 7.3864504976727305 6.995012713727374
Sc 10.543818223866962 2.562590537049813 9.773213239906458
Sc 5.793428956080405 12.673820466252307 6.31054410433406
Sc 12.897918239941655 6.799453050662728 8.34489091339008
Sc 6.162616638704102 5.697463291504907 12.1009018330496
Sc 7.043878155390709 7.287057085943884 9.547522500559884
Sc 6.482936392116146 10.132184495355839 7.689239937284584
Sc 11.829130810753332 9.565038774788611 7.476312478279625
Sc 8.2417163676653 3.742363444429096 11.137801535445474
Sc 11.866792084055755 5.171622955054101 10.743702512236238
Sc 3.7931887553944823 7.727930022169645 12.142034442265276
Sc 5.227452104183541 9.55386055885601 10.345366727247852
Sc 9.175824371104943 11.396276314405656 7.289507834241143
Sc 11.15749325380119 8.252766745365214 10.16348159587097
Sc 6.7820949567016475 8.526932593148015 12.598756929505248
Sc 8.511816272012155 9.8547695948734 10.257766043340865
Sc 9.12361957529122 6.7479561607878225 11.64522523326366
