40
Energy = -205.83106903 eV
Sc 9.721405484152571 4.799876435257218 3.438954973391056
Sc 6.712957601427474 5.9341114089900815 4.218544455737691
Sc 9.182328919598213 7.751482837221105 4.307808991541633
Sc 11.320508615005082 8.97407379559552 6.020268243330412
Sc 4.871352644265415 5.667145817745533 1.7755080219656283
Sc 6.401992072628224 9.071619356102456 4.369091074729635
Sc 6.999265199108284 3.5838814516381823 2.3485967126806155
Sc 9.128918962491515 10.911002893461177 4.8233136895641575
Sc 3.8778999975229773 7.114635995450979 4.202968546326455
Sc 1.924202409919913 5.207201455382138 3.364226667449505
Sc 11.668079525308393 12.030087065592038 6.099836950415963
Sc 3.6274346903038492 9.6105481695186 5.949618741687978
Sc 8.041484909270665 3.529953229559824 5.276955302512204
Sc 1.2398461343347356 7.506916718871619 5.327013996680846
Sc 6.373839069354086 11.141832007354788 6.654048134464675
Sc 8.453336441664726 9.070505839245778 7.02024957298412
Sc 9.003382810816277 12.515601829296793 7.3023538002839095
Sc 4.570237002806995 3.873223918250028 4.121408607079388
Sc 10.714813574564054 10.49952687182466 8.559722520878795
Sc 5.499819440244048 7.454919910075868 6.901012963003448
Sc 11.027509461951334 5.73988425905473 5.912091173042362
Sc 7.68209944887612 10.822830888859873 9.50918643689256
Sc 2.712816259315033 7.7597112396258305 8.140738791087035
Sc 8.296431750072939 5.9482757806243916 7.004515290757715
Sc 5.719457101656964 4.184822704511675 7.014943675377911
Sc 2.901722551978805 5.26826615195041 6.378247502866798
Sc 10.466525434774185 7.351526448656183 8.665417501648703
Sc 10.681096281282661 2.6958577970446744 5.78423173136048
Sc 4.829032901027256 9.866223739196492 8.87812457983206
Sc 7.128246709456474 7.595546392105421 9.603128947947265
Sc 4.550338263423418 5.604417446690105 9.38673489043516
Sc 8.217030125355882 2.1177021047616473 7.741877114262242
Sc 10.234892741353809 4.161473696994437 8.453214962924733
Sc 9.508112587098116 8.976539387347227 11.153201217234477
Sc 4.137074401449186 8.000165175477036 11.051817256594273
Sc 7.339716727611049 4.410430977911688 9.63155910929374
Sc 9.344949451584245 5.980414307952199 11.204540018791405
Sc 6.606725853084866 9.273119233069739 12.078580986875032
Sc 6.379966364275526 6.239311511366737 12.16095796268542
Sc 8.572815576443299 7.609530602758835 13.714445307568042
