42
Energy = -219.11877187 eV
Sc 10.971131507125829 3.310397687478492 7.519726794338593
Sc 11.008429658220717 4.565409783352706 4.432196033286212
Sc 8.708838130617883 2.7259347046853626 9.521556017097877
Sc 10.459531923150365 5.327778745237547 9.89422712995453
Sc 11.000022909117847 6.193705993304411 7.047994965079818
Sc 8.82930498683078 2.6373318852833125 5.528481097973014
Sc 10.107862023709567 7.413737327280915 12.105902664743807
Sc 6.373514532192191 2.519390704957363 7.318741054251199
Sc 10.5344551109972 8.578232412231772 9.120969827043375
Sc 8.086548179703854 4.997848353988392 11.966042420245405
Sc 10.294846461067502 7.942549080932078 4.815768679257975
Sc 8.605099012550324 3.6553645333658884 2.605126971857351
Sc 8.33455874939602 4.97051175959939 7.790101358526713
Sc 8.311191410915352 5.502210571104618 4.829757448150222
Sc 8.350133893330412 8.102119252179529 7.0941673085250345
Sc 6.075887726578079 4.085761665879774 9.869474597502897
Sc 7.8897758500666395 7.295348631854878 10.061139425541285
Sc 9.605162648488044 6.448348294932148 2.273924353475938
Sc 5.918617622103283 3.6168518167802772 4.38748220205699
Sc 8.754073098667927 9.98271493631355 11.32707633248097
Sc 7.260600581421102 7.9227187314828535 12.961630901251578
Sc 5.033117847604654 6.59575630574164 11.241112560728109
Sc 6.537545356817842 6.18745267496753 2.3863454233262886
Sc 5.66242636377544 9.524151965337124 10.77759985715738
Sc 5.290382440663812 7.846977288180697 8.203221364984739
Sc 9.175971057243185 10.914831753729501 5.715171016942683
Sc 5.493596529101371 5.283459897676716 6.845681880985011
Sc 8.09422004154916 9.131840043383063 3.1750963856283767
Sc 7.68169204717402 10.602792683839256 8.560256321354434
Sc 3.3803595553820767 3.4985517200483343 6.455081874876493
Sc 3.87913551230899 6.0464308371473265 4.171412257872868
Sc 3.346683216511496 5.172630144873054 9.14065214590436
Sc 6.2376095296143115 7.584148270170087 4.9910913255883775
Sc 6.349609434517516 10.283091948702703 5.650023557842374
Sc 2.775852807594239 8.32533909410471 9.334569156070108
Sc 7.074386213806593 12.128092209430497 3.6073804267948617
Sc 6.735855794155861 12.949253684088433 6.60329276081749
Sc 4.535044847401577 10.903197341694971 7.922252272689142
Sc 2.601613812894023 6.433177496066578 6.831138923500406
Sc 5.037248590087064 9.412511292383611 3.0192739114308895
Sc 3.510860844265578 8.998528350037907 5.719862819656303
Sc 4.199593795495044 12.065991850824169 4.997275250069169
