41
Energy = -209.97249953 eV
Sc 4.445203003168701 8.315709685823752 10.949783365697094
Sc 2.821442915030059 10.379429499605244 9.367150238040198
Sc 5.704431994755721 10.968361985150379 10.09997184400693
Sc 8.720709658358862 11.193238439728084 10.397156696597857
Sc 2.92803124156585 5.941222596358443 12.123925762418446
Sc 7.412128415671005 8.436377333666172 11.137845212062418
Sc 2.146990734933802 7.205414937914512 9.535192754300331
Sc 7.490036542817448 12.61554861925942 8.238394723812702
Sc 4.989368580484332 11.409433827833672 7.1420647543049585
Sc 5.944311594231811 5.506613166279063 12.11587060249646
Sc 6.100671123940525 6.361676548122937 9.11688430525428
Sc 9.95367704015216 11.073060487798509 7.656915764985646
Sc 10.144674858569289 8.475860715770224 9.470442827316827
Sc 7.322114112265827 9.377038224250594 8.142744086621796
Sc 4.2972593241785795 8.428892432755635 7.749208475264654
Sc 4.076622985347358 4.259665872961125 9.99140486850885
Sc 8.92240096044358 5.6988718788799675 10.82581252729427
Sc 7.766868641217485 11.005846121380147 5.548373149115968
Sc 3.303604796668559 5.43588552159172 7.397507362151296
Sc 5.303479006051351 9.3157334505131 4.888524996124242
Sc 3.047379026177235 7.239905591700321 5.099097994526703
Sc 5.558518271232283 3.5959627511384955 7.119637651612964
Sc 9.70813030940389 8.499090064171567 6.190855189590334
Sc 12.438292257720803 10.056125334221706 5.986760540424592
Sc 11.699608768371911 5.647112194224334 9.567451267469574
Sc 7.89992345904986 8.271204144739595 3.4568809416333264
Sc 6.156727521112301 6.303957103379684 5.809819787785333
Sc 10.08536696967611 3.3748893894988345 9.038290233945133
Sc 7.18231974483206 3.540412272276976 9.644075180469429
Sc 10.48098281553977 10.073437609195565 3.8521961303707504
Sc 9.015979845177464 6.0460509136446765 7.921653856926446
Sc 12.273218447168455 7.514533162558864 7.552461050173212
Sc 4.013292679957879 4.471760388387337 4.623811281442453
Sc 11.513811269744226 4.798557081622087 6.690325592424954
Sc 12.002406385945253 7.510485806923753 4.60575615706435
Sc 9.358077950188036 5.749014901196292 4.459489650737881
Sc 5.278866670250421 6.552011963983774 2.955263090101266
Sc 8.411699188194449 3.34770115907864 6.540912973617306
Sc 8.056343560029555 5.868298789571944 1.786522469123723
Sc 10.357755251439508 7.546580486680089 2.1694312319080775
Sc 6.769053391042151 4.122443544584238 3.960012426243163
