45
Energy = -235.84547742 eV
Sc 8.208168634870006 3.5584355965781076 3.421527559506007
Sc 5.624956472731169 5.1371906177614335 3.5897285536079546
Sc 7.822548456358685 5.96945601355444 1.6566786852078932
Sc 10.515876752664392 3.344445222260836 5.574760836637995
Sc 4.3177707994169205 4.1244458753438895 6.247070822378831
Sc 10.536318941605684 5.547431336105462 3.2229635726543644
Sc 7.433796106137783 4.020404850901471 6.3421857319381605
Sc 9.255123458803222 3.219097495636238 8.761224897035337
Sc 5.9076177990758 3.151436018570123 8.93858394119374
Sc 12.23024939603038 4.153814972376189 8.079052900344765
Sc 2.6309783760939243 3.5462794721431994 8.979639820152519
Sc 5.516382526205077 7.935530884982186 2.334780892795902
Sc 5.8453282634578185 6.803314538542309 6.392559237591359
Sc 8.241632595426035 6.454671808551509 4.613421670406297
Sc 12.624939992675635 5.635080271338315 5.454403107094703
Sc 9.009548994256937 8.642703440807509 2.574790686169533
Sc 4.218397975581774 4.1448755238196275 11.34361154694769
Sc 3.4810403590865424 6.9717496737033064 4.720796912134589
Sc 10.447658265473923 5.456048210560098 10.302212292727951
Sc 1.9070718366385109 5.682548246675743 7.143685308533125
Sc 10.092128202587284 5.885421260217801 7.069841821250356
Sc 4.561874446914517 5.8781732229568275 8.906482880586173
Sc 10.9053278874283 8.29888673426768 5.1841080462059494
Sc 6.817349064384262 9.086977407278965 4.642443034332997
Sc 2.2080037195761935 6.436240001850989 10.25968861395417
Sc 7.321512377414356 4.609967356383923 11.328394231621632
Sc 6.577334120046383 10.881065182842997 2.5254466706868723
Sc 7.695974806432544 5.900238395715685 8.826204691964422
Sc 12.477157178008074 7.378489782002308 7.906679062261186
Sc 8.49625439522358 8.69194396017906 7.260985953013986
Sc 3.023593496627468 8.302113277284567 7.536986072457898
Sc 4.068405202719505 9.99812234956334 4.413014161026634
Sc 9.142294717207733 10.91058973718911 4.833608892210457
Sc 6.309129429960379 8.571881285085684 9.596493876386326
Sc 5.522024882123061 9.885529725635408 7.128157304507328
Sc 10.357939101803273 8.293195995397985 9.693120799090233
Sc 5.103914242053298 7.003944459194316 11.84299414407298
Sc 3.653066107074808 9.42498242589034 10.30652724570988
Sc 8.234275512697504 7.575687638778415 11.682359009320557
Sc 11.030565022194475 10.343363066057481 7.616065351372042
Sc 6.20050590797721 12.078764217012955 5.322643692376303
Sc 8.208247996626534 11.715099106062349 7.537220806120359
Sc 8.559755050786455 10.504526361091015 10.190690838561558
Sc 5.811738437786715 11.65393776667583 9.452022651209987
Sc 6.055861268512406 10.00963670546644 12.086913592271264
