43
Energy = -224.64146592 eV
Sc 9.394985029640628 13.206052568643514 7.283568283647302
Sc 10.881306750865203 11.484108939636508 5.4398333937149195
Sc 7.882005715424277 12.155959207486845 4.486015982246256
Sc 6.478659157075389 12.965060742007635 7.162111586956334
Sc 7.824646857266009 11.673044840833791 9.520677956760762
Sc 10.603742232498533 10.582174933290629 8.578879274470244
Sc 8.366743311858086 10.403004611820732 6.700896646937417
Sc 9.220787935620487 9.320207979505378 3.9859186901996733
Sc 11.27587578059745 8.496889018274913 6.241968180698067
Sc 8.656852182896163 8.779854971845307 10.492087774778158
Sc 5.3074368478707 10.555611838920363 5.951962097318933
Sc 6.342953270279793 9.023971093425592 8.391851725424905
Sc 6.253635827167796 9.475877089545733 3.152382610203439
Sc 6.8194826442920995 7.766647510891245 5.409190087397557
Sc 11.55034082551186 7.811599424264008 9.253292687168548
Sc 5.278595116944897 6.16003139057915 3.100459597484722
Sc 8.94893300917288 7.46109400078561 7.831467367927815
Sc 4.834487228126102 11.47627067676407 9.226432536495567
Sc 7.964132642791948 7.055598021807781 2.4425646438063917
Sc 9.4566926179367 6.102357228140718 4.950501296504603
Sc 11.312548969765599 5.3468406549489895 7.490639646392902
Sc 3.7160693629185197 8.045206795223741 5.028629396221748
Sc 3.3570815921799677 9.157315290381995 8.090988674716034
Sc 8.02361060493552 4.074079810668821 3.127449660603245
Sc 5.137046338364921 8.851362344192541 10.8825127830414
Sc 9.826195521549279 5.531985879061693 10.25807834816999
Sc 6.275663763128223 4.64664893056749 5.491388368870093
Sc 6.59840448825973 6.278845098073244 9.936099481358958
Sc 8.308793886455177 4.450745939909642 7.683935501273433
Sc 9.966894002385619 3.0565578968914915 5.686824508818842
Sc 4.637104917417285 6.431317115439741 7.434714820292567
Sc 5.138601709535815 3.023444093680639 3.32595980627164
Sc 1.6961324783626135 6.697741232888544 7.17218374390949
Sc 10.303372274994052 2.6764393265042443 8.86540263473848
Sc 3.2609830847679055 4.837851742920364 5.196387288369548
Sc 3.1193068949657157 6.731730884003586 9.890484385515554
Sc 7.291124440435693 1.9696147003170523 5.101882132302597
Sc 7.690947911937308 3.333632096720285 10.54834433487332
Sc 4.531234988808089 4.499525575459019 11.166464445872252
Sc 5.57024509792076 3.590852836151825 8.589925503570147
Sc 4.558620814980551 2.1255669019699845 6.294233677175503
Sc 7.631108427411022 1.4866675786891772 7.966176617089757
Sc 2.75597739239754 4.116225543429867 8.324972690260388
