41
Energy = -214.29162458 eV
Sc 11.397869880297684 6.863579800436335 7.864026183223393
Sc 9.49716368184432 4.075365482126556 10.349866254940471
Sc 9.45667911621004 7.13777677095037 10.4369427578549
Sc 11.115032021653393 3.801037446911203 7.734241617078608
Sc 10.889050338545317 8.937255729831383 5.289572624655606
Sc 9.272293278421326 8.9921797176827 8.02046027149068
Sc 10.660587561292996 5.647000284649689 5.140860950329638
Sc 6.187987597592459 2.5914941612475935 10.550374189135116
Sc 7.147437188095839 5.40673776885648 11.469125352961482
Sc 7.942314639421878 9.858565479386243 10.623063145509157
Sc 8.36775439481929 2.467246951940929 8.32753492477959
Sc 10.57937746125225 11.241774281801558 3.3295271347075337
Sc 8.809687393695372 5.542697844019657 7.677721670547942
Sc 8.777771246668696 3.1034895426983984 5.470028960541171
Sc 9.718704453705412 8.072157809762857 2.7271816813027145
Sc 9.684306876290465 11.481654048272862 6.319592047905871
Sc 6.675498787903308 10.058704788516428 6.794443891202118
Sc 8.28574133398695 7.458111821378473 5.3487365613316395
Sc 8.042971402268043 5.188806687030309 3.248692488008154
Sc 3.616546624089765 2.9989683733533807 8.617029313281524
Sc 6.738452412692244 7.6225760983928526 8.974066644574249
Sc 6.063584809050183 2.656588352584465 3.746480291433851
Sc 6.372076059128973 4.791450634302282 5.739835302375583
Sc 5.414522442421513 7.513263282043076 6.039173770303285
Sc 7.424041669645516 12.208773636852808 8.495911525956023
Sc 8.041809525692909 10.132417498096435 4.091893347325264
Sc 5.888190153702906 2.060097128610333 6.8222131234490595
Sc 7.055038299248001 12.70427737023266 5.4092400136071275
Sc 6.0427680339278345 4.7100268971342025 8.712849824710538
Sc 4.254315596565349 4.97620955755258 11.024852907373932
Sc 4.964501259244888 5.395866181013012 3.260865002265047
Sc 3.6169909652131187 3.663061328687479 5.355076300989249
Sc 6.355712334614885 7.921915764597541 2.9870486488866175
Sc 4.7091875307823825 10.14524867910794 4.537725140317707
Sc 3.3291004894207505 5.783893764115154 7.383937882997136
Sc 3.808402958555921 7.54773086310592 9.608124987974008
Sc 4.60855921615079 12.132128077604206 7.132978534640597
Sc 5.7086032228263965 7.983125791420119 11.803861396845784
Sc 2.987442310813394 7.211624929188298 4.5601412114873705
Sc 3.346259382902744 9.20756008499789 7.11322246358214
Sc 5.180765578467626 10.268131760811874 9.5757467464771
