42
Energy = -218.93256318 eV
Sc 3.007476745294888 10.001467102401904 5.506801667326878
Sc 1.9909564229554206 6.989337092806693 6.463306560218638
Sc 2.105442707711973 9.318797525174142 8.424037052835857
Sc 3.7368926546076477 7.653160388049377 3.9019416537044203
Sc 4.343983601191501 11.28414281253629 7.969801573729677
Sc 6.022283665041318 10.76976638100786 5.490712619724061
Sc 3.1392108284864038 6.483367320753913 9.434038132566304
Sc 2.8951333956366394 3.8265038306641537 7.738407849240244
Sc 4.356135913257648 5.3401886355856085 5.4630078501124375
Sc 4.583774509471443 8.189352114040144 7.2849205440867735
Sc 4.77592655536601 9.090110407389524 10.194193561926596
Sc 6.258739356927679 6.06535114117807 2.8563403462274484
Sc 8.420899220877306 12.59930408411017 6.329543333669935
Sc 5.812967686425715 9.446364331491177 2.7293251142532378
Sc 5.699786335124102 2.507242449290099 5.951151793704075
Sc 7.646389248870558 8.94511294355207 11.34462133832827
Sc 3.9572575652362216 3.7924774482550996 10.697460089285668
Sc 5.057215686827923 1.8468175266716054 8.839830672313463
Sc 5.5436311993132446 4.841097830401936 8.393489404956872
Sc 7.309951579218521 10.480817896857877 8.535519249316623
Sc 6.644440886311752 7.747017173519342 5.138481515477737
Sc 5.863543402169929 6.262429357927016 11.200512956939642
Sc 7.218453773671257 7.469614481301792 8.736822739156695
Sc 7.208703109046851 4.970562238763617 5.680693240500314
Sc 8.30869018529037 11.302231374979955 3.5297248089695157
Sc 10.429821498538551 11.295165092220687 8.13051684929221
Sc 8.929064302378311 9.737473176674989 5.99992956853583
Sc 8.594686171136145 8.317319135717959 2.9562897119561624
Sc 7.885821994846013 1.8583263461522206 7.931244819436376
Sc 11.119255716316676 11.248656106925838 5.098136732543318
Sc 8.717994410433763 4.715723752232281 8.150016605720994
Sc 9.973921070107249 8.607777080851086 9.471910456149862
Sc 7.237069572965725 3.395072316509693 10.569199059673764
Sc 8.951663974679683 6.063149268205036 10.902920312325628
Sc 9.450556069747018 5.591034267645782 3.870988670267243
Sc 11.229119969949236 8.070730881873736 4.3547643825624744
Sc 9.337416522945139 2.9300529170650496 5.661519171588364
Sc 9.53502915254781 7.067335810504548 6.659486979907509
Sc 11.967617304816448 8.756697526204045 7.123366905690484
Sc 10.655303253480163 2.9823243918910336 8.836717892528387
Sc 11.404660328853 6.03262179247746 8.969177651434778
Sc 11.51129528993397 5.078569417047878 6.1854654571630245
