45
Energy = -232.90089524 eV
Sc 11.824337316514102 7.374453869378559 8.116939887923367
Sc 10.606035322425788 6.86061817640918 10.977671024996033
Sc 10.74892258155399 9.172514238044894 5.972156847402917
Sc 9.385926972843013 6.532559317569013 13.680613617989053
Sc 11.58919108804236 5.833164688422772 5.585173428291985
Sc 9.625547684841113 9.097873390210435 8.909681822689757
Sc 8.580950013906117 8.940863000716766 11.816310137389747
Sc 10.379163425052843 7.330859613355229 3.347021040426033
Sc 10.488477804276465 4.787734082973583 8.67376890003973
Sc 8.716264625053313 4.415440490367786 11.541411328574164
Sc 6.807577455641349 9.332490759758889 7.667085639459836
Sc 8.974022595835972 6.694817379656896 6.6763955900966225
Sc 9.28022314572044 3.618854477807525 5.938499622159379
Sc 7.881224859647807 6.528270053942426 9.58374222732274
Sc 6.687998201192127 6.465895055039 12.419509536415767
Sc 7.793138062893528 3.47320461150095 8.582159949668126
Sc 7.714831196075885 11.456041381895938 9.700289379717558
Sc 8.066034693564731 8.8343066205451 4.592454029254342
Sc 10.395960479536539 4.317731109627282 3.126404422072324
Sc 5.898893794044914 8.919947054221323 10.634378439306596
Sc 9.901940921398962 5.739879679960637 0.6607666276707306
Sc 5.136727979390512 11.818963126269303 11.019272699017888
Sc 7.827146533624782 7.791019021152584 1.73886181796248
Sc 7.724002158325306 5.689669128671243 3.995587384769216
Sc 3.8076259734767706 6.643977189371134 11.309816843845839
Sc 5.534171793753787 12.466743048233552 8.10169103092154
Sc 4.963430175058131 7.1102773534636405 8.60105388108011
Sc 8.03261946033402 2.6346743694058663 3.1520092957982615
Sc 5.585607671442621 4.507864450815473 10.212529249418058
Sc 6.736724070875561 2.021891802700762 5.863664860574422
Sc 6.038349908672398 4.918053368452439 6.654002994048037
Sc 7.338197604369837 11.578556764683045 5.846122983669923
Sc 3.925809866863705 10.065721316379598 8.679701347754818
Sc 7.222799192093465 4.773014473409298 1.2427470527015938
Sc 1.9898956407973687 7.905751092034093 9.626131646897782
Sc 5.304963504831449 7.751404078463703 5.277959089403735
Sc 5.696026774736275 9.879630641161368 3.229690865942887
Sc 2.8424309887669708 5.354113385486821 8.241870725185168
Sc 5.286203995395757 3.748739619518343 3.793034569011775
Sc 4.3622743848344685 10.603367065122681 5.809671040618758
Sc 4.087538748951073 2.830218908229236 6.608308766141344
Sc 2.5599490267103224 8.077631598533431 6.733481997899274
Sc 5.068704933214885 6.714066259653456 2.563191143711124
Sc 3.2132615242788125 5.573682262003473 5.049056216581136
Sc 2.957938836101872 8.573429540978273 3.749659949302607
