48
Energy = -252.3703839 eV
Sc 8.01121399911672 2.6267777471793075 6.783724661978221
Sc 11.367478540688584 3.9457823275583577 6.150573167989338
Sc 8.885542841356521 3.356028763384149 3.8717610937782916
Sc 5.836166027072264 2.7432813239229437 4.6034153886136435
Sc 6.922946621354471 3.4948386438830266 9.642895501984116
Sc 9.75567425508766 3.882727542589674 8.79936704975936
Sc 5.947486640230714 4.894497700071336 6.85784374645435
Sc 6.649622252649493 3.5422070809711226 1.6228154217162283
Sc 4.702350198220542 2.4079618989897615 7.789508680233892
Sc 4.067158965354823 3.722347840277366 10.978939350713441
Sc 9.134875094347594 5.557401258855803 6.038507417635203
Sc 9.074442924707272 5.716851182148228 11.19365078029441
Sc 3.1665790609935596 4.137159261353148 5.660837746383168
Sc 6.489147120410223 4.531302895492561 12.482514215160434
Sc 11.008519368131822 5.3754891890208105 3.4695632145004245
Sc 11.067283220319528 6.441557030113884 8.50518476901849
Sc 4.048865820865662 4.325334950539703 2.736701466159989
Sc 8.756081800595679 5.718034856684427 1.6357557539051182
Sc 5.460496610264737 6.193979601930496 10.200732875807645
Sc 6.706702153077293 5.602897468698034 3.8625618472424783
Sc 8.02855671115559 6.4940019837215575 8.597332672344622
Sc 6.577785768457356 8.280755892505573 6.238015657538831
Sc 5.7312742026107415 6.498539743123946 1.267141275235324
Sc 2.870308494231191 4.71558406503142 8.4427992336367
Sc 3.988370960607197 6.818095789400874 4.535740820866541
Sc 8.931257915764274 7.996500843676691 4.001424731930932
Sc 4.112795807273997 6.3309677207535895 12.84632369861028
Sc 11.774060018232644 7.2655864442600135 5.435571252592125
Sc 6.972465429063506 7.650726854751391 12.354464290226275
Sc 6.09293444876409 9.051523293793133 3.3097817796752063
Sc 4.224781627427259 7.249205380715318 7.6010013988569405
Sc 9.611317232916603 8.85710727928251 7.196016096380282
Sc 9.212209328802953 8.738673837191046 10.359243640429264
Sc 8.065435113467855 8.479966184589129 0.9286601412575853
Sc 8.012095732817652 10.768112753494567 5.315121790938889
Sc 2.5435482488918044 7.136517153298657 10.134048400789723
Sc 6.200131920279495 9.117996352967594 9.28209407926801
Sc 11.05806185391411 8.299582970393004 2.1433299314114294
Sc 10.969005081761255 10.205441607945476 4.627060484172982
Sc 1.65395308352822 7.109025065826811 6.737891384124948
Sc 9.03826185692653 10.69744403710006 2.4463347899121834
Sc 4.324726496701387 9.262885076983709 11.578697783020585
Sc 3.615167249940177 9.470473971635093 5.592237629916629
Sc 8.124905232859476 11.277843621786879 8.665243904678954
Sc 7.207643864364109 10.678931676210734 11.7019505056118
Sc 3.168984707327188 9.882871015660948 8.61860082697608
Sc 5.474173799208665 11.238157946890514 7.061337581334969
Sc 5.282289888825419 11.8886202141281 9.977832601963334
