42
Energy = -216.80333102 eV
Sc 4.433320562474249 11.395308615081095 4.207904646322555
Sc 9.114630604274366 11.731920574970735 8.316961394444235
Sc 6.738254556942774 11.116651540941257 6.148843574166603
Sc 4.475812557310612 9.606059340267832 1.8411281305717344
Sc 7.185246509766462 10.580240809559916 3.073426732021281
Sc 3.9127124449124633 9.949297224100997 6.930364458308968
Sc 9.575194373937197 11.054506679371615 5.293018549318535
Sc 6.175825538186424 10.339171817335426 9.021670400592702
Sc 11.43156502741586 10.80920228617407 10.360629152114335
Sc 2.5317937354973226 8.983577490841826 4.290290079141727
Sc 8.804073007992711 8.263634602555666 4.255388163946643
Sc 3.3957835558276153 8.569594534725322 9.716025595743437
Sc 5.63633082441202 8.481458694128245 4.668477412652426
Sc 8.561068049164877 8.97075383279958 7.424596964250248
Sc 8.768749773481554 9.529879145659088 10.69710550458242
Sc 11.422364895209691 10.14135539379812 7.367400026299418
Sc 1.6709616298193497 8.041460581152563 7.22738954276525
Sc 10.921181580740837 7.337812118153996 6.261944136760732
Sc 3.8807408963555954 6.820413943012606 2.590987934882947
Sc 6.826517078267813 7.571933970978947 2.0110324131581927
Sc 6.056549332828728 7.978981629361069 10.79565375064068
Sc 11.312758398477827 7.948125580515644 9.40367574760984
Sc 11.071365430167841 8.53047067378941 12.298449202120082
Sc 3.4897584052142028 6.325280906350339 5.663164941111475
Sc 5.652768807608095 7.387117596812477 7.770602591344598
Sc 8.195793828637164 5.815055507886241 6.291691846780857
Sc 6.0528377492493055 5.341640194535375 4.11846310041166
Sc 3.7562855080367967 6.225141730121375 11.732101092870275
Sc 8.450313650191895 6.425880409099709 9.54867734559564
Sc 8.342323463808642 6.964912925431718 12.584001815756018
Sc 8.876653926262344 5.335583107965622 3.272199054511468
Sc 10.735009262525898 4.407343799750049 5.31952736867924
Sc 10.954423964520347 4.848003540975374 8.29426189401479
Sc 3.0677833997595103 5.743003627339739 8.733694354573645
Sc 10.694603215656125 5.565264087630823 11.367411559456064
Sc 5.470337826664273 4.281240949183976 6.913025490028345
Sc 5.727778772253774 5.048012117158892 9.801762874977925
Sc 8.105397476841638 3.0600546386054366 5.246994877800971
Sc 8.063230282020957 3.3654802605268923 8.521700403379446
Sc 8.0372013540383 4.192791400142795 11.563345698301745
Sc 10.417429207173866 2.0627535512847626 7.257884777563658
Sc 10.419125944272663 2.670646037132509 10.191836249088974
