47
Energy = -245.28210253 eV
Sc 1.8570297713962756 10.90321950028198 4.579946686489068
Sc 2.849220590793365 8.399168242727544 2.8789638864562357
Sc 0.8454998854650031 8.254253235149324 5.349102746113332
Sc 4.509052999846781 11.086632720942358 3.3605422918242565
Sc 2.211044227755213 9.824219880005348 7.5216167375038765
Sc 4.223433066522558 11.941445555269594 6.313628536875736
Sc 2.680609856968692 5.9751214971145865 5.441893682587551
Sc 6.125065278591637 8.52779970973928 2.825276686986633
Sc 4.065689518806346 8.787047984967923 5.424403005055953
Sc 1.6105406525458255 6.896894193017701 8.154631138985083
Sc 4.917273522223268 5.886488835178142 3.4057542792878963
Sc 6.687027099931617 10.40219103176263 5.4681016667544355
Sc 2.9616744075051677 8.68654674121618 10.193218188071128
Sc 2.928910087202441 4.028795668049036 7.979632329072219
Sc 4.619735242794153 7.003019719030538 8.076995321455845
Sc 9.049328027381419 8.704918931653932 4.1197232046091905
Sc 7.956258436226946 5.892328326135785 3.0844952003763146
Sc 5.4153830651115165 9.921759202908207 8.398136619884959
Sc 6.84842749499866 7.130504516789204 5.594888373869471
Sc 9.638958677393623 11.404738722576717 5.659578668292702
Sc 5.240847322595917 4.633751260164475 6.171350317556259
Sc 3.519494896722307 5.6805688257852465 10.596583615518414
Sc 7.686549852354221 11.997345954384953 7.928330786384332
Sc 5.656106044399057 4.176305230508858 9.10452710477862
Sc 5.6548587884235735 7.7850916793549985 11.068493222604861
Sc 8.508818312699407 9.089312154032495 7.349151949742563
Sc 6.93801011816126 3.240229025574458 4.211363212861702
Sc 10.643328325482996 10.750381696553617 8.535161418973413
Sc 8.008607502225628 9.804166767756032 10.234388891729964
Sc 11.513962789615379 8.988204487491203 6.031977536056361
Sc 10.584206875536674 6.1217747473847615 4.777481070540351
Sc 7.704872139752544 6.517585835904683 9.220735215040627
Sc 9.80382335356517 3.381071055586306 3.6139688038503435
Sc 6.395089268959454 2.0826242257480754 7.002078059353535
Sc 8.434284735480235 7.385264671754394 12.182803280382414
Sc 8.427690657010208 4.605642809480421 6.582662181304323
Sc 10.557057435536052 6.770405709081538 7.966894503527319
Sc 6.757669478553738 4.9632906138840225 11.704810046138562
Sc 10.740530619898676 8.313802245611567 10.474649601528174
Sc 13.063982190056313 8.668436244796721 8.60087031848868
Sc 9.430369357786793 1.9383424398771485 6.23402303579544
Sc 13.106299829352585 6.137821971383465 6.853014590125214
Sc 11.8527103829301 3.6210225477368163 5.69204779280467
Sc 8.34021402391745 3.0479055720053827 9.309747114998416
Sc 9.935645349016182 5.169778128178008 10.847351962778497
Sc 11.12969124144749 3.836524491189996 8.421605355241711
Sc 12.809239259442322 5.968885209570443 9.880484417209573
