46
Energy = -241.57726777 eV
Sc 10.643482540149915 6.461445778511447 3.583260849223951
Sc 10.545919115575659 9.58686872761088 3.1553611419200305
Sc 8.360745685860998 7.938489454539678 1.9569510991468768
Sc 8.499229261475739 4.684235338004129 2.4270470978283907
Sc 11.609293104826842 8.381764953948373 5.880619617872262
Sc 9.586911945761113 11.00237889873209 5.872674161262169
Sc 7.433387454015904 10.600077931036449 3.4478988925790146
Sc 11.336605959018918 5.028603501192381 6.416609864523143
Sc 8.715462040157766 8.242401788100914 4.976102828711262
Sc 5.057837440323391 8.683161638751127 2.473408537343497
Sc 10.83006923993308 4.82317996387022 9.460634884186222
Sc 6.4760422154063955 6.398123966012991 3.50165083853297
Sc 4.266729338657151 11.072914447103821 4.184872581501157
Sc 6.467246319865898 11.78562320885197 6.37936898049802
Sc 10.800954521299843 9.865270770799999 8.66384616666307
Sc 8.603244342900956 12.228927715552208 8.6409437709861
Sc 8.421075231940435 5.214567851041457 5.557373418762017
Sc 9.773479675156494 7.135160332293223 7.918276605485394
Sc 7.867970729968117 9.507998819969004 7.885448715566473
Sc 9.440353112710369 2.85335681539588 7.751040205659241
Sc 12.584515882757923 7.145534272441208 8.60587451805031
Sc 5.823707307450529 9.001068931247136 5.4241401197277765
Sc 8.437800131194903 10.071043788919095 10.884974464256352
Sc 5.838906406034826 11.07827448877726 9.32399470222392
Sc 5.204978137268569 8.02961267424802 8.569724239299166
Sc 5.392406290750808 6.069108884914211 6.214488879019673
Sc 10.402013080410018 7.540528397399561 10.88495844518769
Sc 3.6549528481332665 5.606301785660964 3.5219950783153773
Sc 9.214338347856337 2.736715306034897 4.718800590070829
Sc 3.0380868478210306 8.21835857326913 4.835322035609015
Sc 3.6603048693661515 10.189245797208617 7.133045376106422
Sc 7.383289562816982 7.313160719297161 10.30939731272855
Sc 7.653435923467585 5.076791443445869 8.472944202087586
Sc 6.075744576083941 3.577975181906838 4.178211040755517
Sc 5.593227721817566 9.241704621957018 11.778957903947008
Sc 8.756803249032204 4.94050113485953 11.544466512016356
Sc 4.74292051497517 4.863250917632024 9.04575287061624
Sc 2.679943273127596 6.748974337616901 7.563276916912453
Sc 7.761535412597315 7.492246549678523 13.1315101668221
Sc 3.462618975168997 3.9721837428402704 6.166245921263505
Sc 3.655762621317802 7.130255350014609 10.952600885112817
Sc 1.1513678703338757 5.769074906294128 5.135933707814832
Sc 6.571809565073143 2.714624082738488 6.9880777539250785
Sc 7.175098634322494 2.756204335487854 10.05197309443091
Sc 5.868286057754162 5.264910772729232 11.870486286142924
Sc 4.749453969022848 7.284339090485759 13.843323363821803
