45
Energy = -234.54499396 eV
Sc 4.100548831682234 2.030412925590128 6.467411915329772
Sc 6.223283905239168 2.8384989569621757 4.326190236034432
Sc 5.459911845321827 2.6273029954831744 9.313827732419663
Sc 6.919812173488762 1.4267333608524828 6.969605561815414
Sc 3.60558370263481 4.558477269501981 4.78071200474844
Sc 5.705249303475969 5.45937980872506 2.532789680811135
Sc 7.98797295250167 5.450131008673593 4.821323127871798
Sc 5.888994390404968 7.5792285841427125 0.16810332659478192
Sc 3.224006572414104 4.728833465650709 8.034635526589867
Sc 3.2785036506388017 7.169040906776265 2.7949866292656464
Sc 5.312723687961583 7.01175888018473 5.098256994673641
Sc 2.6343142522521275 7.242579324191424 6.318466300299133
Sc 7.345989443004429 3.641530704737852 11.91173890912776
Sc 8.35762334608091 6.861750503512356 1.9387514021611616
Sc 8.286728073086298 8.50122758953353 4.406064334172153
Sc 9.123880084233447 3.5197436884862467 6.915870761323142
Sc 7.644854478009619 4.890699225252817 9.294739654536002
Sc 2.4746648960664945 7.619416913995901 9.567780238246339
Sc 5.917571316482149 4.345186877440789 6.814982105151415
Sc 3.875925090322871 9.73756520842959 4.708007114025032
Sc 5.802950283226789 8.608938746830043 2.7160626240394734
Sc 5.892143761245598 11.99565847694354 7.062295804449108
Sc 8.499340218623628 2.0410928286333787 9.562485873586164
Sc 10.895884660163738 9.337816058371496 3.319537415166631
Sc 8.412123652964798 7.048465393948195 7.423347230519878
Sc 5.222275119328232 7.191744700979927 8.345079239352627
Sc 10.706674020400412 6.430477883201735 4.087904843544957
Sc 6.503108689361492 11.198900198259874 4.030673692579525
Sc 4.637860724902088 8.302970171345152 11.448771988096228
Sc 8.918493325282054 11.138993410282994 5.69148249307107
Sc 2.9449724216522637 10.632287479369282 10.463227039374887
Sc 4.850574442298375 5.35529438170154 10.767831570370413
Sc 10.487341974775353 4.351477041186343 9.622547602703714
Sc 13.088178354506878 7.75285804688458 4.975827062266619
Sc 3.6160258518292383 9.76782255745591 7.702744655400587
Sc 8.081185280624712 9.75525670263607 1.4785938206401397
Sc 6.657214853042994 6.337269605005242 13.045724164329439
Sc 5.894694646271289 10.226882304145393 9.609596159232835
Sc 6.512634041801921 9.392505594219173 6.559477936354043
Sc 10.700677661073316 8.751477429929263 6.346611050527009
Sc 8.789573141113424 9.958354301475493 8.587702371802802
Sc 11.238058531885345 5.826817258905655 6.9107166417495005
Sc 10.587602506295818 7.380640253748843 9.471130127423844
Sc 9.448099595040395 5.808822696370868 12.016262139291069
Sc 7.581216178149595 7.702523623134504 10.498490592920529
