43
Energy = -224.92246862 eV
Sc 10.209960098922263 6.310203911854014 3.192798400042272
Sc 9.67285025246088 3.374161535185527 3.6552746195445422
Sc 8.029796678884663 4.625042489842164 1.5434739641996404
Sc 11.206240324342897 5.147099462761809 5.85481445383894
Sc 8.721611375835106 8.637278357021662 4.215757747954882
Sc 7.432566719063788 7.743502989580129 1.7844295354503625
Sc 9.620234447409713 11.28817669432947 5.410425889229776
Sc 11.450370096223942 8.214279382529169 5.520770391686699
Sc 7.434312814958335 5.716815148564073 4.300765848802141
Sc 10.396044062870914 4.0013100077479855 8.849669734305753
Sc 6.379944053515062 3.088388098076622 3.7533908381702377
Sc 8.581899621701158 3.720892513331056 6.337368866569119
Sc 6.877213003610576 10.909319790374626 3.6716195104025977
Sc 5.297414570087617 5.641584483622974 2.20766048137649
Sc 10.427693934789493 9.692173150704136 7.837863300249152
Sc 7.260701760442703 9.749092211604927 6.482143739671654
Sc 8.939499234559312 6.911223795755446 6.763833341551394
Sc 11.132974090801262 7.0001360922523155 8.692856271509658
Sc 5.463811031569473 8.204256386224664 4.28023581093082
Sc 6.927959608953593 12.761216742614678 6.091304671218619
Sc 7.910983517561964 1.9231752265436748 8.600122725838705
Sc 4.086989287951217 5.1754467274790885 4.9402737103048
Sc 7.606788033090971 5.006150202125077 9.043165608622425
Sc 8.08092956472632 8.262362193280119 9.345880366861522
Sc 5.71207688203969 3.5060917960205424 6.933272185228809
Sc 8.52611629784876 3.1060952917402753 11.212422489945856
Sc 9.470407430099641 6.1241019487795345 11.231611060708476
Sc 8.517150990076086 11.738995239204174 8.522295907148452
Sc 3.088474693778085 7.963048543668454 6.552134458969889
Sc 9.962093701286259 9.502230773453164 10.947520022335294
Sc 4.46972369627922 10.835279021757547 5.955211381631111
Sc 5.860737692741238 6.618143675040912 6.904272755261364
Sc 5.455018570763157 3.3528131824850895 10.110101314726789
Sc 3.493937331919733 5.154440357967564 8.067644649123645
Sc 5.145580936020442 9.108107270974857 8.549486808604568
Sc 6.762226766222974 5.1609064821634725 12.296609134016055
Sc 7.254396532665974 8.187963125098717 12.19557949808794
Sc 7.064304359795695 10.719909178119934 10.852053171845688
Sc 5.413704884887418 12.067979089334163 8.717464809135842
Sc 2.670541870105056 10.530471138310965 8.64214099598759
Sc 2.576393291027076 7.686958524257606 9.549654262303198
Sc 5.2791254568930945 6.62448713872544 10.222200507736376
Sc 4.321052103449193 9.52619038480179 11.29485657928904
