49
Energy = -258.26314487 eV
Sc 9.097021027633206 12.202415522789293 8.03841371186606
Sc 9.504285805617974 10.610847459273929 5.06088249043713
Sc 11.420969351414387 10.205084906006178 7.585739285338508
Sc 9.480094199386224 10.239282966807885 10.256302961835162
Sc 3.7940504981371084 10.79390617830552 7.714113557824833
Sc 6.696331571217472 11.6469055291103 6.245879698004812
Sc 4.072993998247883 11.082562099291255 4.724752306955447
Sc 6.823515503175207 10.017210882875695 3.643111531042899
Sc 6.502578103251909 10.657314239846931 9.310352329962205
Sc 12.093999311691135 8.57847129315396 10.06419388286915
Sc 11.86743881772743 8.609516833572313 4.813555101896604
Sc 9.487053014017855 8.385312013111383 2.526743000311972
Sc 8.545875456092224 9.358171618294348 7.577707891529622
Sc 1.2241555619981686 9.249286967659142 8.710679780266188
Sc 13.624659047966396 8.098776153788602 7.575000554484019
Sc 5.728629741823656 8.8866272133759 6.228481514317103
Sc 4.073964556787145 8.863359069947345 10.223534530711213
Sc 8.416895873138749 7.507829748641767 5.008149448939939
Sc 9.486018645606629 7.137630795209478 9.744804321289068
Sc 3.999935711199732 8.218519874568644 3.769861030660221
Sc 6.494091077033409 7.4470113691320385 2.3915132354147497
Sc 1.7204140136433224 9.235278698792474 5.669417956228631
Sc 7.07340008178157 8.515154425413371 11.514329310699598
Sc 6.503701282426117 7.383867986001947 8.895255133128044
Sc 10.788094957866537 6.988979395133522 7.0066759520779005
Sc 0.46652418201395657 6.76873931172684 7.266924490912162
Sc 7.659055971577544 5.582766218511028 11.380894105949452
Sc 3.340497674147264 7.727766106900619 7.470211673144258
Sc 2.1500876560786635 6.174806431940367 9.7216816562567
Sc 8.101144858320955 5.096406947048496 7.292072169368509
Sc 13.175171319594035 5.7468486665753 5.867334311864737
Sc 4.794168442309151 6.036684539575529 11.116795270376523
Sc 12.473581878763769 5.683689497814814 9.080123801674542
Sc 10.90478569816518 5.9754852651165935 3.902514390867104
Sc 2.523792661135956 5.931841108383627 5.122025839645618
Sc 5.6458472263692965 5.897685139700918 5.192352224620597
Sc 7.960561203400691 5.126091471954866 2.9649658060982396
Sc 9.748573551155268 4.015720460254381 9.691125159715991
Sc 4.701550125796595 4.950691817530843 2.7364717125202396
Sc 4.6740468788578475 5.0917433900525735 8.031804240900577
Sc 11.221303446278487 3.801883015464802 7.154744667148077
Sc 1.9963387813482845 3.9871340714655203 7.51910784684013
Sc 9.544045839260843 3.6515501088859206 4.946943206033046
Sc 3.6414320837775844 3.2569013434114824 10.048925110046339
Sc 3.671042356014905 3.2518592358211036 5.120380110883896
Sc 6.729148754430717 3.438635991877745 9.664648505036748
Sc 6.633529477223737 3.047367418759238 4.967882211714257
Sc 8.48727540191033 2.1669137298644388 7.4210438449732425
Sc 5.088137869810969 2.2222329683269466 7.5127420561090865
