47
Energy = -246.55600486 eV
Sc 11.385178573310924 5.202760307743338 4.551887924805155
Sc 10.422703886179395 3.7398361543846383 6.991539596841407
Sc 10.65115590708676 7.732726373529282 2.656386517587206
Sc 12.932928946390499 5.671525751807137 7.068491733912329
Sc 8.571602234991733 3.2779151997757414 4.608537126620966
Sc 12.147322617312492 8.169663110255549 5.269123341236324
Sc 8.675254282664385 6.349357794483044 4.219566315768644
Sc 9.998896577779812 10.7255413243241 3.2886609792044825
Sc 10.95557035228873 5.545696802472548 9.54926742531311
Sc 8.459795692101524 3.815295380086388 9.120923496266542
Sc 7.7616466588056765 8.394429093694443 2.3602107263663274
Sc 9.210188306706556 9.001953318462457 5.211191035639955
Sc 9.996457438859665 6.634280407241087 6.97979134327569
Sc 12.07132484409323 8.383767588904137 8.416885967026019
Sc 6.670811874709326 2.2539211739200007 7.056451307543595
Sc 5.569833155513172 7.443454172652538 4.361582152146264
Sc 6.56300448932318 5.029410086539478 2.9963859707444467
Sc 11.247396146754658 10.894244381341974 6.631626017833447
Sc 7.0922988324274145 5.131487562111669 6.420799666206327
Sc 3.504178372281989 5.587708639803747 3.3369564560019214
Sc 6.526317754204103 10.437808731491794 4.280622735032238
Sc 6.821323517992254 8.432114080332532 6.837939158677942
Sc 4.949793842991789 3.237943907572083 4.817520291084749
Sc 8.626790446987444 11.891818737566474 5.871744748890496
Sc 11.270999472399655 11.155929190779137 9.77810025423367
Sc 3.394287336139945 2.8427502052580924 7.549336788691257
Sc 5.539671343549964 4.24482236183071 9.029202340228343
Sc 7.921131994015183 6.800477197856934 9.474812166820943
Sc 9.206105506330454 9.540079030403724 8.454968281384742
Sc 1.8711302340105735 3.8856379514714585 5.118747903362464
Sc 3.9382729940923986 5.667779047693063 6.480550479784372
Sc 10.260094672695228 8.170582245246035 11.05127743079395
Sc 8.703918967356861 5.379554356259424 11.901350503769555
Sc 4.839777966251572 7.466515277582082 8.873782192983128
Sc 5.960845288802979 11.383162055344368 7.135809165243443
Sc 8.561534452005988 12.350013036859579 8.889788172597632
Sc 3.846077598428661 9.069975349616364 6.313523452013741
Sc 2.993849703082452 5.440373493054879 10.164874352632834
Sc 1.5666510752196103 6.973766034168285 5.387222258145154
Sc 8.773742383218936 10.75435314674316 11.4183832331247
Sc 1.2426723485642672 5.090597129258727 7.756018122594777
Sc 5.670493838538051 5.847513637784533 11.603920710049167
Sc 7.302971134773597 8.158513288254362 12.209115929172112
Sc 6.451706592801341 9.863791510280203 9.789619383087658
Sc 1.869903896298754 7.877914676499831 8.609375566843603
Sc 3.620383241071039 10.366055886187038 9.031603378939385
Sc 4.078468855189538 8.445955214122241 11.475658064524985
