48
Energy = -250.93239315 eV
Sc 6.763935600520128 1.9899191510730354 6.725314724383791
Sc 8.907633855760293 4.143715095520587 5.913270562154972
Sc 11.701648382927335 5.105621995137554 4.682248656891102
Sc 6.1559528090423585 3.67244893039831 4.32496787793258
Sc 5.831990717678354 5.251928787221134 1.6144219233807748
Sc 8.548928120575011 5.4643949373054 3.342126800032419
Sc 3.899312358200503 3.2521734573675873 6.409195122350333
Sc 3.305755944609147 5.000695570637646 3.515864449448604
Sc 10.24534574043316 7.815251700185772 3.4893004158226866
Sc 10.42386569376879 6.903741238197963 6.3520773352159825
Sc 5.322322549172467 2.677677622773585 9.191936064985676
Sc 8.329571843991806 3.6766993868370235 8.978659420997218
Sc 7.2728134441861005 7.998392901890438 2.1748378614729558
Sc 6.1658482017634215 4.993206673243385 7.155042690885207
Sc 4.172160360294908 7.675138292494501 1.776173024570346
Sc 7.812836766604185 7.392954752828606 5.765967594273149
Sc 5.511918990674215 6.625217265927613 4.205165810912477
Sc 6.474104536251451 4.174698513104554 11.487375553919442
Sc 11.258526970991815 4.513401209851244 7.819321849846998
Sc 13.121141015427288 6.887596952876162 7.012672130106572
Sc 3.484239246946952 5.00574248216551 9.251439891969381
Sc 11.146318908582714 9.740756402258931 5.706103609422486
Sc 3.5395967441141343 6.499355848966666 6.534319334731519
Sc 3.566793309415481 3.1634657948033924 11.665851123357752
Sc 11.98104043605974 6.274787437924796 10.049219118975369
Sc 9.45895478804743 5.221712835838485 11.456331850423974
Sc 8.988176049887333 6.791460373110429 8.964509250239864
Sc 5.636075867774502 8.585001572046732 7.327160888081389
Sc 4.1469364420650106 6.117053355421986 12.085834986467422
Sc 8.257897625460101 10.069200417069087 4.388429886083525
Sc 2.5180099277596586 7.917121649301089 4.202687400069788
Sc 5.184012798197654 9.59125505319411 4.190725186016342
Sc 6.024549994841168 6.655786103747487 9.802884148405964
Sc 3.2696547521721033 8.095866350430938 9.305899745471258
Sc 3.1296121823033576 9.808254207620884 6.5758019962713234
Sc 11.394580277395416 8.83459576987896 8.748180797694793
Sc 7.249768260918209 7.1179619865934525 12.40118099744577
Sc 8.707257280056965 9.898248547383139 7.51633170620401
Sc 10.032695198919674 8.22288014097176 11.44869487803368
Sc 6.153813753734633 11.479954071788354 6.379971393747206
Sc 4.9887352812484735 9.062748501043549 11.617272476677801
Sc 11.664842650088941 11.823748565116105 7.87478392726873
Sc 4.659512439284066 10.798159669194249 9.059435190367935
Sc 9.239577540802612 12.54229414470683 6.322660837908929
Sc 7.384453568219462 9.402653595982333 10.084216395074666
Sc 9.886183348456218 11.218319043515914 10.11595212736322
Sc 7.404968475520473 12.331621761812018 8.933291313356252
Sc 9.975169339243095 14.031061419531259 8.875864369428195
