42
Energy = -217.02740759 eV
Sc 4.9148199506433485 7.984431272394144 2.163574389557603
Sc 4.622192657626341 5.088386386818444 2.7130628620315465
Sc 7.42889121598551 9.56827075087039 3.012167901628275
Sc 4.605530285296284 10.170795348853154 4.379522168865345
Sc 6.907098264334119 12.05126299945762 4.574558227737471
Sc 7.118706437573643 6.464518687356865 3.5370593398365413
Sc 4.2731320573503755 7.150419638288643 4.9263660114642
Sc 6.705491337972849 3.439879700299548 4.287830043197741
Sc 4.179978239286884 4.204908910457541 5.648542396815797
Sc 9.675002995930077 7.931526408302332 4.792985845786355
Sc 6.8495398444755 8.907248614843077 5.828428474539658
Sc 9.41945393683121 10.873931101882567 5.311827407995247
Sc 4.085636724827256 9.13296265427395 7.448697015838451
Sc 5.782211772034767 11.67973231457451 7.280501602281514
Sc 8.448060272779088 13.092203281229333 7.01411308896654
Sc 9.389928933942151 4.933957448194725 5.2085867090387
Sc 6.763739813878427 5.6157727917572124 6.712349152935227
Sc 3.681497367248741 6.016489285804598 8.002981126056262
Sc 5.010212107016018 1.5893258255816538 6.223559232543596
Sc 2.534362470012328 2.998756456526733 7.7693810545177815
Sc 12.09731163225293 6.376637242328696 6.235487760979025
Sc 5.320461718746875 3.4777743789952096 8.598607596473617
Sc 11.333047328281792 9.415953510093377 7.04052343118122
Sc 5.394861247826231 10.413737127960276 10.04620895317105
Sc 7.898935894044755 2.781541683969073 6.91379355198321
Sc 10.402268243158142 11.753300449246147 8.946338086149558
Sc 6.286467212009019 7.709593853769974 9.050694353928485
Sc 10.758032821804049 4.041963778990585 7.666248675620066
Sc 9.53172583035906 7.011490749084287 7.817816000705765
Sc 3.526205045131406 7.700234339953295 10.464350337908826
Sc 13.149791125105606 7.649126838252866 8.681750856930709
Sc 8.259837839878177 10.060268960720803 8.215308483827737
Sc 2.963619773018961 4.493654337684419 10.460755747573343
Sc 8.301101479344833 4.553759380612497 9.39403392369337
Sc 7.55590623684697 12.704589347826799 9.793702463563188
Sc 5.905104832172662 8.240500472864094 12.096756649262833
Sc 11.309078662250501 5.770444282368824 10.04251895500221
Sc 13.64362752840932 4.75178218564866 8.323741567463507
Sc 8.2691484693546 10.178484881775885 11.217263353689326
Sc 10.827032595038864 8.935166652365222 10.110546127568588
Sc 5.752302768285248 5.505042495626832 10.893240049350995
Sc 8.556956250106307 7.159899195492133 11.040703305909473
