48
Energy = -249.69238143 eV
Sc 7.6023294370910985 12.158948657026347 6.683345955734517
Sc 8.597238404191296 4.471215599389507 7.479845173096247
Sc 1.3500150431611466 7.167299566396768 8.200278402719816
Sc 8.261489253053474 9.486966578732966 12.304742387668515
Sc 3.60537740149447 7.517925817538396 6.411017185382319
Sc 9.24806281290398 11.925787585081517 5.850883944075753
Sc 8.558224794538296 6.707582541542813 2.9965772643528528
Sc 6.597720637313236 12.112668274814164 7.7489472016853025
Sc 8.79950766177127 1.7361609513972533 8.82940151700257
Sc 7.104329546795352 4.35482799368883 5.001468387221377
Sc 6.377018167926609 2.2068711799528806 7.200927206341624
Sc 12.94959021118848 8.261151235571644 11.901312925554343
Sc 3.9088732198633087 11.641076916435209 9.806046545244623
Sc 7.297496879146488 9.579796621797417 5.997043412093949
Sc 6.374214982378278 11.977182030787603 4.598762870993153
Sc 9.456166214220204 4.4141303238381715 10.453194307721812
Sc 10.64744951693104 9.712606251284527 10.563874416574029
Sc 4.459669278499258 9.741609875078915 4.655280840575927
Sc 11.251231899308657 3.7641278349972067 7.905560206160581
Sc 6.3669403920147065 4.200064780379759 9.495084446293944
Sc 4.256257725517644 6.77923761623018 9.436495939611326
Sc 10.200138612018318 7.0445378057082335 11.991711171356751
Sc 9.665099061688695 9.632606027639492 3.723351779984956
Sc 12.119329901052117 9.435863754896607 5.5019233524215645
Sc 4.898695444521352 9.517404478375546 8.060100811610553
Sc 5.372618038485111 9.25375530212148 11.203001137266186
Sc 4.517370931994903 4.694921087927816 6.940031975864863
Sc 2.418510713583505 8.811150680546627 10.644341981844358
Sc 9.071315233991777 1.9540436694809011 5.842912509209562
Sc 6.8607877158158 9.438162349199835 2.8532786335066884
Sc 1.9611642028137442 10.004945261464002 8.138240392190433
Sc 5.900331844219866 7.077544498511249 4.480390708749312
Sc 6.633629708288421 6.806353461099333 7.594109914958208
Sc 6.459922047794937 1.2552777553145613 4.457059133740146
Sc 9.956309000655036 6.945460036581379 8.887887972187665
Sc 9.329438869214126 12.158948657026343 9.068465489276107
Sc 3.586423100219756 11.846789794231452 6.496366545436632
Sc 12.738909526390053 8.53473861596615 8.820761893166614
Sc 12.371595046767393 5.80018845092376 10.165635008756139
Sc 11.542181887983155 7.2115569091215725 3.613828739130484
Sc 10.197947384558534 9.724918789270685 7.558435818660236
Sc 10.371644019524167 4.672672719530218 4.88265492557971
Sc 12.240138605602207 6.4710462823463875 6.658174122470027
Sc 7.763128866044224 9.503501180829513 9.263210253994243
Sc 6.876263040848926 11.86233571138897 10.864429420723173
Sc 7.335357332625389 6.801260564705598 10.852460648443397
Sc 9.449760027204574 7.376827324110905 5.732570623471395
Sc 1.5201492698408383 9.338433830615537 5.497518118510979
