46
Energy = -242.34182626 eV
Sc 10.158961605211315 8.892057607620163 10.952882956549203
Sc 11.813641590324737 8.141144799152437 8.368585150100534
Sc 11.801419574903461 6.283626882919658 10.838479654381164
Sc 8.758503371333553 6.235118112355596 11.9597771279351
Sc 10.19731556849557 10.851966489094009 8.369879241855083
Sc 10.50942084803736 3.8699849713749956 10.66786046177849
Sc 11.68122662004581 4.982765440933527 7.96618166097833
Sc 6.99130177780294 8.928289839732265 12.014561128889524
Sc 8.47514039012702 11.485331138408139 10.960913219070994
Sc 11.89421246202064 9.993007529302812 5.8803942589003375
Sc 7.427797973167536 3.718113243373051 10.57867453930089
Sc 7.842927845242766 9.201758611594746 9.191670814542354
Sc 5.5356894724467365 6.182231353126084 11.806973899519095
Sc 5.973931297648413 5.640713312759592 8.924005396278785
Sc 9.219761259811253 6.209133190202447 9.055121239791566
Sc 10.214537027204077 4.146734859987747 5.183112400633819
Sc 3.691513612172543 8.939061569832239 11.40445112748065
Sc 11.667117948187402 6.9566391372998 5.395418450834568
Sc 9.14817118008257 3.057246612721702 8.000787534559123
Sc 8.95509286285229 11.30592602171888 5.52315295105749
Sc 7.146685882611162 11.992791789998071 7.988126363923133
Sc 5.6217095855622 11.06460581213278 10.41835414057121
Sc 9.422884088838316 8.431349044722252 6.55406876290805
Sc 4.349334351953868 3.646295977777362 10.394975176609885
Sc 3.1049945971715456 6.2769871752383555 10.067542601758138
Sc 6.003812298213714 2.871362893848673 7.797170587413327
Sc 10.105849844681428 9.118469099154277 3.5680842777430146
Sc 9.996972584030397 6.234544314563099 2.898440518023381
Sc 7.816737661262135 2.2261582716933423 5.326357814866564
Sc 6.470950242387647 9.569856277433038 6.330171544156702
Sc 7.668336803682423 5.059727042741049 6.308039805302457
Sc 5.429770647976898 11.869865175230947 5.013984934298033
Sc 5.062193124321707 6.876921991482058 6.1268866372988455
Sc 7.661523941373769 4.444354926379308 3.232516791931477
Sc 4.068980512340751 10.904555015329715 7.813231965739106
Sc 5.054610246989821 8.393805928877795 9.053753085185472
Sc 7.33225264441429 10.19507050689617 3.303878113345773
Sc 7.6831843941905 7.348071993896508 4.327098155275288
Sc 3.355793010511803 4.781168746441232 7.460400793936986
Sc 5.099085341193009 3.949830886847254 4.994609655354596
Sc 7.515460530459919 7.644649688032092 1.5013102943035512
Sc 4.8028068748587955 8.96310319668451 2.8340245364734713
Sc 3.523313581929491 9.471254753772913 5.323464954433704
Sc 5.21793353997487 6.14427057545753 3.0053887350830526
Sc 2.6629694319900534 6.59623834389556 4.625759564317624
Sc 2.5123775220368683 7.9295883311621305 7.590246483364056
