43
Energy = -224.23342543 eV
Sc 7.844347772626803 4.038559864370264 3.0358361672462957
Sc 5.957831388263491 2.4290488548161298 5.101921259556628
Sc 10.433845818341041 4.315691401552172 4.8045408705282195
Sc 7.539882239126313 5.6242229050898835 5.261069553988018
Sc 3.0067961861152224 3.3075447491859706 6.166675094520011
Sc 8.425073768056423 3.0911996745049515 6.719667170083235
Sc 5.511557041859429 4.03992815641139 7.413857232331808
Sc 6.360775536826385 1.3556756145934488 8.065684048488494
Sc 10.642583764952612 4.781943860916822 7.874193297981096
Sc 12.565111887499974 6.921790336788775 5.181234939784696
Sc 9.834813271759591 6.491388087815558 3.0640623418007604
Sc 8.109432173588026 3.723302026322446 9.756703668658702
Sc 6.952928350648456 7.3935172232982485 2.908655142192555
Sc 4.752557414564959 5.128143348399917 4.346310493855912
Sc 7.810453905127354 6.135214776387261 8.304423305646786
Sc 7.009104349958652 8.732755403317398 5.837074914351954
Sc 3.688293371987261 2.373984436537004 9.046910579601693
Sc 11.995748028221321 7.593285092510757 8.130285436478127
Sc 9.848385000455968 7.112180456006899 5.953244517016914
Sc 10.027165128867086 6.4693327643313046 10.318310178422076
Sc 9.108033259651062 9.41073106745851 3.7647554148195232
Sc 5.2884970370149444 5.102468033394471 10.08757964705091
Sc 9.2675249916097 8.909817445788489 8.120560760260297
Sc 4.750399965472957 6.993698978731794 7.400670352255484
Sc 14.093295958526783 9.29258677666208 7.01585846173762
Sc 6.1886182270803545 10.673243577314922 4.067259510337989
Sc 11.416294729620507 9.650562522502327 5.902663707364754
Sc 2.6404799837302506 5.178573486229236 8.564250825728866
Sc 7.188749084004723 7.1337368934460175 11.26205799091569
Sc 4.41527181040118 8.070036414170547 4.19071443017423
Sc 2.3407254211212334 6.5161518347208025 5.829931648504433
Sc 9.257820306644334 9.354180415054284 10.997957527975673
Sc 6.435188941425621 9.037423822345424 8.915639638186542
Sc 11.563875339226731 10.541743771141643 8.800307863568102
Sc 8.806633716858993 11.290803477231 6.161197575683658
Sc 3.8221812251523435 9.78247891109993 6.438691690068499
Sc 4.189912730488584 7.8525284368400925 10.6007593649799
Sc 2.096936217759874 8.146415863255386 8.410525422825835
Sc 6.2289009438241365 10.390217237266693 11.431670433325388
Sc 8.30215351098971 11.579177273687527 9.294150721238802
Sc 6.034203936012837 11.623405746130786 7.249484282722577
Sc 3.925993555845122 10.629104488348663 9.36014545873145
Sc 5.7264668445070726 13.024122573652031 9.968132861255473
