44
Energy = -230.42381095 eV
Sc 11.956889279801105 7.33055854514319 9.293261346290421
Sc 11.295131631740633 4.818747349628941 11.015104987573453
Sc 10.61646248342881 10.233638511634435 10.004769891319892
Sc 9.605146659997287 7.497466428977297 11.351667508120258
Sc 8.370533050987866 12.632214389123897 9.886705527876552
Sc 8.751693266003548 4.830580599237457 12.397118092063685
Sc 7.813747964442062 10.006471425469735 11.083054399886828
Sc 6.695715762283507 7.168212987330396 12.631646273181955
Sc 12.052891756837232 7.172065935420537 6.197964122397648
Sc 9.564267371570201 8.404152008521237 7.884043301759334
Sc 9.733375843075086 11.687933831216155 7.3849195186655745
Sc 6.842371098721806 13.178375364090767 7.385209577269147
Sc 11.504920880462084 4.591063310576625 7.8876469359400785
Sc 12.339567911302229 9.91233145191293 7.605745352789163
Sc 10.443164787236537 9.792243732704955 5.184999148427608
Sc 8.758520134338847 5.397020275353436 9.183708838784254
Sc 9.151574956665605 2.791791741610741 10.143298067071479
Sc 7.039017577961293 10.239500401389137 7.960336257101925
Sc 6.247198679922596 4.550404605550727 10.97064812613752
Sc 6.400133290577026 7.547941476363234 9.723918165650913
Sc 5.0339377394727345 9.618263578201217 11.839841129414028
Sc 5.452404999987278 11.935490347976602 9.790634985102129
Sc 9.229852350977074 2.970171744676352 6.997373917954063
Sc 6.559215853767173 3.1870720861809136 8.170856895493023
Sc 7.641739498199701 11.283579602323886 5.080164082763993
Sc 10.611457908694836 7.296104289168233 3.5986282534590357
Sc 3.7853287887345446 6.957896263198114 11.150100988372214
Sc 3.9396666837027032 9.38748275653432 9.201480781586302
Sc 4.578737733115184 11.223497579714047 6.520904213234366
Sc 7.744060988849426 8.247479424672969 5.304366107882756
Sc 10.801211230892758 4.283356618189938 4.5247275952874455
Sc 4.269403226572805 5.055630267186997 8.9371852334883
Sc 6.458307213019315 5.9337707689372685 7.032860581213341
Sc 9.28486761923766 5.847990685954257 6.065588214658204
Sc 7.058412539988322 3.771691917649169 5.04857658785151
Sc 8.21951499050577 9.075623486583828 2.5643069081667065
Sc 5.4693557811931015 9.585700734621255 3.856604155768088
Sc 8.264429862741355 5.928252395795462 3.0167942263574656
Sc 2.4765607821741815 6.998191530596585 7.834953494262026
Sc 4.839527957142395 8.248932111736147 6.61013367815509
Sc 5.590904917210606 6.319790548195611 4.177040323468985
Sc 3.8100705865509275 4.902236022733481 6.003398890492941
Sc 5.65945623912553 7.54656932507086 1.6825057656986826
Sc 3.0618628460640633 7.823265558333102 4.372976917745885
