43
Energy = -223.52293942 eV
Sc 8.464831016282048 12.38365952867104 11.618439899919355
Sc 12.75734857027426 10.914136355164604 8.913401909973153
Sc 10.145777651206938 12.799189060142993 9.161987712252538
Sc 6.991115794416037 12.549969272817421 8.972365548448217
Sc 5.620109511595796 11.693527572265669 11.657291039755552
Sc 10.593790599677874 10.353469527518307 11.202959713589427
Sc 10.220982311711666 10.13804943190997 8.13850060524054
Sc 7.606433124434745 9.57461654314017 12.84089994293953
Sc 7.67140511691919 9.881947793213655 9.87050008392317
Sc 8.39662353589548 11.786348835678478 6.441113477709218
Sc 5.294631173891415 11.328848857234945 6.63726973968582
Sc 12.008436701213107 8.10831036713923 9.94910650923777
Sc 4.585322878030246 10.093926747538529 9.37999105616536
Sc 4.874285653616117 8.669379622603147 12.066459559480954
Sc 9.265446668363536 7.5103761496573025 11.355975051657733
Sc 9.904524107569978 9.185133533286866 5.103933017074641
Sc 4.464638110975425 9.080935780458198 4.734341607073296
Sc 9.424156639814052 7.496284314935912 8.389615240310494
Sc 12.278845812190678 7.883687013180785 6.992120491411247
Sc 6.994697525313587 10.282501411889863 3.9957931314503594
Sc 6.782724677481672 6.357876776734754 12.736533779423809
Sc 11.414319846247857 5.336257890965742 8.563700117754482
Sc 7.122998892793592 9.074220295376547 6.886184745912128
Sc 6.321133458838593 7.123067370903259 9.766113312712621
Sc 12.332633324363197 4.8044249791493705 5.567176616199108
Sc 3.8429333971348045 5.9560771489595385 13.000602731241248
Sc 3.319329153760257 6.853670044220655 10.173597378637595
Sc 4.337982697297426 7.920357784533058 7.4105578365324
Sc 7.5522552182598615 7.118552328583229 4.533027573555137
Sc 5.778179655524889 7.800767555527868 2.2633691317095663
Sc 10.019631508384892 6.189157594004351 5.929901749016577
Sc 8.456215804342452 4.741475964660034 9.926505368001138
Sc 4.826820036803005 6.147595515274621 4.9004696796142815
Sc 7.229647008376151 5.738324359471971 7.27750975172278
Sc 5.31891614714245 4.492405285367879 10.702635201119698
Sc 9.418583543293005 3.458876891754766 7.115255015531057
Sc 4.458393645838714 4.919616896158645 7.872683679895568
Sc 8.716608605154315 8.460444088130041 2.204996069589393
Sc 7.902369914263794 5.396826150629478 2.2473777289052688
Sc 10.74906062794965 6.479081024988405 3.1936790808607847
Sc 6.630003694617912 2.88022001239917 8.286863592922519
Sc 6.903831021858583 3.8665551162664626 5.170276915111935
Sc 9.761551093829702 3.8217690527988015 4.138719544810804
