43
Energy = -224.37195421 eV
Sc 11.586826101048265 9.02941713649375 8.11338006130639
Sc 11.474750039730868 7.070496189154921 5.917660952370688
Sc 9.558058416374934 9.401508679403454 5.8939035645865445
Sc 9.527821604309343 7.4928271810555 3.4169586562290553
Sc 12.177893664985971 6.120261140500013 9.036867382798354
Sc 9.498271887147263 11.328621386096454 8.513364824514031
Sc 7.630883014906752 11.604279758261825 5.7197362205627975
Sc 10.904787504495367 4.378582309850125 6.453081787223811
Sc 8.180862122099203 10.267641843262922 2.8708489307488594
Sc 9.611200957574603 6.579674994103186 8.38030211773227
Sc 8.300306444229097 6.566274385079436 5.935003472426451
Sc 9.897219138966424 8.762200433920754 10.52722367878241
Sc 6.524813231777063 8.564852182132203 4.474065698111221
Sc 5.513433487933842 9.10207954319386 1.7622577077178412
Sc 10.261136718003234 3.556960923030929 9.294397395633498
Sc 7.670453259043658 10.909182808388291 10.926537399202545
Sc 6.535568947614459 12.028492793952008 8.483497565487836
Sc 9.289911358985359 5.692449392660214 11.289539673031117
Sc 8.128182455102968 3.9186493696647346 7.2973622072446895
Sc 7.1142165247503595 6.498086840868809 2.015831531724811
Sc 8.678490823747842 4.433957104595364 3.763929129857043
Sc 7.535151136899887 9.064498078395097 8.444544982026429
Sc 5.414439634372288 11.317698693652632 3.743919377448406
Sc 6.810847356096052 5.747154381604862 9.417674441169972
Sc 6.068052898621933 5.172864279937494 12.25827245887934
Sc 5.8202772092764805 3.68634084554144 2.3477648322366016
Sc 7.598918110568455 3.2059271713382507 10.622429803622554
Sc 6.62095896535192 2.4493160311139737 5.0502267775589615
Sc 6.960750023840118 7.992057748272429 11.367396093680085
Sc 5.868604698105465 5.41034231351154 4.646821860467905
Sc 6.77040079347076 1.555087581662764 8.319458884242145
Sc 4.912770957600027 10.275145584603582 6.666345219346108
Sc 4.030962415906728 6.322657604250646 2.5263597006514837
Sc 4.850757334257554 9.638291181655209 9.687940982657688
Sc 5.156745973972913 7.171828661192702 7.254514265665002
Sc 4.672490293378497 3.5585426933037185 10.087687969394299
Sc 3.5110297520173583 8.985755804680817 4.243774476946179
Sc 3.59812333760941 3.5429483851025454 4.6595030545830625
Sc 5.193139910563735 3.888661720134931 7.2169336454389805
Sc 4.124124403224287 6.712816861399667 10.248108596307716
Sc 2.816445869746397 6.390379335245008 5.312520498937699
Sc 2.5803225534670915 8.344741202918742 7.602448771583463
Sc 2.7249976674668472 5.188173780903975 7.932082116448803
