47
Energy = -245.27603932 eV
Sc 12.475898811186935 6.451915279501668 5.041265111212821
Sc 10.075349395454731 6.924819520441732 2.921991114140337
Sc 6.358630337229344 11.436188081381463 4.886774259731838
Sc 7.7546528539332975 9.25286709394019 3.2848066762827597
Sc 8.21856302667254 12.333648824954881 2.787548008960967
Sc 11.701459871198653 3.4231094017338233 4.653968909996208
Sc 9.016370042474184 2.7262637228565936 6.240797766370963
Sc 9.030844833678158 3.6538615035568682 3.20314790112163
Sc 10.230459272434878 8.256834407774909 5.658609375742574
Sc 7.1254965253066125 6.0000522216687875 3.4926671422
Sc 7.198329557234825 7.967726858236312 5.8711811133220975
Sc 10.298531954841991 10.674604863921163 4.028761705264659
Sc 9.093849461787842 13.054749243034168 5.7118816582868055
Sc 9.280912655786217 6.647452209826033 8.12234270197451
Sc 6.268693731080282 3.0404679193605433 4.738134170342268
Sc 10.132991439503762 9.383018285605381 9.376966673768056
Sc 6.298953488091737 2.734055507129659 8.149473774378286
Sc 11.587976592958901 10.786920702771507 6.871280940121134
Sc 4.487650360517405 8.460767314295541 4.616947172416622
Sc 6.6850535809897575 12.202469313176929 8.059647396300408
Sc 5.213615738245317 9.876396818489082 7.092582044207447
Sc 8.678504072972807 10.453765260766787 6.712326571085202
Sc 9.716259144629737 5.40820262676955 5.334429637651004
Sc 2.467518075057833 9.427946703512518 7.2400178712642695
Sc 9.594879933617706 12.340682220319154 8.813827234554871
Sc 1.9709518748686683 6.7120640639293025 6.015661761444332
Sc 11.65733233663293 4.692154616855454 7.531368003953607
Sc 12.22040346021575 7.684839725881477 7.9473955940912475
Sc 4.458563700546465 5.485976218453664 4.565086651217903
Sc 7.105525253910454 8.742455672509987 8.878057461083742
Sc 8.434312572424679 7.810821179990428 11.553549028853942
Sc 4.593820715953374 6.895936573803656 7.522618317335491
Sc 0.29207893752411956 7.966541505178361 8.439689748142708
Sc 4.295199901401159 10.53430638694818 9.775311321901366
Sc 7.467460045302475 10.89978684975703 10.727684118998573
Sc 3.757525587750734 3.9438133803640487 6.909538049546956
Sc 6.8583233969166075 5.659447787496198 9.711340060945767
Sc 10.932167089884151 6.233240483682611 10.449073669228579
Sc 6.889627788467092 5.10017032265083 6.5711786872104785
Sc 9.177341194466813 3.691511081029472 9.242691362580647
Sc 1.6068303367362624 5.417211228442253 8.604951668360279
Sc 5.562331629358562 8.509378073971476 11.444487262679624
Sc 3.0634894496930873 7.605197106226905 10.006584107160657
Sc 4.17615222982592 4.468198294133527 9.89074385995763
Sc 5.699136139968027 5.692264678495992 12.367182932233117
Sc 6.589898496132066 3.0311427056670075 11.204355417472865
Sc 8.708718002657191 4.845828989516685 12.081243021873274
