44
Energy = -228.87393165 eV
Sc 11.601922765778498 9.004949731595215 11.045588806768844
Sc 9.014710694113703 10.491607130436188 11.802002223596938
Sc 3.560146903457195 8.213440108887772 11.826271621442977
Sc 6.278864320635184 9.436503228764433 11.058197913101496
Sc 3.43425558357612 5.41077800331266 10.709996367964418
Sc 8.97098826969045 7.996580013487513 10.147525946672404
Sc 11.97259009716755 6.193139481223047 9.503260413512514
Sc 6.324734580784099 6.550006053179734 11.329799672464206
Sc 9.06203214920933 4.81152984089194 9.934053557892401
Sc 5.993968460145281 3.821598249412725 10.237786699275354
Sc 10.724237421808398 3.934633160350247 7.391263758218126
Sc 7.641258684602581 3.236708059323615 7.68817047703454
Sc 3.9102884921452237 10.558853042505302 9.838252828804718
Sc 1.6040899597977227 7.4925970624361735 9.483442118757758
Sc 12.241794956382268 8.801719088536291 8.092450729770592
Sc 7.041396709080044 11.934922065190353 9.63629333275642
Sc 9.941574345769821 10.752094254910151 9.048986979008273
Sc 1.531801117701749 4.520393249058446 8.63802260607831
Sc 4.472233810404583 7.681470476683736 8.980123809587816
Sc 7.116042163842827 9.375466518737918 8.024821420839922
Sc 4.473690388686764 4.450536230379633 7.841153248256726
Sc 9.871934674954144 6.874421370014061 7.54447068263711
Sc 6.989346996657084 6.16786506330469 8.228804960437564
Sc 8.005920594665945 11.86457767849962 6.503708219111784
Sc 2.5151331146807534 6.597325571449906 6.647139440682314
Sc 9.190432307623897 2.0248815967900167 5.324367456825164
Sc 12.49101415180746 6.24198430064645 6.411958338505434
Sc 2.2513082468427377 9.767303062023935 7.495957342439635
Sc 6.286418595781567 3.1321993229862963 4.959068314258763
Sc 8.555006891347595 5.068256155256729 5.312312821911008
Sc 4.992237173966446 11.528743712746083 7.279660580505071
Sc 9.87495974858724 9.598004496345649 6.336567940405352
Sc 8.622482703489185 3.1232125198061955 2.728026858223764
Sc 6.19948220439534 10.681294658754881 4.37068876327783
Sc 5.380089347968759 6.019350272452038 5.4482120762712976
Sc 7.494498891721654 8.110216247352351 5.094779829253775
Sc 4.559922805499699 8.796667631403476 6.143783422463283
Sc 11.127456879527026 4.269450511114892 4.2724780007754095
Sc 6.864309740783364 5.66176847526069 2.8197498525006126
Sc 10.473571899559829 7.504979727356366 4.297003784258461
Sc 9.73560390709771 5.878562805089098 2.0397439006053824
Sc 9.154648336125627 10.643760537473032 3.7229118227947104
Sc 4.87178203798281 8.031899893085406 3.2574422862865857
Sc 7.903776150656945 8.417518671917374 2.2563798114642104
