47
Energy = -247.05264943 eV
Sc 9.143041516906205 8.359883217259316 2.5841958356934174
Sc 8.283773219581914 10.971595990762966 4.3976734592227915
Sc 6.233513790637151 9.306368757995033 3.250520139234903
Sc 11.119590216057958 7.264370754894697 4.938175739043803
Sc 6.263678072227134 6.45097142689376 2.7204851640458503
Sc 9.233563105823487 5.205487396825999 3.60440771602271
Sc 4.896092637848501 11.363813865185438 4.879084332492304
Sc 4.472575956980602 11.967751226658581 7.734266790471099
Sc 7.963305115853989 7.609549336574343 5.030653695746796
Sc 9.958893352517995 9.430120447684882 6.585025426187026
Sc 7.393193596852192 12.432870541078495 6.98946210825957
Sc 3.1882208128572973 9.26935597438795 6.663017195551493
Sc 3.6882123200598933 8.027878493648714 3.8389638456539004
Sc 8.953571942154726 2.308263286096873 4.826137048583729
Sc 2.2595661223111128 6.215261527962165 5.953217125391188
Sc 6.571399295518349 11.908253862034245 10.153860157174657
Sc 6.196846780836621 9.583497863435975 6.749377993488813
Sc 8.236137291549552 9.913411420665655 8.974090691574348
Sc 9.424320876039678 12.687148757185568 9.2124604635726
Sc 10.626000234219404 12.15196639118728 6.38649208029747
Sc 6.70878507662782 3.6076673931274787 3.4392613030084243
Sc 3.244184397101261 6.911289786399208 8.666317591510548
Sc 4.07229202377199 4.579323253606411 4.2097209446574775
Sc 11.211067325617826 10.261149809267035 3.9846498313041647
Sc 7.469005543960292 4.597384704165274 6.136494365602817
Sc 4.475339984775994 9.596141994285206 9.599704021148247
Sc 5.1613151992887465 6.727458603492669 6.0164863594418705
Sc 9.274589362127445 10.861096524688184 11.566149325295699
Sc 8.878737482428047 6.8097477406101286 7.795705249402111
Sc 12.830774921878842 9.874776969542134 6.421828190774405
Sc 3.333558611839889 4.101476093248886 10.015917957394665
Sc 6.291631707852069 7.307048765625231 9.026663006708377
Sc 4.67524892334704 6.54695463748903 11.39921759843526
Sc 4.383014552327231 4.15727833980843 7.27594027830132
Sc 11.336439744019831 10.29110743160905 9.14236800502101
Sc 6.875403046231946 8.961347821502242 11.555627702431456
Sc 9.841845074327793 7.8485981111037555 10.581438840695506
Sc 11.750907609476801 7.28801529057539 8.100446504469307
Sc 6.064919151167034 1.970525167643269 5.9166300772969365
Sc 10.53402449536383 4.553311821670922 6.503514142340335
Sc 6.724805135075489 4.45280616761203 9.263490311215932
Sc 7.734841097915618 5.830066690576914 11.670411151346869
Sc 5.514192102586371 3.5595172313001586 11.893020093387527
Sc 5.5620073244387065 1.83719384017946 9.23127911163175
Sc 9.890161638255693 4.728185415613928 9.60384678723782
Sc 8.507045313686426 2.3547338550920056 7.937127044787135
Sc 8.116680250303546 2.576407090105454 11.015016296468879
