47
Energy = -247.55063114 eV
Sc 12.034425660057105 8.434648888205768 7.637591877726237
Sc 10.308279922892714 10.310827153558611 5.663850712444127
Sc 13.001271536491867 5.712716131296933 6.716470118518897
Sc 11.540316632281801 7.555549166420805 4.7819264732466475
Sc 9.074240564284535 8.80375743956065 3.1281473125641703
Sc 9.885326231471584 10.542425148549382 8.772558211493196
Sc 9.958474935820245 7.693289984352656 9.636446952046647
Sc 6.0370239426677195 9.358109999075342 2.5321015093794053
Sc 12.049728331000836 5.529956675759494 9.671099187494514
Sc 7.842737653405756 12.118253299037198 7.066941406811105
Sc 7.155353307123599 6.305400292740825 2.1700290363525863
Sc 11.177556782327319 4.093975027674286 4.864216600780574
Sc 7.325907692626786 9.83741635537642 5.293948992797242
Sc 8.976867226472649 7.995495465232909 6.9207102299642385
Sc 8.392407733185106 9.416633207379778 11.42405727954503
Sc 10.125152663630285 5.260228640814296 7.397384973946918
Sc 12.072040682625271 3.067238066871964 7.726880990969318
Sc 9.516190791139728 5.904876332093286 11.856727537433915
Sc 6.993217556779618 9.513508792785867 8.736207550372283
Sc 8.952737134776479 6.224466489635763 4.528193480441619
Sc 7.583789175067748 12.155447148402573 10.117172363934051
Sc 5.860284044048277 7.295210791414904 4.6702504329678725
Sc 4.182826497622817 6.916822763131618 2.2890723927773253
Sc 8.17564084293381 3.4004047290342276 3.8099887850092955
Sc 7.117770429828618 4.609523207624296 6.347517189415103
Sc 5.377618552214737 10.38797747363271 11.10346351741486
Sc 9.165975661934867 2.3970442418608116 6.66247783611065
Sc 5.222175779684968 11.858888257370607 4.966471990955438
Sc 9.681126337746852 3.4043351444840217 9.832040844473534
Sc 7.666802283866203 5.658242758880919 9.364079364689163
Sc 6.6073233994555505 7.0327576539887 11.72277545569559
Sc 4.571000920088923 9.482291349075961 6.776043310566204
Sc 5.325226374208682 6.786224747091971 7.635842003389792
Sc 3.413179544816832 9.396924965582174 4.060611716389663
Sc 5.234193996464603 4.370903123279654 3.962413051372284
Sc 5.0035863735737385 12.050397791476245 8.284884762979157
Sc 6.237738055116228 1.8929914479342695 5.650489652058593
Sc 3.0925224173878925 6.2542141983210975 5.286010553826166
Sc 7.215457906507087 3.9302882742682876 11.72548274851295
Sc 4.244195054079284 3.942851321619146 7.046958730596401
Sc 6.743196544305597 2.7582379059212276 8.722877272836298
Sc 4.267579619332773 7.808853143241461 10.256300181334241
Sc 2.5186702198690734 11.497260461737346 6.3649867970417136
Sc 4.760124234740915 4.8748853118719975 10.012457225157707
Sc 1.7336936109345498 8.621720079075025 6.534445483533047
Sc 2.4255236828304847 6.429671486481773 8.425424978434002
Sc 2.7023835148999327 10.00025522981439 9.077682433387583
