47
Energy = -246.4682896 eV
Sc 13.076249620423393 6.435374390299835 8.8461143334104
Sc 12.028820167021985 9.260548393636931 9.682736550784226
Sc 12.997178909350007 8.645358904093602 6.655087658466063
Sc 10.214472966276833 9.8067830818716 7.472564825406136
Sc 10.412146539213445 6.596502910884933 10.34083953957673
Sc 12.917152929392977 5.429365267489469 6.0999328419934615
Sc 8.850231404398869 12.358541562585366 6.769115197465656
Sc 10.826874849538331 4.197426378371203 8.176841114961386
Sc 10.70839840552777 6.941303672579803 7.185653675263297
Sc 10.94963410607152 10.571660542340437 4.710530570211432
Sc 9.996435144026233 9.180543556747157 11.914658096048
Sc 9.384973872757351 11.35334443082837 9.94472486973298
Sc 11.505543026032154 7.4934224961886855 4.1466188057430955
Sc 9.728731498071738 9.208369453388324 2.229069323800223
Sc 9.814437464267932 4.861595129627961 5.301625627075337
Sc 7.908554330473562 11.119724757326692 3.996841161917607
Sc 7.723533687925602 7.0067371465410595 12.000645166268466
Sc 7.011472454167836 9.891867894783559 6.923768095588981
Sc 6.604573083648139 12.076495276069686 8.968258142585208
Sc 8.173641641926181 4.556261671477061 9.979289837083856
Sc 7.155911373793415 10.244196323346852 11.85303744823067
Sc 8.783433388076087 8.39082153510616 4.931813850621323
Sc 8.232438639583904 8.597825925763605 9.490703123026345
Sc 5.896527820833867 12.496304928286836 5.981494270567042
Sc 6.768242328484883 8.51171045472284 2.446992430592925
Sc 7.827117922508201 6.363678706219138 7.36296041242501
Sc 5.294797320809182 9.524424230974235 9.686022518568596
Sc 8.745419892358516 6.253074873796608 2.7488262189496155
Sc 5.598568779943363 4.699675408030765 11.990554278547789
Sc 5.074525511156881 9.759512566402513 4.644969987700994
Sc 5.731506642739168 6.373071654747359 9.592094632869056
Sc 3.81098679402222 10.640452001693632 7.321825713185132
Sc 4.777236179299432 7.711855943538548 12.0219018915
Sc 7.724144710428386 3.260807246038912 7.154295745759941
Sc 7.301414646728984 3.6490909978319466 4.259111969671808
Sc 4.735875161400269 7.830457960914517 7.176211411102665
Sc 5.43051961682441 3.2427410355655604 9.238924224215893
Sc 6.351891931671159 6.603159590502699 4.703894643665161
Sc 4.865325334777814 4.8295762261403095 6.621850216974747
Sc 2.8121405706047318 8.058233119091103 9.6123073425148
Sc 3.1174033860594332 5.025932481728945 10.240281242391406
Sc 4.87006399975765 2.20094561270772 5.595624570080751
Sc 2.7050171424907696 2.897633886418295 7.8946362507033525
Sc 4.665495744303635 4.528496428087868 3.3150769028009894
Sc 3.240274947538194 6.907017029366058 4.693576079377954
Sc 2.1374700814550387 5.836298072568241 7.511819095041162
Sc 2.3210253686233817 3.9209855642814735 5.1162154747221065
