43
Energy = -222.49309891 eV
Sc 7.627771716496941 7.35745985468293 0.1282945608792288
Sc 8.960766260970777 8.235100739394792 2.665070899835021
Sc 8.639351690732136 5.20833015797763 2.108417653629939
Sc 10.81263578347651 3.2366242921551294 3.304964253039391
Sc 11.06482647582174 9.578077261795556 4.933903670735575
Sc 5.696479503832014 5.621420500526439 1.5828623248644063
Sc 5.835831605309358 8.620208745399795 2.3052813941572365
Sc 8.76813036489192 8.37833521124126 5.72965660981709
Sc 8.547007241540788 4.1346318814263165 5.031601460462995
Sc 10.687750254483712 6.219847605963388 4.118918886391106
Sc 7.820126672444674 10.736747331530376 3.9866921949155856
Sc 11.286391447607945 4.043762611861171 6.202472257024485
Sc 6.8093750574411915 6.585820090891564 4.303568095517924
Sc 9.16327952469074 11.344266144961287 6.559306228383913
Sc 3.837328366191214 6.528916642186361 3.6004309452816865
Sc 11.099719598956424 6.880014324408052 6.961952449960118
Sc 5.435412906700651 4.055523270517103 4.244820879084779
Sc 9.25822503839132 3.2906467267020587 8.340540760457692
Sc 7.418391686961402 9.09957190240611 8.261305007017535
Sc 8.176642879584149 5.9296563786077945 7.471415474548272
Sc 11.53123982276294 5.048053245975128 9.209207443806422
Sc 10.443313682075006 9.40138346598463 8.38785381132815
Sc 5.692910418112299 9.208469147125019 5.408325710816984
Sc 5.086925041800029 6.630407735970683 6.8717980639068355
Sc 6.277954619538747 11.622464397243434 7.0956039694176765
Sc 9.653519139290262 4.0944152622027525 11.342157536897474
Sc 6.124094906503885 3.6818103526593955 7.180923178689716
Sc 8.410751105301443 11.681083902879948 9.386692504353608
Sc 2.80095115401511 8.244031179469358 5.60703493742486
Sc 9.347855548650639 6.853548696507924 10.019822701302594
Sc 2.931785607446789 4.905216646969771 6.100839369321442
Sc 5.956104287340229 7.349460287324701 10.09398557142311
Sc 8.129549110703547 9.322276146788536 11.419111959715424
Sc 6.9917019032243415 4.52934595678719 10.006198689231173
Sc 4.007419049317799 9.373221918634 8.11117428665337
Sc 5.5914194315844945 10.566678166298347 10.346634907080444
Sc 2.0229643002769766 6.960076285009009 8.242431873009638
Sc 7.623639176120576 6.395295051755444 12.524044931559569
Sc 3.9726743258066555 5.012634821714791 9.233590288873234
Sc 5.450761522390579 8.524715207380742 12.801347187294542
Sc 3.120977962477122 7.995149105154537 10.804916927737485
Sc 4.557028918340781 5.6216355406646645 12.179512859244232
Sc 1.6000703373696736 5.4197468294198305 10.928257016402156
