46
Energy = -240.75050939 eV
Sc 6.499648139105377 2.976575224478147 4.281466654751375
Sc 5.757416560021532 2.7243416299998264 7.151320135801981
Sc 8.688364500302406 3.054142457036961 6.467652664960228
Sc 3.3298195325342554 3.0764568495856084 4.8059872596362965
Sc 9.162341571444646 4.505631455699509 3.6145412477740906
Sc 7.821390678082068 2.725303852943741 9.710038492355888
Sc 6.247919978440214 5.145157694672967 2.444594519203816
Sc 4.66078253007301 2.3167979370735257 10.160401643277977
Sc 10.64783232483925 5.349226642996578 6.220387516790494
Sc 3.0456480451873875 3.9450853836414077 8.001023391037652
Sc 10.78085816753254 3.7433847043832893 8.877645768682607
Sc 8.374290325922626 5.399671551828874 8.393606145711207
Sc 3.161429550707297 5.796635774029064 3.129575170186543
Sc 4.77795455755093 5.332518837756334 5.568315482481355
Sc 7.638620741420598 6.180331013816223 5.43402232678805
Sc 1.8204411536135288 5.596444236899222 5.73159564725477
Sc 3.3827408623901576 4.897726759912381 11.042113983747484
Sc 11.167123951209906 7.4236787539234355 3.9842152783615923
Sc 8.447316659476085 7.405862676064637 2.718884890773351
Sc 6.317645222900739 4.00069009992772 12.04819751550882
Sc 9.399274953498313 5.031630710678046 11.261312175263484
Sc 5.618886441022152 4.910507653569331 9.263960897931446
Sc 10.897909390643193 6.8197242848852495 9.154754501507988
Sc 7.131719761871116 6.838033986779231 11.326776396843066
Sc 5.479577437967241 7.650056594096046 3.5271231536663867
Sc 12.696083906710975 7.596905663887559 6.693053490596813
Sc 9.733107594565746 8.4001460854767 6.452101504292485
Sc 5.432584772354327 7.523339491116136 7.666311928447063
Sc 9.26781054561712 10.094921735957845 3.811746085293141
Sc 6.829727790116889 9.948738443423876 2.0241592091823692
Sc 2.5619900984443267 6.919421200722367 8.503208915198512
Sc 9.722104174881803 8.513254078748757 11.362718499609828
Sc 7.988312308746413 8.398665589484658 8.889083445472597
Sc 11.90233743218649 10.204788364996631 5.479724041752587
Sc 6.691054348745505 9.399298356928867 5.42217397715506
Sc 11.446063996983913 9.73893305821057 8.565215291677749
Sc 4.529812522820347 7.732543837247791 10.555161221468692
Sc 3.3746117372160183 8.34080145048196 5.60654617528137
Sc 4.214956228050127 10.409111580341692 3.263160772901373
Sc 6.5072216641210225 9.95359043968871 10.965246498424897
Sc 9.183409456339039 11.400962107113878 6.601720156473637
Sc 6.731961638589784 12.044610412599372 4.3205564722173175
Sc 3.7570391959828484 9.843274726788618 8.653574876248081
Sc 9.024706347322187 11.002449149746024 9.666597013727785
Sc 6.490800841655473 10.989304912687766 8.06451172014097
Sc 4.268954236231093 11.28722959005271 6.023563814082922
