46
Energy = -239.65821961 eV
Sc 10.680576033362989 4.115233930306436 3.3967685655130135
Sc 8.887499794159407 6.390988602324058 2.187566799210543
Sc 10.716374565757972 7.033704941397849 4.640239326655918
Sc 10.752646992853492 4.405291621297718 6.389101297886925
Sc 8.089143126131278 3.3924710449005886 2.2323677263369293
Sc 8.753940306921129 2.290428131655048 5.106429303483861
Sc 9.286321252195687 2.498693022653278 8.42968701291604
Sc 11.043161172838818 4.768646887394052 9.490283804951149
Sc 10.856249128121366 7.338756836904419 7.799460355675341
Sc 9.845967155573904 3.0091439135282654 11.493091025912742
Sc 10.627053820346994 9.942310986846426 6.153738086214507
Sc 8.184961211183936 5.117032586266132 4.827337571334624
Sc 9.001149226194574 9.329506917128349 3.630045808424172
Sc 5.947653779114251 5.4375317004663755 1.8468138951435358
Sc 5.701700784625328 3.4674892424846555 4.164605098112635
Sc 8.277444132715503 5.320151698554049 8.105522528088322
Sc 9.538096445881878 9.541814698838529 12.116506151881394
Sc 6.428610100858573 2.928557509148845 7.203768938357018
Sc 10.35872345151932 10.329251031584233 9.237065792397095
Sc 8.226467262971703 7.949675589239039 6.228719347038165
Sc 8.826310327588553 12.955411404047027 8.214717584806515
Sc 7.099707112280757 3.492374285484731 10.212158588227055
Sc 11.149875858751837 7.517089140524268 10.785667591761719
Sc 8.710000690959617 5.856020354322554 11.295905143720198
Sc 8.27250202194525 8.30137632388527 9.514946643344718
Sc 8.990268363393794 12.222450709887273 5.129451870331048
Sc 3.153154365483027 3.6301852591573716 6.189558883769993
Sc 6.3545413883776485 7.450300770929878 3.9475298367557445
Sc 5.247053918642814 5.822127173878508 6.571471279165345
Sc 6.890741236674931 8.327731912319082 12.213771373881695
Sc 7.725353962749665 10.627860164281461 7.375457877131134
Sc 5.935871872328629 6.43737676283169 9.84103502095476
Sc 3.6588154877137895 5.698074166685767 3.889619487899574
Sc 4.1426542616672535 4.090548477261109 8.962801652047006
Sc 6.386814941695462 10.54502754812469 4.627361953211918
Sc 5.316891882677691 8.797824186881325 7.4296849702671315
Sc 1.2150824018539252 4.61635005611471 8.409367378457446
Sc 7.459987169258068 11.05656551072019 10.516705694532035
Sc 4.795544199625606 9.439992824318239 10.33700605080969
Sc 6.454048346086928 13.161672450238676 6.263298549832433
Sc 2.197562981034818 6.6004044882968484 6.400854617678802
Sc 3.6583634403550795 8.696673640501478 4.868183238480686
Sc 3.1283978471148504 6.905578832789578 9.216995856041217
Sc 5.14007949681406 11.876116004173024 8.656891676498779
Sc 3.9279310337104714 11.429069286209275 6.067237151714956
Sc 2.526470948604762 9.526182040796058 7.8389935412318925
