46
Energy = -240.80359852 eV
Sc 11.31651792805943 3.5553399229636033 10.00499618869376
Sc 8.648858916340194 2.661356288706883 10.902520267650624
Sc 9.840946506495197 1.395710494216208 8.400897573078188
Sc 11.650160711672305 3.5186675472224027 6.9920456217159845
Sc 9.079510136425702 5.774409246973378 10.783577176239998
Sc 6.700740358876331 1.738022959723381 8.574331989508426
Sc 11.353405264687197 6.252242272123001 8.399980909048642
Sc 6.226401646394261 4.406483444694273 10.342950548396633
Sc 8.957232713587036 4.241687798314636 8.261512029412115
Sc 8.086948634285765 1.7080534722879908 5.890747807630291
Sc 9.381570977635677 4.253516072002992 5.150397170756967
Sc 9.131209232695554 7.103459987686747 6.4936595298063216
Sc 11.62255484800826 6.305417053892035 5.192310328458592
Sc 9.384702001496663 8.468194530702672 9.356321198898641
Sc 3.891345129565808 3.335290193304183 8.54994609490536
Sc 4.846125955801344 1.990055556351404 5.753602215035502
Sc 6.630850819919447 7.717630594195244 11.168977556468557
Sc 6.8883013970662255 3.6647501398484783 3.705376499494672
Sc 3.8129146559034193 6.298359727175406 9.987163855777233
Sc 8.965292385167789 6.306993641702949 3.184417699110732
Sc 6.3956794739920895 4.189223774478519 6.698000669742794
Sc 11.40011057289593 9.016825428438114 6.756372109291049
Sc 6.900639269255689 9.991579821202421 8.673988792791233
Sc 6.706340789049144 6.759566816738117 8.500883765047732
Sc 3.7595108769836894 5.912205801189715 6.99581438812951
Sc 1.2369389585574884 5.28293052861351 8.281602919293295
Sc 9.547486032150964 11.332230503035483 7.806913881969657
Sc 6.6177229324713975 6.619017211894901 4.9802704533964155
Sc 4.3610924633230805 9.181399662617569 9.706605176276684
Sc 4.96118724300399 8.641434470014163 6.701581670077765
Sc 4.128448260546356 4.701651147706086 4.305689326415015
Sc 2.068912848645038 3.4732522130317665 6.0624331430363325
Sc 2.0653272959956364 8.188806343323257 8.066075989990797
Sc 10.714898907599459 11.577404747892725 5.122207184048815
Sc 10.092064288119953 8.933591126773882 3.9132360322666337
Sc 7.859352009474393 9.744935725151095 5.755722079540389
Sc 2.3510202587151516 9.755923659072298 5.528860542693941
Sc 1.4341786387346505 6.590967915677239 5.453324925351801
Sc 7.1876240022717255 12.962352521118374 8.847758638008102
Sc 3.95029163647775 7.8339372966316185 3.9755879825084945
Sc 9.020686073917863 13.757567278890427 6.251800643404306
Sc 7.0785619515771385 8.84428431152133 2.9159792669871236
Sc 4.290590500627758 11.342316213627896 7.582622212900977
Sc 8.138101831988374 11.823997070454658 3.656192116535902
Sc 5.076161488256076 10.634061449203198 4.380337086084755
Sc 6.540691599597419 12.46484238312494 6.104108580993341
