48
Energy = -252.38288913 eV
Sc 8.684960244883118 6.116076059732014 0.906756945271028
Sc 6.71158332790413 8.683505916287665 1.126784901507512
Sc 6.461002585543978 5.004993899810116 2.7206309661846153
Sc 9.768529455686844 8.875072169437946 1.2736676188871234
Sc 9.122572817739325 4.354426214526931 3.6693324734375037
Sc 6.841369941583277 3.138335166336881 5.327097820740261
Sc 4.740367805151405 7.362005368413381 2.8628830811000334
Sc 11.030411823097998 6.61464211806427 2.956040431190851
Sc 8.200797436742263 7.53115118965303 3.433610704687173
Sc 7.906973467104604 10.669482549419516 3.218413820360943
Sc 4.703194614394047 10.4337920597323 3.0696280698916003
Sc 5.18355297284572 4.208861644744026 7.54915674583962
Sc 9.670590260127021 2.690538913819843 6.4008995084890135
Sc 11.447379432023443 4.160664880790045 8.370148651729576
Sc 4.226854208615856 5.204279149886464 4.940203608081475
Sc 4.008965528642223 3.2826321694349088 10.027788292793947
Sc 10.583745024808824 9.387146420507165 4.138831770936196
Sc 8.455353916005736 4.651927474587174 8.133504725903565
Sc 7.104811146181543 6.0578492690308545 5.820623995285853
Sc 5.997775560092298 8.924395035627796 5.131237176924071
Sc 4.815184273121065 7.060070488239588 7.616729282889822
Sc 10.372361507243525 5.970872283851817 5.987724729986008
Sc 2.947518811855546 7.989830336777996 5.240878668771765
Sc 6.808029076166216 1.9840459686407366 8.390858653426493
Sc 3.408274986557791 6.428922968531614 10.349929867706361
Sc 6.973796703095149 2.7149181634649886 11.353737285369846
Sc 8.749081516648847 8.68917497843 6.633857816395114
Sc 6.332328901415105 5.302053659331525 10.30697681091377
Sc 11.707615023379784 8.835299659572978 6.8550291936251
Sc 9.551449944881341 2.029355556523778 9.468641801925783
Sc 3.643759875121515 10.796899099659061 6.0586404575578
Sc 10.44552425136192 6.996616967201946 8.975705726414422
Sc 2.5339561406183058 8.82889367308614 8.115064327563006
Sc 2.377283447325737 5.504166460158102 7.599109528045698
Sc 5.916850978934258 9.851627441803998 7.828449947451011
Sc 4.707453096767186 4.639983876399429 12.646831711734098
Sc 9.480048083111162 11.433090654750043 5.977372262709844
Sc 6.2996683571159435 12.032594298885504 5.699116288594156
Sc 7.472415135299833 7.721318262971928 9.189464328897902
Sc 9.572640329713803 4.681360826383135 10.964998417197723
Sc 9.828333753058002 9.93460748341485 9.247427368621395
Sc 7.555076282114318 5.281152690607375 13.15501680418304
Sc 4.375638982218907 9.33310071485019 10.284447829127583
Sc 7.875087103259784 11.926059342748662 8.34222916315428
Sc 4.694168105842775 12.141234651343296 8.748070360538069
Sc 8.960945118451042 7.666517105767453 11.689089235005607
Sc 5.885660846624974 7.633200806809597 12.214705991323763
Sc 7.090954466440979 10.347523979289033 10.781002074210742
