45
Energy = -234.55035161 eV
Sc 10.819008638098422 3.3175080746826966 4.047499294553925
Sc 8.833411139160104 5.475671836247095 3.0109021640239013
Sc 6.751321180390841 7.812520617212293 2.0361303667255677
Sc 11.36200483457616 6.312384903785696 4.458460568599823
Sc 9.370566557321576 8.560751740771007 3.4281314310176394
Sc 7.341090191571885 10.76563504314897 2.402592059152889
Sc 8.001637053182588 3.576634033651375 5.344061433216669
Sc 5.896221529186959 5.7699356055373405 4.235146850583361
Sc 10.514147734787562 4.5087296101259575 6.746063331284872
Sc 12.59120170789952 6.4959781628015545 7.473332390069558
Sc 4.017461681663751 8.007212632106036 3.3169966633802193
Sc 8.521577341672097 6.682735305518541 5.711158969540926
Sc 10.849297534653191 8.826668358275441 6.319555026348107
Sc 6.506301286307252 8.950933224610207 4.767123090022523
Sc 4.9791730981082685 3.9024190607273246 6.76254155236248
Sc 9.094915144849702 2.4697034180946678 8.421250321621065
Sc 8.853922862353096 11.14594290389119 5.2240128169359465
Sc 7.547304833367838 4.89405958870162 8.081140536417708
Sc 3.0501355941995123 6.074816919818558 5.7179934654373055
Sc 9.862059811826287 6.8825523018897306 8.670986855490124
Sc 11.483141823540972 4.418810137545569 9.515964618634962
Sc 4.625954420353275 10.97404260863519 3.575389359240707
Sc 7.901610475694189 9.27633290609117 7.7019214575267565
Sc 10.051362338399406 11.23972949896614 8.241821963930052
Sc 6.75660489521637 13.04991747366059 4.326932766266749
Sc 2.2232797174592154 4.29022964402411 8.15541272979293
Sc 5.5344845307249475 7.027436106440269 7.0939942687758
Sc 3.6114091724837576 9.20356493548588 6.0567753756315135
Sc 8.785480464781594 4.611040848267118 10.888798283925395
Sc 6.307042504506094 2.808351499107131 9.709820059456368
Sc 11.958276162585882 8.859070501536586 9.23469116596491
Sc 4.68496564704001 5.254422592749855 9.45864088895356
Sc 11.029584482427177 6.802054564651083 11.348567797120625
Sc 5.774837022367222 11.469826211851764 6.647328965511795
Sc 2.700168743579856 7.3110264791871185 8.421867185929749
Sc 6.931305994239253 7.265836057563644 10.156478017988764
Sc 8.040876750542456 13.305965784942549 7.065703621814662
Sc 4.9317665406961755 9.491299870060935 9.027905197277121
Sc 6.006457885334821 5.180265063420258 12.180464593680123
Sc 4.147429013907826 7.506774344418508 11.36282300613277
Sc 8.22776100338362 7.215893957930252 12.850323625623778
Sc 9.280886188176721 9.376316550208735 10.655911456904105
Sc 7.294569424384347 11.549278458992584 9.50718361451412
Sc 6.362404933278062 9.532350967753475 11.937238737814388
Sc 5.486262042556828 7.531976841834995 14.094392777846169
