43
Energy = -224.61409879 eV
Sc 7.9299214082093155 8.9310818198651 0.8968853227491764
Sc 7.1592361619239595 6.133381790203976 0.6807041893531586
Sc 5.314855716541297 7.637719151561048 2.413524068568794
Sc 7.150299776266917 10.087123572520113 3.8806812393295584
Sc 4.49740620630016 8.944045695641998 5.01210631691691
Sc 9.97297537198017 9.84624108571074 2.7424678544462084
Sc 5.073696477322199 4.583354136960187 2.4866636759414456
Sc 6.433461297320385 11.059026279243211 6.665055514435189
Sc 3.543372350019327 10.567527290147519 7.580721172924108
Sc 8.253263854528003 7.37083865487496 3.439071440822309
Sc 9.69281021668903 10.925702793629851 5.661963973586123
Sc 8.047339076042206 4.358269526920425 2.73095661980914
Sc 6.174030482807855 6.005013338005254 4.993462825642004
Sc 11.045122103862886 8.138674158597698 4.820470450618503
Sc 4.816335699212473 3.2533905099493876 5.293134111666269
Sc 3.315516460065917 5.941796842462381 4.69089882032921
Sc 2.6127888207727277 7.7161887927397075 7.19962086597803
Sc 5.434854288074497 8.32861822696277 7.695968043204109
Sc 8.345910136242175 8.463562696661985 6.461864757607732
Sc 5.897136124983785 10.494572373155416 9.804798117952279
Sc 10.175415968745222 6.835906512281589 1.6987957048965117
Sc 9.992376351041349 5.204187571789554 4.805004811928183
Sc 7.8294689450956545 3.2845526317615614 5.44745875384526
Sc 3.431091555955445 8.54697999032304 10.054910352338096
Sc 7.996113657429464 5.569136583543765 7.636982323637882
Sc 4.665566121103906 5.224642631709034 7.489156406575031
Sc 2.494519695376448 5.635413092858704 9.466140845471784
Sc 8.61983911570221 11.029156617734657 8.633244568967768
Sc 5.522360293259409 6.284909431656632 10.135834572512815
Sc 6.6313856740782375 2.8904993685637246 8.065649582097679
Sc 8.906921590210855 9.870870079388686 11.443496836497571
Sc 10.99222563779188 6.38434192320319 7.207703371369089
Sc 7.899675311712603 8.076577653013791 9.537594315393598
Sc 9.829884365672841 3.457830884206363 7.838058906032248
Sc 6.014828876317562 8.381255089885979 12.160069936095583
Sc 3.435002654434044 6.145261391931894 12.235253111669353
Sc 4.653755051701572 3.6901648488744043 10.540830807970087
Sc 7.8372800584686155 4.271965585278728 10.538696285577538
Sc 10.63955403354535 9.00059692894396 8.4983002625461
Sc 11.382548831730738 8.224748128592271 11.387502914164896
Sc 10.259441029300609 5.980965784467974 9.87136227975931
Sc 6.106495378626813 5.205329953608626 12.916564236001596
Sc 8.688777280041712 6.8724824652271215 12.212499054243251
