48
Energy = -252.37699472 eV
Sc 10.529846631617255 9.758217161277836 5.017973162658783
Sc 12.221936717402919 7.21496173648415 5.325085993164771
Sc 7.886233302804244 10.318802152072452 3.176832665080185
Sc 9.827933186802438 7.707553818732207 3.005502114577769
Sc 11.744223469471144 9.350431403404505 7.648853906016309
Sc 10.321781835148519 11.972489403443099 8.505996499942611
Sc 12.158909115647264 6.753682200555239 9.1264718233247
Sc 8.490359560850196 11.469024827883224 6.062374053497439
Sc 11.080765578010542 9.36016859244222 10.579000328910162
Sc 6.907437834149317 7.3284392683473225 2.055092232713345
Sc 11.667033909166548 4.665868330234819 7.042378905880242
Sc 9.853122957519933 7.036750426241205 6.905246628762341
Sc 9.918489813885701 5.163893063936648 4.61325602571868
Sc 5.641431341545122 11.040823130593939 5.6744443246019465
Sc 4.955304824528212 8.982865862237366 3.527122137568918
Sc 10.888639404667776 6.443899623166021 12.029402561008082
Sc 7.585019489366526 8.394540328583178 5.177781852008401
Sc 8.64938709852393 10.939072416840121 10.831031469380683
Sc 8.698721595841315 9.528855897172729 8.310437005678217
Sc 8.961920907608077 4.986325044517653 1.8054253804896576
Sc 6.8315593755053365 11.914661420574468 8.529156402949083
Sc 10.053532355552642 4.33524535167236 9.723537557931015
Sc 9.206604415417774 7.078444279292679 9.880240229639858
Sc 8.35121608070681 8.361531974197966 12.426335602227242
Sc 8.005358367410272 5.291795236140526 12.01600454014875
Sc 6.188479480596752 4.277159724350579 1.3648868266569967
Sc 8.912144086642 3.4116587024382876 6.893089645015574
Sc 5.762408580373696 8.938433485224744 7.874220644650519
Sc 4.002941208317917 5.928004208332882 3.055069144215159
Sc 6.9249172182976535 5.211362125033526 4.168082270921709
Sc 6.31890352030691 7.100371790329946 10.333261673913636
Sc 7.932733470462053 2.61012780491316 3.602905716069479
Sc 5.8628334938631825 10.133120228990556 10.834620504367972
Sc 4.908007832644483 6.775746673464262 5.667816730544396
Sc 7.017553529802651 3.6035177504198757 9.67859820693223
Sc 7.062491340244704 5.755632059520009 7.6515499086238465
Sc 4.836149170408902 2.9885391664682803 3.60458730651624
Sc 3.664556251261903 10.759447140778857 8.739481888293291
Sc 3.2081041940290116 9.419162716039997 6.0114856993791514
Sc 4.034980218348083 6.511816267191449 8.30902374620913
Sc 6.065950646584857 3.0768628900785373 6.308595828015354
Sc 4.463903114964187 5.038445336456191 11.078624886403357
Sc 3.4301582057112365 8.161814706263812 10.613948341358975
Sc 3.262648660108409 4.236182716105327 5.935695730443264
Sc 1.843677638149479 6.734166156547619 5.779741928062817
Sc 4.220897090513408 3.535544045621876 8.622585211377578
Sc 1.5807022095048604 8.412668106779462 8.257673078927395
Sc 1.6947805238361435 5.347400901791229 8.858746855180218
