48
Energy = -252.79712951 eV
Sc 11.924813847598617 4.75507957571776 7.259690843258164
Sc 12.074765359810781 7.563285492871215 5.75717446460667
Sc 11.6774211359487 7.866607419773151 8.582011807037393
Sc 9.63759108190308 3.417472381836676 5.519840897930226
Sc 8.865224717716313 3.4276225274238725 8.349025221622785
Sc 10.280082193321597 5.442609601736022 10.115921335965233
Sc 11.83266291503401 10.518377821178026 6.463256584695056
Sc 8.034345471481261 3.4409878319714426 11.42773256678265
Sc 10.700806682830885 5.688523487397606 3.9573260962167485
Sc 9.570182668572295 6.103749936878011 6.917359322561743
Sc 9.444429660364348 9.163336095987965 6.591764261737203
Sc 6.3505876007081845 1.9420597857964244 9.309922720873955
Sc 6.835267844675124 2.4670331429097616 6.111539892611877
Sc 10.205275447119202 10.65202097447812 9.46729957836271
Sc 9.050956364518823 6.837706533374306 1.5894891167775447
Sc 8.100369828464249 7.216964675792745 4.275639420553858
Sc 7.801104587538856 4.398205208189398 3.4176849912146596
Sc 10.438417560042785 8.956185047291786 3.6317699778080965
Sc 6.372506189048433 4.9471513457406555 9.51243121227586
Sc 9.493198361524877 12.351360773673372 7.28534081573201
Sc 5.708488527841777 1.7200437396552115 12.370493335994185
Sc 8.151646778871276 7.466601048711012 9.320113519472857
Sc 7.910435585382115 6.478019100973177 12.141574025965479
Sc 10.300337332408999 8.201487823908595 11.246742104661237
Sc 5.278304272150418 4.742781951423017 12.259670202739557
Sc 7.305566281972399 12.704920149362488 9.599343439580043
Sc 6.695035121579493 5.331666598758436 6.408797866878004
Sc 8.76758709082449 11.485204039546828 4.513312680991158
Sc 3.835031936602116 2.9073428680084854 10.445330522656583
Sc 7.678663522348118 9.811859145288617 11.32776157795018
Sc 4.803781588154449 4.231494393524564 4.3403172874737255
Sc 7.467872760872179 9.482938489736364 2.4411955103063803
Sc 7.2890975512560106 10.350950338644964 8.301545091740433
Sc 6.522662960585679 9.609741806570735 5.456776200644334
Sc 5.285236979442995 7.802596447672488 11.09414408428398
Sc 6.083602948891426 6.571001042203438 2.0668979062130615
Sc 5.4023327869485245 7.856853415346282 7.973599543706906
Sc 4.353749547325082 3.622719019069864 7.467025913140267
Sc 6.822922846454996 12.750303125125752 6.430226244731687
Sc 3.47304321973527 5.8268584586219365 9.622112348304137
Sc 4.901026339628938 7.171366102249188 4.65553875859036
Sc 5.152898837591402 11.71546895398232 4.226685843063156
Sc 5.024337529239808 10.572609979597333 10.188946400631867
Sc 4.491611932082291 9.22976570976958 2.782769874990185
Sc 4.334738577952275 11.658579253236729 7.535260333262212
Sc 2.888571424095209 8.913685405116016 8.869703969049706
Sc 3.125012623190876 6.283724785703667 6.721141046666887
Sc 3.422008081509016 9.437581740096762 5.80040662958409
