42
Energy = -218.04678332 eV
Sc 7.190408985071534 8.048799000465097 2.40502792613465
Sc 5.266620297597596 5.772945587668808 3.4601370221842687
Sc 5.26173439866042 8.623002506937784 4.6040465882988055
Sc 8.579802694664512 5.661485091581825 3.596554142031137
Sc 8.027250629210352 10.76767133633084 3.760082211524059
Sc 3.303709864113554 3.624044599334165 4.942179450447026
Sc 3.692089273340027 6.400180021427836 6.274404181498053
Sc 3.362720496455006 9.427540591564776 7.057409801338435
Sc 10.062722923360917 8.416837076257252 2.895097034996265
Sc 6.795078997025346 5.960102415160413 5.928207102142844
Sc 9.080085478852373 12.496997540664076 6.443167346996235
Sc 8.292262648459518 8.415553091951615 5.250588562442101
Sc 1.8779465861247833 7.189539524903962 8.468818102133971
Sc 2.3811528401395434 3.8395830753770563 7.8699128161863285
Sc 10.779466187351286 10.064706715387715 5.336330952092073
Sc 4.261255139552005 1.3815175501468435 6.790167603254481
Sc 5.963228443242526 7.987131223143359 7.9543094045312674
Sc 9.049895390639088 10.081953582625383 7.9194834058786885
Sc 5.05458430825595 3.9031721567677176 7.247648362234467
Sc 6.218864309026914 10.88315722794365 6.598438769850248
Sc 6.438179181548822 3.19088316960405 4.6880981750393325
Sc 4.207489986570481 11.675809994465343 8.817785091719676
Sc 3.921566692362235 8.854371302387664 10.039001580249607
Sc 11.656263231590495 11.728614266015171 7.8236819701880975
Sc 6.667557785662877 10.431262652878004 9.943089236045319
Sc 4.299935567006311 5.807536763738622 9.48980399993316
Sc 10.838796178646831 6.7995075781326015 5.560553472395459
Sc 9.566592838438277 12.162666681124888 9.867503656102322
Sc 5.490399675096563 2.5398247398781435 9.723032416082155
Sc 11.771559181284866 8.567724260660306 8.077044680760183
Sc 9.042556802076954 7.086056550002776 8.129826039443978
Sc 6.907738715614267 13.015844624582968 8.484673155427561
Sc 9.237552410073466 4.20675348020776 6.517503514387574
Sc 12.099273192432467 10.36797358280499 10.466946448943757
Sc 9.521255498873021 8.90580636861708 10.706128723109247
Sc 6.7431567579180856 7.39546906093271 10.789533595531864
Sc 7.238998580925118 4.910449441680492 8.88992353703676
Sc 11.354877688697835 5.2472849779241875 8.566394863017834
Sc 7.315539676252877 2.0034973166077212 7.40785480492885
Sc 12.004435057203358 7.275860535536922 10.762919487817982
Sc 9.453218958224998 5.660491336827589 10.91691860465256
Sc 9.279888043652402 2.9278781280875075 9.457090053448624
