44
Energy = -230.18686985 eV
Sc 8.54897532742629 6.067054186772464 4.093666470226012
Sc 9.643836878813206 6.14262983203637 1.4753854001790259
Sc 5.813668440057535 2.9618428691495113 4.110064452376969
Sc 7.283679935103968 8.057702603132775 1.7188255169863196
Sc 8.76028917913175 3.2824522247640178 3.5006032638201905
Sc 6.359827299905329 5.195939629273912 2.1306069394252205
Sc 10.797838606755157 7.920656898468281 3.7076259698295155
Sc 11.326796165795058 5.037884565185093 3.786557624352624
Sc 3.499319879540747 4.783520188653307 3.684669559712289
Sc 7.238824589930431 2.6997122972039 6.673965445700261
Sc 8.894856432283927 3.606650135393658 9.268090597350254
Sc 11.090642586921586 5.580666949164732 8.817464928731896
Sc 9.078470287582448 10.162282463994453 2.90010800281437
Sc 7.223412963670573 8.643965827927582 4.594162568956667
Sc 4.551924656436898 7.761537860342783 3.18310476424078
Sc 4.272663278557025 3.792718243949085 6.69421179090591
Sc 11.958122568976144 6.982037533967198 6.264132066564419
Sc 5.8299417882236355 5.736106392957502 5.112350109139836
Sc 6.115160272816476 10.672602753793676 2.8725964748911124
Sc 9.819616219030706 4.341020055826737 6.374970851951717
Sc 10.173721173131822 9.88653819200801 5.941342439534936
Sc 9.106844194976958 7.359353927152373 6.9096863177113175
Sc 6.882348724217792 5.385772677723383 7.915920032024959
Sc 11.162309729945717 8.482160125581482 8.968167181423336
Sc 7.267405587789919 11.205487399377757 5.812319115838893
Sc 5.903591099252641 8.29507627441019 7.226701379823153
Sc 10.44329702177047 6.412877917134509 11.713008671864236
Sc 4.397926134675629 10.011429984224058 5.415706570620558
Sc 5.735348824463666 3.364221624193796 9.665158692431733
Sc 3.2625386943383368 6.971683418152756 5.963021609732487
Sc 8.508474892731096 7.105758343107844 9.821231230240567
Sc 7.603452122589493 4.929996276187461 11.515222371851381
Sc 8.249538425326637 9.952997500434412 8.632216415040881
Sc 3.9535454380065906 5.9696925725159 8.867459358277634
Sc 9.584000363265902 9.465275754962068 11.37267186162312
Sc 5.565227435699394 8.27524236754181 10.236188343278947
Sc 3.0284817735609137 9.101856766964698 8.310528047935998
Sc 5.330925840234204 11.121457433121654 8.43029713188515
Sc 4.86645856771074 5.868477516108743 11.899802195851356
Sc 7.505889899811523 7.7247353105154435 12.655490126883281
Sc 6.7194137578149435 10.66808644293148 11.437372505971267
Sc 2.6351908347543653 7.722237381701595 11.072129270536879
Sc 3.598483549672277 10.623656755512107 10.92880091896506
Sc 4.65452032605435 8.84223202708207 13.06988858352486
