42
Energy = -217.36176977 eV
Sc 8.77867320411436 10.273209638073434 3.3296958884508827
Sc 11.567492187363955 9.168302099916493 4.109297386242735
Sc 10.543265174352435 3.1997225405125405 4.706444849502065
Sc 13.11606495125099 7.478745467010541 5.923963423116435
Sc 6.299371661877066 8.632652525075587 3.3370346778658
Sc 11.886610821115234 5.924142786627585 3.8600647974720106
Sc 9.146432101156181 7.450214932809453 3.874238019716685
Sc 6.915237008896658 5.7318760239347055 4.891042531064201
Sc 3.8430026789210774 10.212485237529236 4.199263007207648
Sc 6.613211295497286 11.336698240615192 5.021084208998277
Sc 9.828028530129384 11.072623062997998 5.985131543684848
Sc 10.423024455540164 2.9288082641913777 7.731442620699444
Sc 12.760331866408926 10.269513556928002 6.757456079849809
Sc 4.364802467213 7.524181278774148 5.536980546371179
Sc 12.612955268460414 4.774760007077444 6.811260786920709
Sc 9.892402365008488 5.502028567882589 6.176988541025031
Sc 12.716633274086718 7.893202971721756 8.814644981675967
Sc 10.39796609721137 8.306612379894386 6.931517034788927
Sc 7.387924789853442 8.7176241524864 6.165675772974645
Sc 7.833264884885262 3.160328739590941 6.385970124353276
Sc 1.9853611494612244 9.184013457291506 6.215343379882168
Sc 10.447809776130097 5.7469587246546245 9.181659331614084
Sc 4.6125106266639255 10.383738403165507 7.068499588045433
Sc 7.676913622094069 11.154109340622572 8.158343591282748
Sc 5.0758747134812285 7.591879146655194 8.693819357856123
Sc 5.074093165618319 4.74880140691967 7.227711331762709
Sc 7.576944545657093 5.967087039686401 7.980892296000923
Sc 10.720363358578066 8.234007640903563 11.19080683456997
Sc 7.919935420182152 3.4175962819114587 9.355245379805925
Sc 2.4486381354617204 6.5623392410863595 7.85735237737183
Sc 8.282128794721228 8.445884129009997 9.566829048252576
Sc 10.666173849253695 10.444018424774448 9.0053223467664
Sc 5.601673401513451 10.225992599819293 10.328876877870627
Sc 8.241145447607991 5.871094667220364 11.305171711056783
Sc 2.637327362144329 9.280636347699444 9.227508484220186
Sc 2.9532596286072783 6.855675240186986 10.79697331468141
Sc 5.4458970399998545 5.0395544592045445 10.234968309856
Sc 8.568426481837452 10.860565363139457 11.300521750119167
Sc 8.303504901963755 8.461506928260967 12.91330931605637
Sc 3.377245465438757 9.54445660308587 12.230612281418832
Sc 5.629004030342372 7.596168141552504 12.066843896845377
Sc 6.080540320067343 10.42665238623921 13.250067560221549
