46
Energy = -240.7443759 eV
Sc 9.191360692412728 6.152220660823117 2.428127175644206
Sc 8.16508759315329 3.8556276927323596 4.5042517853106725
Sc 10.887015963897591 4.71301431232113 5.237546607180471
Sc 9.602560879501883 2.703087036638951 7.108839513251022
Sc 11.3167388439939 7.418599306441682 4.48463888160017
Sc 9.613607312841138 9.28789071948687 3.1588908448126545
Sc 5.964984971498865 5.486466716452709 3.477861460922133
Sc 5.605676255443155 4.102076941057858 6.305747767472315
Sc 9.962902270617159 3.3838629234144117 10.267518079475911
Sc 4.1166268376394415 7.73909391443493 3.388675437874862
Sc 11.08241113455757 5.094621786525214 8.143559291458558
Sc 8.248990270377869 7.011274756492854 4.781354755422865
Sc 3.0270750900778642 5.599437208859902 5.3413558484922925
Sc 7.169433374034919 3.095443901844659 9.047233332168798
Sc 12.75170944344452 7.484696158119026 7.175727224937621
Sc 5.343585167974052 7.302127314412498 6.140272884133845
Sc 11.21487965574483 10.156471732411774 5.5502859195805785
Sc 6.839389393035426 8.702244370054046 2.6922552734194345
Sc 8.263748433187045 5.399810732975842 7.153340014683579
Sc 9.985571093777587 7.991966473836248 7.3516876953780805
Sc 2.4618077277585235 8.643814738941098 5.591110278442102
Sc 7.52080826788193 3.4153222986477987 12.011080578118559
Sc 3.044241622866711 3.996818221385106 8.24729901860397
Sc 5.29062331779811 5.640591339709853 9.099019595820968
Sc 10.815095593108538 7.384171772234604 10.098033773792062
Sc 8.032965924190666 9.664797439847492 5.91117131888708
Sc 8.02833432398044 11.789738069721786 4.227488722918713
Sc 5.168389522015423 10.178542423795694 4.830157734466122
Sc 4.653109172028451 3.266390974077058 10.898617640536239
Sc 8.232383742180586 5.739133766199011 10.166107584854768
Sc 4.283902568652288 9.808201621556709 7.852655466505282
Sc 11.865189890497396 10.154355712149075 8.65360155996313
Sc 6.9832561711026635 8.318222345798965 8.542303696846595
Sc 2.8384637392464667 7.072742846684123 8.118922467640841
Sc 2.851446798753879 5.580196258345062 10.890207839014364
Sc 6.539247897078403 11.8297771664706 7.187711407294191
Sc 5.673274373941371 5.832487073684479 12.080734987781518
Sc 9.621323508061957 12.238930757081615 7.124605454111298
Sc 8.986806734543292 10.454209340439467 9.426171897823485
Sc 10.889729566926201 10.057903430338603 11.6761730910348
Sc 7.850809483614372 8.584514934417246 11.561230400882884
Sc 4.6417310527136975 8.254898466562164 10.546325409749915
Sc 10.799966832215691 12.70107315065463 10.117187580802796
Sc 6.0907146145511115 11.010470538790727 10.205807849321769
Sc 7.949295636757246 13.379302742238623 9.529133644610033
Sc 8.505578628045946 11.842807814663372 12.053934204625076
