43
Energy = -224.43750682 eV
Sc 10.259778401100117 7.9790559284676785 5.634399943106647
Sc 10.647950413201 10.399985889132303 7.669111365517214
Sc 11.39557619611798 5.686271625763388 4.059668980543374
Sc 12.198108442261026 4.747882535003102 6.741321029816537
Sc 8.493563749422252 10.23116716934882 4.988493545693674
Sc 12.489894749366902 7.602928556135698 7.575297094060967
Sc 8.775918164850856 7.443390817235079 3.0212714205111117
Sc 10.808906530368295 8.387651866874924 9.83375525293294
Sc 7.326042666968276 11.51453685595801 7.681802035157464
Sc 8.357995533208047 8.734680186619538 7.863575928349738
Sc 9.106248308909267 4.401302497707542 2.520775838537989
Sc 10.439186047053816 2.8472539762894074 4.926365911817428
Sc 8.632226356003557 5.060419328874871 5.399297976253869
Sc 8.532756480743307 10.240667257828804 10.404205861482849
Sc 5.606156417337483 10.880331717953688 5.265366628894021
Sc 10.382414278623427 3.047648419773454 8.144757151855911
Sc 7.03657508795402 7.698439175433732 5.520988623604266
Sc 11.62209812658008 5.35431330158264 9.897517416274212
Sc 9.774576589187324 6.064323454488854 8.062424514239098
Sc 5.7020534217919225 8.77842737372974 3.248733529578628
Sc 6.181462702965241 5.566409845686319 3.256762317133582
Sc 8.802971824391022 6.722269094527094 11.167311557677662
Sc 4.371626691669629 12.316948456937665 7.463513715449461
Sc 6.791479179330045 5.634960662398817 7.9610328894881865
Sc 7.256412741866324 2.603312487114125 4.0269327814156535
Sc 3.301016984732342 7.095648508722522 2.514985656886245
Sc 5.1346198782289605 9.01263858953522 7.546661445579696
Sc 6.46698984072424 8.058563683257288 10.05477315307996
Sc 8.214938189196143 3.929875121019241 9.98356034781937
Sc 4.101535024287185 6.635990519407469 5.387369776890285
Sc 2.955355007843197 9.352689706229748 5.019035181404009
Sc 5.245860860218925 10.852903550486461 9.892645230856147
Sc 7.67656983519559 2.596300428082066 7.154078655640976
Sc 5.294767967028723 3.9112465672907883 5.937071721602639
Sc 1.2428296913731727 6.479856348189697 4.5897320134592645
Sc 5.664087031251732 5.4642239175334915 11.007447883269739
Sc 4.0354442388107215 6.113415926340035 8.529469027050908
Sc 2.5915715441835796 10.157287496109397 8.133167855565883
Sc 3.285145681251019 4.246507381559899 3.7029430678951276
Sc 5.054023329093423 3.2856549285841647 8.899320742739977
Sc 3.47557629050244 8.273154547404701 10.35922234000695
Sc 1.6819478967336394 7.445977276902769 7.462366957675487
Sc 2.3271844505623895 4.436538723670113 6.677012190301864
