55
Energy = -290.99483237 eV
Sc 0.7041515684397486 3.4860080231905486 6.980806343721491
Sc 8.175879362288937 5.738488998394823 3.5473980223354866
Sc 5.4257121956946746 1.2661117765830052 9.179492344693738
Sc 2.6478638444046956 3.1894912312964108 1.6279832670565797
Sc 8.212619238943056 5.94376171963039 6.869964475003544
Sc 5.334386691124117 5.6788220622993935 12.609644503715034
Sc 3.5422420074436554 3.712634180723656 5.4095045634879035
Sc 0.6715219892038155 3.298394706790116 3.9271995881450596
Sc 5.3346129135578515 6.188089213552336 2.1567455113730203
Sc 5.442738871016084 4.168616505774634 10.730069509458312
Sc 2.7492675471960437 3.6643005918114255 9.220404205739568
Sc 5.364759757871466 6.445585724329196 5.207885526722961
Sc 2.7870421097789775 8.14552044167896 1.795304089234817
Sc 0.3615086399494064 8.22957874860525 3.6231844971902527
Sc 5.409317234160616 6.5727534602850115 8.266812707164314
Sc 2.9998414418736834 8.493181589233672 5.107804367370603
Sc 5.310280775806001 3.496199729160623 0.018143360042800222
Sc 10.268832358018003 5.6146049786067405 1.6890663024400012
Sc 7.986405333554174 3.085329510596601 1.5940215006034704
Sc 5.332989124474388 3.2962495462602557 3.0634353952367674
Sc 10.952192937419436 5.704942924257937 5.185937756697088
Sc 7.1433056667615675 3.6544494836275394 5.357109131525971
Sc 5.410604839235055 3.5942327691480163 7.735656936100956
Sc 0.460377047395878 5.807816429446827 1.7637108806781139
Sc 8.092572054637392 3.5739574661886526 9.166822677434553
Sc 5.351327606004552 8.010530386258354 14.630792435484206
Sc 0.541859326933246 6.248453151986646 8.820561793760495
Sc 7.938009425744234 8.119130740204808 1.7351436309729915
Sc 5.367729228563613 9.0850100421873 3.2201478662554712
Sc 3.361599523810688 6.376658543833687 10.447020382155808
Sc 7.780328507224573 8.459147706970116 5.049816170489632
Sc 5.4141781061143694 9.314410736721735 6.850780154633551
Sc 5.501891249873733 6.605923323070898 12.609644503715034
Sc 2.8157296001090804 1.1707923611185906 3.970032224157947
Sc 9.967885201187288 3.2099412894682016 3.8605652382377285
Sc 10.342692834408336 6.067834906647277 8.683123984258316
Sc 2.843291978799475 1.3663287044714783 7.156055226192336
Sc 10.009712411802163 3.4053904320752637 6.849635618689825
Sc 7.550232808030552 6.339734168570329 10.364689697428444
Sc 3.237170907896014 5.729043598090522 0.06368968049768835
Sc 10.394762157751455 8.083367828052364 3.5148184339526676
Sc 0.3977606468016986 8.424197122810869 6.678927313021342
Sc 2.510079717468933 5.799122954687312 3.620868961995026
Sc 0.21743908494283948 0.8342166532796165 5.6125567977094155
Sc 2.8674053039467298 8.563200395347405 8.44310557616907
Sc 2.5461523908977215 6.011644898425125 6.928761731169613
Sc 14.543370440565146 5.862789108376632 5.311757164292792
Sc 5.4753926176434 8.668370433426858 10.311987051151412
Sc 7.792374023483479 1.1431402381250964 3.927558741302689
Sc 5.349113646995945 0.8125026260801768 1.9100970211459343
Sc 8.020964272112215 8.533306823155794 8.377172943572472
Sc 7.841743893231095 1.3524711391793465 7.09699610470004
Sc 5.336753190357434 0.9193186804100272 5.5725067091536085
Sc 10.43156086453707 8.281356954232812 6.548961433794701
Sc 7.431418853608281 5.6894517773052655 0.06411915291481937
