54
Energy = -284.64689758 eV
Sc 11.734785186695955 5.752230905477474 8.134827832381696
Sc 10.397416597759706 8.23036707065176 10.941240951940987
Sc 10.604787105697103 8.810211972084948 7.899950676759167
Sc 10.095709238001861 5.304498244360107 10.615396433820608
Sc 10.068440662111055 8.711821660636115 2.9912190421582108
Sc 10.860851544780695 6.533521506746371 5.356003472792302
Sc 9.104493040223998 11.734743938918092 2.4171656686015774
Sc 9.337746673552639 10.956711245534894 10.115775728925213
Sc 11.34764658399735 3.592933220013567 5.590593219982485
Sc 10.420793000594744 10.867366358815074 5.152689859076543
Sc 10.866491276347082 5.165404014230435 2.62273521719314
Sc 8.8798064835042 6.3660379357355446 8.02951573873902
Sc 7.839449834410868 9.640556466793678 12.543167886225216
Sc 7.994379548271624 6.551352026618549 12.182151546311806
Sc 9.82973687494071 3.3469965690468535 8.390846531382875
Sc 8.013438385174666 13.042772323445407 5.147592229744084
Sc 9.320830026142998 2.8877177653210073 3.5091110173463034
Sc 8.556394853746015 8.122836535136035 5.675601919497037
Sc 7.328791588417204 9.235469077150494 1.5334277104359841
Sc 8.24842658311721 6.272250155512984 3.2481559164321507
Sc 8.153281132226136 3.0874880806288996 11.628704376664809
Sc 8.255175789197125 10.74237323236592 7.243738250985357
Sc 6.27330558030097 11.379872362024654 9.223318734498989
Sc 7.612459207206291 10.352445330655822 4.305098767532452
Sc 8.314301924707943 4.349675906330324 5.743713035448647
Sc 5.5807411224951915 11.65941307918659 2.968962676850611
Sc 7.652255911523206 4.039677616057948 1.4954153724487913
Sc 8.75588838509897 1.4620065300016007 6.13518989437732
Sc 7.680288064284591 8.570307786595288 9.784278911517289
Sc 5.899008787808268 8.772303443861185 7.379435989560969
Sc 5.677578932182529 8.115213340194595 4.167078011319269
Sc 5.421549314028358 11.4487892919728 6.138407947609515
Sc 6.445287971977787 2.268606745084434 4.090267645909774
Sc 7.003868867531936 4.664959963594475 9.52523985185532
Sc 5.632496798159178 4.990313457516969 3.633942380755505
Sc 5.624377658386064 6.628416187683664 1.2456511349924593
Sc 5.0581315465475125 9.90177003906656 11.325877813133303
Sc 5.942492106962979 5.88960853815043 6.644995352746328
Sc 5.269261547601281 7.562230677401344 12.985031730495463
Sc 7.615712578350509 1.494667977484463 9.122352812194775
Sc 5.693096637674977 4.651854020347828 12.356561405086525
Sc 4.247294364823236 9.250910114643064 1.748495651743816
Sc 5.951812663009551 2.815978268244104 7.08566900937084
Sc 3.27818461442047 9.805287064262103 4.688588628819084
Sc 4.95649254460453 7.113721919643815 10.001034778289341
Sc 3.5794018238936687 4.118444356190485 5.415270036563349
Sc 3.140889476996282 6.813498279461545 3.2407164224975675
Sc 3.456929501448022 9.846938978035686 8.666413631568398
Sc 5.012593495340704 2.63051287491467 10.360687655269428
Sc 2.591973115465837 8.323840940208129 11.633621654373034
Sc 2.994392722926169 5.250493243345272 11.315283900925582
Sc 3.766332173443852 4.670049873815121 8.420964843742738
Sc 3.3605600569695078 7.175566282917742 6.252746831719137
Sc 2.0863472634311 7.0915599771317614 8.999607268145972
