51
Energy = -267.95824532 eV
Sc 4.8274729893862025 4.073127135796815 10.897156025942511
Sc 2.95251758001093 3.182610209865384 8.565411084095263
Sc 2.2180123557723084 5.81185397949432 10.104829159912878
Sc 4.297091969140329 6.720276730065016 12.57617578495244
Sc 6.122319377507217 2.987148043172822 8.186193340354857
Sc 6.844659293932205 4.788348115696411 13.104462877875937
Sc 1.8693460845557568 5.471904533655004 6.745295596924151
Sc 7.157987959115528 7.640043215612709 13.786286002616631
Sc 8.136561887536022 3.9360507189913845 10.389401089858438
Sc 4.454189263979384 5.611113547463834 8.403187222611832
Sc 3.9663365487862623 8.464376903097667 9.930778388447944
Sc 4.480532679966922 3.9997570436785614 5.814996564007953
Sc 5.712739079093532 9.520893430237383 12.128349429446605
Sc 2.1951745353304704 4.8472859545940885 3.6812222149865295
Sc 2.557542530858175 8.331296466043549 7.176521399358444
Sc 6.591070663425733 6.76331593982412 10.785225672349275
Sc 10.669179866214558 5.3681810567158585 8.91951153737659
Sc 7.15158343607239 2.809623290513425 4.805719943171793
Sc 9.11230154843469 3.1952414559448488 7.180500425532521
Sc 9.406627202223095 6.206583822997044 12.105054644800491
Sc 7.73846926386567 5.6910499909239505 7.996503237034339
Sc 1.1644599602917296 7.500913863706901 4.414218160398324
Sc 5.665408863729526 7.887156808976971 7.384099119657835
Sc 8.729332965750359 9.556105128707609 11.965539740843223
Sc 5.212367446867087 4.6754397013427305 2.8808970507755833
Sc 12.10392508801574 3.3949755161885937 6.779069816774202
Sc 9.143729866141456 7.96892748735454 9.663773718704157
Sc 7.197681854660896 5.784345693762054 5.047977323235989
Sc 10.349371403439843 5.9476014850425 5.903443149903088
Sc 4.0649723237239055 6.892674149825734 4.879623086646942
Sc 8.241937418621218 4.806812643486667 2.492566996146828
Sc 3.3956087825950974 7.473033971496423 2.17208254206015
Sc 8.54476225287297 8.711953430416596 6.943010995795787
Sc 6.857872165927954 10.025663412755394 9.269402291827387
Sc 10.247522109113907 3.376940038461358 4.241876039918385
Sc 3.211930897053328 9.859964568355343 4.372203790099281
Sc 4.553614934426531 10.712309636919715 7.154484477776009
Sc 11.466047266993547 8.426820740263246 7.695829228760819
Sc 13.29740562949506 6.10272340072431 7.037889903111458
Sc 6.166752095136541 9.435314296473841 4.82917368722631
Sc 9.745851654615652 10.825873451557863 8.769380504939686
Sc 6.490918912449454 7.414854944664427 2.4246567004822124
Sc 12.989090066141369 4.918432274650604 4.346807606396735
Sc 10.8253020625168 6.096417788611573 2.734427015397749
Sc 12.205241392796784 8.019335944880767 4.713354056083361
Sc 9.058686292419926 8.166270248371388 3.9876348019278236
Sc 5.287568979795381 10.237855411255445 2.094695365510505
Sc 5.339983885867338 12.201235024589481 4.352673144317624
Sc 7.569467176322524 11.587898504813435 6.4824008304855525
Sc 10.42335596540998 10.556054482210742 5.616692242196778
Sc 8.079806565664216 11.109476731816216 3.41004902922084
