50
Energy = -264.62810485 eV
Sc 8.502804773861701 4.962855176819031 12.562979571154823
Sc 8.74826690374782 3.3866555290351266 9.741440796396606
Sc 5.825770914547192 4.0597119969484465 11.034215366714514
Sc 10.669669747960363 5.918223960583247 10.27466588022255
Sc 12.46456724523425 7.5208063349433045 7.737524837526457
Sc 5.930676335669113 6.834285491465369 12.43276320604136
Sc 8.80455591252218 8.114885880678322 12.11908582531427
Sc 10.664110997492804 4.2870869543371235 7.438477318367617
Sc 10.957960310194036 8.944094883534659 10.112572706921462
Sc 11.718196555785227 5.889967442461575 5.196379548925473
Sc 8.01162065597745 2.3110685043049206 6.44924573126675
Sc 7.711365504022233 6.1580966699934505 10.134609379051671
Sc 9.498583184607327 3.851839920386599 4.343029739819176
Sc 6.01655879544637 2.6005363081362693 8.561869631384582
Sc 10.374031822413162 10.350661192330044 7.603504534172761
Sc 8.66027787295609 11.425580905540036 10.45083791030357
Sc 3.537471316635526 5.858899251210022 10.814937078007938
Sc 11.260482681654267 8.726540256701272 4.887325913009496
Sc 9.762633032938375 7.348248559833306 7.671873425691965
Sc 7.769380958888302 5.147452403294238 7.3752532574215
Sc 10.201681296734304 6.326488607584376 2.2925060689323975
Sc 6.159030852645575 9.735621451863683 11.677918798010987
Sc 8.017021160371774 9.104698276362202 9.310103612969257
Sc 4.6435374803812275 2.6620948938848823 5.985939162993274
Sc 5.3518474420343605 7.837814893473077 9.364499998233029
Sc 7.449143310179187 11.374859009942131 7.415124708145222
Sc 4.775560080067847 5.302242088172408 7.845733346695312
Sc 2.143192395922402 6.64630335784549 8.42451218317221
Sc 8.642382883787052 10.305930527564993 5.049892458912466
Sc 2.9945680945359037 3.434492649905679 8.891973447431354
Sc 6.772272322450278 2.2530521500753613 3.4931345368633897
Sc 6.797277687535129 8.267174912598906 6.632467032858766
Sc 8.894074067347125 6.821097323637001 4.814588805214103
Sc 6.5454003753478105 4.647005574964624 4.912632367572733
Sc 3.1544220346203877 8.986461628914443 10.571780907208595
Sc 5.258399519768054 10.925552946050841 9.212703061476377
Sc 6.553292585551012 8.016661118964869 3.48339431638879
Sc 3.7143543911600974 9.068481967202466 7.107954806052865
Sc 5.628110961514445 10.635608798636241 5.040015355187123
Sc 4.330887286639961 6.776463950619916 5.122863337848192
Sc 7.294468361045971 5.136184666502237 2.1760727683308
Sc 9.210872104467967 9.149031796533482 2.4506737159275502
Sc 1.3935656063013446 7.731410007567819 5.641565800040208
Sc 2.304090503839953 4.737943327763672 5.845826881841068
Sc 3.517191593594282 9.123363660496082 3.5657090253045927
Sc 7.631632025038794 7.62676417442901 0.635350099078347
Sc 4.227978134612474 4.189490354335381 3.209058864202289
Sc 6.219828456791166 10.141564511478382 1.8361348554936343
Sc 2.082220741112563 6.442655875294638 3.100899385770494
Sc 4.697370797857546 6.983987255777914 1.5790410072452643
