54
Energy = -285.00523472 eV
Sc 12.839011102294581 10.761656525597223 5.64525643349833
Sc 10.859659555359274 10.077555266139198 3.3491335160863622
Sc 7.652360881858287 11.761406757225979 4.188432363252201
Sc 9.4786676746141 12.202304982672018 10.482747290119423
Sc 5.02441031395265 10.063215883998586 4.244031000023897
Sc 10.230957823065108 12.087602317259611 5.473543273782106
Sc 8.202381657843079 12.519544697786994 7.518645186251577
Sc 11.150235914566835 11.21448975228867 8.245973313407461
Sc 12.993729665349594 7.971270131335287 4.889863964938855
Sc 12.491871579176495 8.315760740531868 8.002260171891688
Sc 7.908571367447322 8.78491658130321 3.325375101692267
Sc 6.356296616048089 11.936483815256308 9.850153475428966
Sc 10.331892021867459 9.174818718507204 6.0649581172684695
Sc 2.847774283800348 9.920491227368323 6.675118039525663
Sc 4.781903734810475 7.4428845500333445 5.967069477077304
Sc 2.4947121996398924 8.214047954889697 4.146341365387318
Sc 10.413660978421952 6.901695970618914 3.971496389351041
Sc 5.295703929370314 11.931656644313295 6.746793345279271
Sc 5.151905761921844 7.3559004392504805 2.823392211076534
Sc 8.43414855695885 9.904048085250077 8.953328928243748
Sc 7.344431242062476 9.631846694139725 6.168009944232299
Sc 3.3072098770756893 11.6732734069706 9.222289715820887
Sc 9.556239393753529 7.1149111544693024 8.30469350477854
Sc 11.799054869218855 5.695283296842979 6.531030232613162
Sc 4.684031572990583 9.982110803868071 11.542916488082346
Sc 7.995189866346467 5.590968182467294 2.4935830400341015
Sc 7.866386714771181 6.454753149042599 5.3820742925818905
Sc 11.414206863369214 5.758124672262744 9.811165528098233
Sc 10.80510234368448 9.161548636606796 10.55492334604269
Sc 5.5710466780547945 4.849081528118972 4.158137073331346
Sc 9.630417351586344 4.0297621722325525 4.6410690861612185
Sc 9.529760985674486 4.112981768725145 7.659996520921833
Sc 6.5244661541528455 7.6802896634281215 10.526993701785432
Sc 7.913835633639713 9.984852783329378 11.93933251250521
Sc 5.160950640448881 9.422583401076352 8.499857394301241
Sc 6.902837732781291 3.3899286406594533 6.397771601526549
Sc 2.4047863213333533 8.831216124758585 9.633847349034792
Sc 2.6939627879148422 5.2686462038566635 4.181850677757125
Sc 7.303663149481054 2.4516162353942543 3.529792903604146
Sc 2.0128338774383066 6.90967357461017 6.920978055235127
Sc 6.680179618274316 5.926994879275735 8.012212905050957
Sc 9.045157734141872 7.050932389897935 11.879605882903325
Sc 6.353299004005459 7.776830134144038 13.449428748255578
Sc 4.036878975181904 4.365108187322547 6.812209683045434
Sc 4.5398956488223075 2.0962642557330935 4.703141370307627
Sc 4.072995559449048 6.279224668473605 9.254270200737505
Sc 8.678336421686147 1.1817013335546687 6.0395375477548505
Sc 7.99891318839715 1.8440367028167357 9.072375825951031
Sc 3.7187997473933834 7.19389340452799 12.0480573741066
Sc 6.013609817273581 5.178672666076328 11.946503665338568
Sc 6.419440434211476 12.51954469778699 4.551861600859357
Sc 5.796336003520464 0.8081836476058569 7.277768841714122
Sc 8.361727264870158 4.677139402435513 10.268736575247242
Sc 5.529320957921387 3.4095740080270125 9.38213887949004
