52
Energy = -273.94111247 eV
Sc 4.281515151392757 5.969935790258356 11.627473828571894
Sc 7.60397530818227 6.193291086125719 11.674668240238237
Sc 5.825801391161757 8.68591029277831 12.430105046521392
Sc 1.42361169585845 6.379316341394848 10.42704351603218
Sc 9.175013696194725 3.5464867993359954 11.575632025653166
Sc 6.218884733932378 3.7563625980333617 10.252796177140496
Sc 3.2201693288981 8.944546478466195 10.751170836036094
Sc 3.2815278508452943 4.421104363366575 9.127441010141867
Sc 8.4052085144582 9.095120659162175 10.699856994813862
Sc 10.4349161980056 6.486656616855577 10.631618133210345
Sc 5.866432184235758 7.559812930314534 9.78549232905738
Sc 0.6750102689362414 8.766159458382527 8.860131069034818
Sc 0.8362213287197626 5.875621583939999 7.413572440397059
Sc 8.580046575907025 1.771261107984096 9.233311379781584
Sc 5.823176307880595 10.64201994999231 9.802408526793059
Sc 8.609988226654965 4.729795989375089 8.951226094093428
Sc 11.253172110492034 3.4754325809972806 9.23443209523807
Sc 6.882838817367848 2.7770762975560106 6.859844238838577
Sc 3.2224340950403976 7.345938038313787 8.133080641962202
Sc 5.87114351461783 5.512791437170901 7.590201054924167
Sc 3.2051904695929703 10.466437468104877 7.950143078795975
Sc 3.3574077943771807 4.481317516482209 6.057557051653978
Sc 11.11511539207838 9.206868684809121 8.891916359280254
Sc 8.551505517957352 7.62777810782012 8.089458687835783
Sc 1.5169627242048267 8.683458750877925 5.889169586028861
Sc 10.130051127497788 2.2284980150933205 6.575821444338021
Sc 11.267770189179725 6.286489698657599 7.7562518687141395
Sc 12.667082410999159 4.111263723103871 6.484150342749317
Sc 9.217442696816113 4.943790262245943 5.883463477926637
Sc 1.424809556604486 6.061408405216401 4.318049173196684
Sc 8.267163436493446 3.2090321988769324 3.629586725081146
Sc 5.842580786793865 9.148638741952233 7.111926694018837
Sc 6.034944297459421 4.783004844935726 4.693822676810379
Sc 4.194620013289483 7.307746634588786 5.112336352054016
Sc 11.234927614143311 3.570877824532025 4.012855128908126
Sc 13.127999127435809 8.516644136244988 6.638265345185008
Sc 2.5152418114516295 8.427035991355412 2.84150398246016
Sc 8.499916677790528 10.748000947745078 7.705972695150628
Sc 7.573458400695051 7.38312322824309 4.885760162405991
Sc 10.116047048147548 8.958333237777257 5.819940418140313
Sc 4.023257359865197 10.361962503337178 4.871691251089596
Sc 11.709250687750622 6.627083123315016 4.667697536847804
Sc 5.8060537363055404 12.12824435339709 6.937774757013745
Sc 11.822799455578853 11.280828011221463 6.70369998363256
Sc 9.657320064876156 5.806517708911472 2.8368325438645394
Sc 3.9316203059550325 5.7323516634883065 2.63725350243921
Sc 7.168275052001255 10.366270010141292 4.7584342204794545
Sc 5.629403245199755 8.550154103559818 2.7439591057367108
Sc 12.24442576302138 9.778284234703845 3.970302684683605
Sc 6.948288410719075 5.881075254417225 2.0973755834132346
Sc 9.846604372605553 11.632958112498702 4.4975630300068365
Sc 9.170865266265988 8.912778902753 2.8270904467303724
