54
Energy = -285.55458495 eV
Sc 3.357835314964046 10.374700652985734 8.733061842020359
Sc 3.000127881661483 7.532146881587344 10.884409928042906
Sc 2.121522609098101 10.25100255047595 5.792204502788655
Sc 6.517108518608526 11.095961840104385 8.43829235078264
Sc 5.928110038828886 6.75478290103103 5.43456630921249
Sc 3.2566234114962915 10.570416570981651 11.812483587459981
Sc 1.622978067656921 8.0302259108108 7.817629363700039
Sc 5.624807736332787 9.201132709920358 3.2734211171623273
Sc 6.782686127952979 2.7975806844402813 5.1132747251783135
Sc 5.561949778245793 4.233926864310511 7.477794018358568
Sc 8.692656047333612 2.2711040448152553 7.314677642929206
Sc 8.392643948151337 12.233015676138999 10.54493190033414
Sc 9.68982757428648 10.557227603255033 7.779975089870046
Sc 7.954259814414612 5.342467406215367 3.97195849599358
Sc 5.8353493101471265 6.157377875282152 12.12200619683269
Sc 7.429710620025142 3.7472095367003253 9.951298799152765
Sc 4.6504732223832255 8.63401976776911 13.459591148227357
Sc 7.5988602924505315 7.49678417418337 1.4846588107511354
Sc 7.536919963914711 8.520143948158927 7.310717521319855
Sc 8.350181345008787 5.223862508327489 7.051616643300299
Sc 6.518315332176013 11.010303646156336 12.705454699946221
Sc 10.480317231410268 4.345771889683965 9.121962852359985
Sc 4.278902604570108 4.850459499332868 10.017559147757593
Sc 10.840321312018656 3.853614269410824 6.12594583102828
Sc 9.633518608564078 10.77451986939076 12.933937417230052
Sc 7.797054180291621 8.178205384966686 13.270239582676053
Sc 9.089482984602602 5.683559111744519 11.707604578734333
Sc 5.479202456135404 9.087118163152203 10.587220211134392
Sc 7.110663243935151 6.539903929781017 9.482638481365466
Sc 12.557930461540241 6.010120323646385 7.266151368359413
Sc 8.363977715388133 8.318641997407617 4.207084038201142
Sc 12.62098343523642 6.924151101535354 10.278081524159838
Sc 9.369916794988649 2.771275451776534 3.6902653698179604
Sc 10.150684871775889 7.379798969406403 9.16437550270562
Sc 10.757058414726457 8.049484529860322 12.370139523190545
Sc 4.47481534093364 7.285913521175414 8.071112029920643
Sc 10.996202657206664 5.64810601979355 3.869344385664484
Sc 4.32775184207299 4.331966218451614 4.556265024681862
Sc 2.6523642285638513 5.082056619154382 7.314641622731868
Sc 10.268682428762002 7.4841234655262685 6.2752180504939155
Sc 11.480548115665338 10.083717326289264 10.43690677292097
Sc 6.6996764050084 3.6127602546646327 2.150867481496629
Sc 8.500043521612596 9.338358507267777 10.600651244620126
Sc 12.763819071059883 7.945578320738409 4.7062969054621435
Sc 5.172254512865841 12.507392743474506 10.545169831070938
Sc 12.467922659427016 9.001547209884484 7.609886718886649
Sc 3.0760895113624813 7.295365157839279 5.155871493234703
Sc 5.088433980826661 6.262707206890125 2.5347810290039883
Sc 9.436743275608984 5.066313746991377 1.3988598538698551
Sc 10.658173191540342 10.190869860634955 4.734966852835045
Sc 10.603114198182444 8.108292172880388 2.2398953096133445
Sc 4.949632488002693 9.615853749894189 6.190124341326802
Sc 8.52975795383474 10.402021013643383 2.302687893128991
Sc 7.604862314929564 10.993281291661464 5.290857760835685
