50
Energy = -263.6695376 eV
Sc 12.186618119760455 5.475639513381692 4.081735192888974
Sc 9.58927898193447 4.6968345485545235 2.7029148713071334
Sc 10.047186468326496 3.314391631616803 5.265626694919504
Sc 10.33127938744381 7.665800246913925 2.53913475995965
Sc 11.430307956750125 5.275913117746447 7.290618326971219
Sc 12.028071526357275 8.527881591305858 5.112937880134584
Sc 10.07876974898909 2.5976944109006417 8.534163790585376
Sc 11.220943124282241 8.303942993129695 8.261012264249185
Sc 11.651199590567396 11.291240801317754 6.424772645100972
Sc 9.865858889595154 6.604740967160582 5.242427535871667
Sc 10.187940730446162 10.652004614577793 3.8228024151666133
Sc 9.847429672216036 5.674932060371812 9.810362467677939
Sc 8.33102258264643 4.358011091746158 7.436745425987483
Sc 7.373093738758057 6.489053414357789 1.83032193098082
Sc 7.418367942973786 5.471215771610638 4.733446104376017
Sc 5.675658232280449 2.132790098352707 8.682317871546841
Sc 7.6448842978267075 1.598377713274191 6.512267136064369
Sc 7.605991917129422 3.754334019968134 10.286635995496054
Sc 7.710912698024161 8.681769096977817 3.972095231043228
Sc 9.383482086276002 9.583858471135095 6.400684169463637
Sc 8.145716892206462 7.254298869190135 7.698113696920226
Sc 9.582831250415095 8.75336744629725 10.905889310670648
Sc 8.775073689320756 12.377657114326434 6.12959216831863
Sc 5.502821952160284 5.403674439273787 8.335193090768929
Sc 9.74534563809253 11.258968186316922 8.90294293198787
Sc 4.599925106743462 1.0767366513657395 5.882977794244198
Sc 5.344897727582486 3.7360614065134192 5.9714269865381375
Sc 7.001076447772581 2.781324012674407 3.7036993676366468
Sc 7.323213086199584 9.553711595690794 9.372481435235404
Sc 5.015172688251579 8.164534106028979 2.7019685694316204
Sc 8.004488768103577 11.468873998607721 11.465117956556854
Sc 6.920587006890501 6.66868578500463 10.594772105316492
Sc 6.395626808669814 10.309330151349831 6.432811175705707
Sc 5.348803658554123 7.474863677196592 5.778721027404709
Sc 4.794500784273035 5.255970799834617 3.32189937049213
Sc 6.724275116685328 12.365070869425116 8.7129627772114
Sc 6.868672674508784 8.930898215184765 12.481446437272718
Sc 4.528336794973237 4.402917827221644 10.79752016424161
Sc 2.9965988705881466 3.1739989112208065 7.935182025053556
Sc 2.5964602093435145 3.4401718421836716 4.7647375289129
Sc 4.6653344956462846 8.365913679421348 8.745615973558412
Sc 4.9403125897300475 10.691022947350472 10.829690197524771
Sc 3.028548537282966 5.7297287229479625 6.49331482115011
Sc 3.7672320881663364 9.911567422940726 4.873765496887034
Sc 4.110880820466175 7.603412879615028 11.620156954485935
Sc 2.4908422735959044 7.149841943209855 3.9945593226136826
Sc 3.814139700432002 11.11469690262288 7.880236905209023
Sc 2.490525968933067 6.303785695092783 9.37416211451287
Sc 2.227210053815858 8.519816141918568 6.996355813349485
Sc 2.2004699509487753 9.444545433435808 9.971775897365749
