52
Energy = -274.59424372 eV
Sc 6.776117368320752 8.26738662416712 0.8657191184571864
Sc 5.315830873106399 10.801677217720217 1.578662272626359
Sc 7.915210252044167 10.222929847886816 3.0611286638426543
Sc 3.8679361681764535 7.927448303538657 1.9365034452784708
Sc 8.459727390679541 4.960538358008594 2.090041569719298
Sc 6.016093823900993 3.6005905782183936 3.1374921062347534
Sc 9.184317958524467 7.53382248963526 4.225764941021872
Sc 8.787185433107311 2.3868943176517217 3.989545951687134
Sc 10.734931017489133 4.7084011962730665 4.536011454214527
Sc 10.176539723641612 10.100112787090536 5.538156584677553
Sc 8.295181094508836 12.55572790650719 5.085983452960783
Sc 5.405504325489431 5.499334391594209 0.8829295114211368
Sc 5.4635563552642985 12.218766780669169 4.462598195245287
Sc 6.382089945912801 6.77181968024842 3.2343061198419587
Sc 5.157066113178968 9.38888558420313 4.133078707036162
Sc 11.43797412484963 7.008433580393091 6.542788832600163
Sc 7.827604719069967 4.907559928898724 5.080742233163955
Sc 7.189642943554285 9.979270854123133 6.117494953071213
Sc 5.061240030876947 3.69245403651529 6.082563320617797
Sc 3.70824922685165 5.485753969523241 3.9698273360276892
Sc 10.79387996899632 2.297300348075645 6.348599474972882
Sc 8.639772587334015 7.561350175106014 7.355523797993412
Sc 9.502557761941144 4.707927907122978 7.557167169375656
Sc 10.99099709250773 9.549031969199739 8.317963836507456
Sc 4.117424030058122 10.63995444544218 6.92638999924825
Sc 9.437204326133456 12.050235001230796 7.84375502422485
Sc 7.753579708773833 9.917836321378338 9.089871550704085
Sc 5.5544763969632 6.685747037634787 6.131717665144872
Sc 7.672332709091809 2.3566687388722394 7.138775487041588
Sc 8.045122779866235 12.291047277082862 10.607399733365641
Sc 2.766759584131214 5.446482476920875 7.001661026099784
Sc 2.954331275859747 8.090326266620615 5.56510425196654
Sc 12.090395931603968 4.312679007856556 8.40457702900128
Sc 6.471026247495154 12.50522231976136 7.70355390664627
Sc 2.493230577613542 8.528665316104666 8.68383850556025
Sc 6.6138948611215085 5.049875275114336 8.64626264679704
Sc 10.675009312550722 7.055266632130946 9.637457118997009
Sc 5.336783250785352 8.267827934585418 8.449179265128416
Sc 7.540096944223839 7.131246093940426 10.672489048189059
Sc 4.302820129422878 3.1225777308515106 9.020330182646317
Sc 9.948707742748635 2.1056244883690343 9.131250241788997
Sc 9.44358067964978 4.642943106011256 10.559108446277255
Sc 9.842711473799246 9.736729894580133 11.11049335360371
Sc 3.676127340026162 5.943335401385768 9.623466567673603
Sc 7.075639952611602 9.730753376311457 12.158751075243945
Sc 5.380051469641931 4.890005151925096 11.621126501803385
Sc 7.122692076937386 2.645608044889782 10.384026905633911
Sc 4.939066616992252 10.855777846357183 9.935845379853701
Sc 7.921934444712978 4.433401665400519 12.941997946317247
Sc 9.471070784701478 7.080214976467179 12.811945003375806
Sc 4.564521006384568 8.091707607328642 11.41305074519634
Sc 6.544201743669319 7.033662010678408 13.657069321991344
