50
Energy = -260.45715455 eV
Sc 12.52881792038413 3.9229441965069367 4.296280559497849
Sc 11.278356018805852 6.432549001674927 3.1823494119672886
Sc 9.733216389916388 3.5363921858889236 3.057138496152219
Sc 13.159559014509817 6.37990562552908 5.8268592645777515
Sc 10.841289038653764 1.9745673304011797 5.590486284657906
Sc 9.441997828697355 9.136655229981102 3.3265955282100723
Sc 6.225505108428045 3.700714167403949 3.154710094608232
Sc 7.995263318234719 6.271157317925462 3.2711073080771786
Sc 10.911623029381188 8.109827835841994 5.875005398402393
Sc 9.987444787238116 5.149307618625034 5.48429345717911
Sc 11.92216529901047 4.189554616632092 7.524384004589504
Sc 8.003790709912947 2.7035776115525203 5.528518157356415
Sc 7.445637235836176 11.63837486675487 3.6355968078750815
Sc 4.658037256542493 6.315287282073289 3.457958796353154
Sc 9.62049480415771 11.13739488569291 5.82088219252874
Sc 9.343603196214442 2.915596467495981 8.278335123573482
Sc 3.1215051239684914 3.660394847144019 3.3422418648416126
Sc 6.414937017254682 8.929583440095458 3.21058769080412
Sc 11.311678333282387 6.963291428590753 8.570088315812106
Sc 8.000079270487243 8.134113932259169 5.712459102286517
Sc 4.71730867341068 2.5496853811627007 5.556487333341734
Sc 5.323884176966447 13.782859513165555 3.7789489726837138
Sc 7.634981024304766 13.624459350759253 5.768101851371748
Sc 6.349612353377511 5.249176924247212 5.780639016915267
Sc 9.273720753640344 9.51077044358106 8.400582189227682
Sc 10.372299239326807 4.774525226816444 10.422969938688667
Sc 4.396758621540028 10.949546417465825 4.428826185863811
Sc 6.733417118818645 10.75743899711741 6.4377203538958385
Sc 8.76108964626909 7.380511900155311 10.678218080087245
Sc 4.89193860535784 8.167059689963192 5.972312036456833
Sc 8.188886778933597 12.366360877353234 8.585008134443001
Sc 8.484256502028762 5.936890908088388 7.957321657076717
Sc 4.773770180728184 13.161473883564778 6.600102666530396
Sc 6.276118584528764 2.924689687614063 8.093838527299399
Sc 3.1987135838281286 5.207199372733572 6.005356563923219
Sc 3.2825626425052357 3.304897492637099 8.460205965627429
Sc 6.460816451478198 8.451257118450608 8.630553636607834
Sc 7.380612409407574 4.674158124049189 10.308832368686732
Sc 3.2439820082451285 10.575948200617294 7.3287365069560355
Sc 5.108353045022166 5.786477456555049 8.538652139223643
Sc 7.191696027074146 10.101197815575793 10.83916775748866
Sc 5.357899334358257 11.542354806784264 9.056766357855343
Sc 8.08020014801056 5.446358579035938 12.944947508427594
Sc 2.6112255702003426 7.545355443551909 7.856907333262572
Sc 5.785004121792746 6.977541956343126 11.37158937279092
Sc 4.71052777333595 3.768280383998172 11.207215947309813
Sc 0.9485963192834405 4.967754167316844 8.365362877487945
Sc 1.6200104491409277 3.312200752793104 10.883517132488159
Sc 3.900351913047426 9.117110626172513 10.089523002506068
Sc 2.812294190030441 5.969569476211826 10.46171359684276
