5
Energy = -20.30957147 eV
Sc 7.98031447538666 7.3986850154408845 8.770736010391769
Sc 7.376527365325462 5.852927584663723 6.456185289198034
Sc 5.1464142947357026 6.627801623958445 8.273401344146007
Sc 6.488763481163177 8.539988987599637 6.638034465145829
Sc 9.356845314360902 7.883988822837182 6.173571068108734
