51
Energy = -268.37918078 eV
Sc 2.0169500055578835 4.031619821971667 10.298749995968892
Sc 1.3493705138915912 5.937086105648055 8.130740179823393
Sc 1.8612535977543816 7.081400463278316 11.0158857001198
Sc 3.0221415876771442 3.548070199943876 7.46573225702284
Sc 4.085753100473415 5.126735457679719 12.120949105348299
Sc 2.1265162375580875 6.9280028388018815 5.498174005447096
Sc 5.086887141504033 3.1805265223655432 9.860151516811506
Sc 1.4737242541786213 8.812481432651612 8.169815535795104
Sc 4.63779057594454 5.531528776944292 6.23952656203428
Sc 4.029445982054044 6.193210256713748 9.299836812417002
Sc 6.24611992649108 2.8982743563388498 6.676859008808992
Sc 4.54802085327147 10.944648596887886 4.908091201175849
Sc 3.723730571406374 9.339609604324517 10.072507726495918
Sc 4.235827754380116 8.473986144198795 7.04650224055224
Sc 5.533720534525486 7.8198019891338415 11.812404713002664
Sc 7.150140133199167 5.278754686513012 11.544988267497802
Sc 7.092669753685522 7.193723675855853 6.130636540022211
Sc 6.743689120345528 5.243693565141354 8.557270725789046
Sc 4.957627121742635 7.747609312204594 4.103140141810651
Sc 8.424959031980263 3.174542586261398 9.925909073574486
Sc 3.587607479709139 11.31600073821925 7.85908012290028
Sc 8.594510866228623 2.302658443047182 4.476501211926283
Sc 9.058077788432621 1.8172617272548364 7.31079603065439
Sc 6.646482140359836 4.791983986002836 4.092561370217568
Sc 6.7569968243763 8.386154028361565 9.152977055913125
Sc 5.572008119374542 13.33799494013726 7.063953705096558
Sc 10.482352619205022 5.263839533386965 11.212356834439092
Sc 11.041409986535253 3.63572747525436 8.593925541528371
Sc 6.41956510717701 10.571118477483049 7.007893618592085
Sc 7.858171925700296 7.287188940159389 2.702771721120583
Sc 6.045443540929419 11.481337790422499 9.794337331914578
Sc 9.808489344975335 4.910314998230747 3.2993369652682327
Sc 7.5771200950647595 9.611834683705471 4.585845311859225
Sc 11.391222196807178 3.425922085121038 5.5475198960639105
Sc 8.763466281452548 7.748786889470672 11.479664012012496
Sc 8.891680716898536 4.667853856416186 6.276589695495131
Sc 9.367091430998375 6.286295808015874 8.858485641873425
Sc 9.99957200810337 7.5697266071875 4.871454009636777
Sc 7.540093827591948 12.445145089013296 4.783880486951598
Sc 9.343331321643223 9.288281214669636 7.48044875307545
Sc 8.585590059345462 12.3896677256625 7.835264112138035
Sc 11.884616050229072 6.096132965403336 7.165355695051071
Sc 10.828220693930449 7.483241764061893 1.944178199836192
Sc 10.371006781013412 11.308349541013769 5.438724438439959
Sc 9.484450526658813 10.242656784121262 2.5262506303580046
Sc 9.010834581364323 10.498250101193802 10.208061734622166
Sc 12.58975656477787 6.336002623784928 4.199647547159498
Sc 11.31935943753094 8.315684758958804 9.712607017519652
Sc 12.331017945454176 8.965024633197471 6.652456135279577
Sc 12.112151471483045 9.425265037043062 3.7010807627918614
Sc 11.394009532103444 11.250483801647965 8.478416001559541
