52
Energy = -274.3897132 eV
Sc 9.436710353093755 12.103690444982917 10.615628556368831
Sc 6.97103705011437 10.61538021074655 11.744178455167546
Sc 6.590275748795404 12.66003171267994 9.364608622391348
Sc 9.341804484537684 13.144876768722972 7.789462496823734
Sc 4.150285876852227 10.986250996954192 10.638348151270526
Sc 11.292314950028175 10.797206996548537 8.445264464177063
Sc 9.458435249521326 9.03666019128836 10.7360076696201
Sc 4.265531601843997 8.247188874610913 12.073599526659688
Sc 7.449212751823313 7.561464949290929 12.573044127270716
Sc 6.910232671008961 12.519573215059337 6.032785187614055
Sc 8.179658222935798 10.436891016433435 8.291476416775598
Sc 6.013005382129775 8.662659824993897 9.799791125950486
Sc 4.834293161466288 10.675618393065363 7.635208507167426
Sc 9.744486719647707 10.821601903240074 5.623638722183497
Sc 10.716909309971122 5.759790750665634 10.046129543179017
Sc 12.448535703761197 6.055034836770481 7.324021940437153
Sc 10.112448335256076 8.089331523613605 7.915145234540291
Sc 2.983603235333822 8.504859471226784 9.265233342822391
Sc 5.503470375747863 5.582648075664627 11.504084721397515
Sc 8.118635823974037 3.7133707766662196 11.06410990260993
Sc 7.960690224300908 6.44854638254554 9.852124213700629
Sc 12.10018583425264 8.822280302165511 5.752701009288084
Sc 6.85984631759479 9.723294023674638 5.638993245301659
Sc 7.053075291630826 7.412141798622186 7.289842993934073
Sc 10.061931051418656 2.9424031286651595 8.710235524237593
Sc 11.298794394773802 3.475983974259268 5.733525124836259
Sc 5.05010188596464 2.9809793481161186 10.031391945462449
Sc 9.68158757850978 5.393385891802544 7.035250054736316
Sc 2.5659719332021647 5.643767329300314 10.482541260827087
Sc 9.058341039862695 7.759484757958504 4.934970420919958
Sc 11.506736644375247 6.225478199026774 4.3503845038652615
Sc 10.74159078229148 9.204615673353292 3.0309457447931214
Sc 4.185349878667876 7.975540742601179 6.324995621504268
Sc 7.16201381253914 3.9948727582236794 8.171975563919206
Sc 5.854166480123026 7.4320572420953 3.880610802312386
Sc 7.603336366499218 9.917907734851644 2.8280030691939304
Sc 4.682600597673302 5.8611539437565 8.559391987567771
Sc 4.558859729328266 10.19787696784619 4.038197361946213
Sc 7.505221705305737 1.2856531804215736 9.022274854520033
Sc 8.39873060715519 2.2678863066087755 6.048725797161641
Sc 2.7993700827992907 3.545695283192111 8.076805769838309
Sc 8.736839117567772 7.152815121351354 2.034266241828914
Sc 1.8769219124865222 6.232786625755992 7.269225043555474
Sc 9.327419203621995 4.266626414435227 3.4027332049091434
Sc 7.277028847168114 5.181844801412916 5.276477958072908
Sc 2.755353790013461 7.5586090114808755 3.8416655905785717
Sc 5.302880807743445 2.1155700273021854 6.908914136718707
Sc 5.246173281952215 7.849402760952776 1.3470036834439563
Sc 4.214815892549768 4.904424226031947 5.648246936092269
Sc 6.738629288372425 5.122557859497478 2.0374546505032636
Sc 6.029415047807435 2.90200194880357 3.892898921616492
Sc 4.019494974572064 5.171270675245093 2.689806984444635
