51
Energy = -268.61482779 eV
Sc 10.179926946005537 7.692733239189042 12.542624664604842
Sc 7.0779520455023475 2.6076592666943164 12.063718399487772
Sc 8.642065386315156 5.168605518827772 12.258748097384515
Sc 5.194147005767852 5.400894818885012 11.877628691516273
Sc 8.75400697604791 10.113002902858568 11.345753447342481
Sc 4.624796237798648 2.978382931463323 10.23264172834811
Sc 11.183775441907553 5.759038047816116 10.390257502945085
Sc 6.97836342659873 7.840635995006377 12.407335161275288
Sc 9.536377628450907 2.880475704145016 10.174007599752732
Sc 11.300183231393156 8.90853778628657 9.915125862474813
Sc 7.358897203856095 12.623320516071301 10.2643212667692
Sc 3.2988303323483166 8.20012472060659 11.032607935881334
Sc 5.59816145373807 10.407145713967125 11.266626521008785
Sc 7.26658362457482 4.451792495568102 9.770190197693921
Sc 6.792735899616142 1.2787839450462717 9.419721700961357
Sc 3.035833632133695 5.380654956723749 9.458590151595672
Sc 8.67853561021387 7.259439372753479 9.865827040182575
Sc 12.215219055672456 7.1925103907631565 7.4894376549948865
Sc 7.213939663503583 9.865590779017127 8.742735185860626
Sc 10.111526128042783 4.839840840057757 7.639946806201416
Sc 4.476933272105924 2.306049579554255 7.324093343875815
Sc 5.526781679215279 7.399210909126601 9.617205928543404
Sc 9.824783412097268 11.460353994462464 8.765830459846118
Sc 7.6318670322828925 2.9417234262716243 7.112131354094514
Sc 4.238915516700281 10.200357966085837 8.599632702626831
Sc 5.3137106137960215 4.952627188088779 7.742849822246119
Sc 11.369133742651732 5.956467872796085 4.627389344523724
Sc 12.312485930706792 10.268881173986685 7.335874587728633
Sc 9.713642812410864 8.713097684649327 7.175104079379492
Sc 4.68820652510383 12.93174312981818 9.146094959603248
Sc 2.5866289922589765 7.819392291681953 7.872904768925576
Sc 3.3044783518367584 5.78431005873847 5.775316302146796
Sc 7.370256716532505 9.825320081560994 5.432831578483363
Sc 7.100333821742208 12.400760223407053 7.26385725557915
Sc 8.816471053863285 7.3121222458081485 4.013958394426183
Sc 7.708419904221604 6.160697317297653 6.557888748876818
Sc 3.2127537972145417 8.816795308708404 4.833613898241991
Sc 8.934695300915203 4.132934664348421 4.481312773557262
Sc 9.87564858244156 11.523862511362735 5.693334590762737
Sc 10.900897919774598 7.936593792457448 1.9442309275305776
Sc 11.463857709963419 9.020238189566058 4.748791888292379
Sc 5.316418105412217 8.040888035525452 6.689624938553922
Sc 4.747862467438784 11.27957713328653 5.777659276715413
Sc 5.7021590681729935 7.086439253614606 3.921460274338953
Sc 5.730906008505843 10.008709556254681 2.9903701717360183
Sc 8.99280278158591 10.243748964183691 2.913447285401542
Sc 5.855208649247656 4.120377334975897 4.957026705758348
Sc 7.104007231981722 12.435886668009879 4.079328792814585
Sc 7.791855445276309 7.802971312755543 1.395935550906497
Sc 7.016868058823271 4.983888734558516 2.278961542920477
Sc 9.896315958338821 5.322110377438438 1.7943903027123305
