50
Energy = -264.41674235 eV
Sc 7.721715116757082 3.9304747757819247 4.30391797413327
Sc 5.797050831566533 5.567715962057582 2.8421553963491224
Sc 8.976439093428963 6.111543932608515 2.086157538952809
Sc 6.22323814832747 2.9288473786121245 7.980576632436394
Sc 2.4013574752281204 5.763802106876302 5.045563291208878
Sc 8.910639323238986 2.637358258501907 6.619576417517363
Sc 4.976721623481144 3.9744006429584946 5.348570866527401
Sc 3.464095066745892 7.5374921696974715 2.6119828168058583
Sc 10.558076666748944 4.707761888828595 4.795370528144318
Sc 11.913131022056636 3.20792792581316 7.2634806541891335
Sc 6.519968866904332 8.495635384690452 2.292025872236085
Sc 8.153208222860409 6.902875196010453 4.558145551653505
Sc 6.932943836314946 5.74403270226056 7.0570433871811495
Sc 11.205613536832859 7.585043129358363 4.182793873518314
Sc 4.811575451972908 7.194343736876523 5.23631613841659
Sc 7.66790601063631 4.584998301710336 9.947756016025377
Sc 2.0314407160212453 8.728499305755257 4.90102607177956
Sc 9.279763197821328 9.18864590155709 2.7649115919703577
Sc 9.891661244839296 2.7346384103510037 9.521881226116294
Sc 4.074057871501398 5.19825602262907 7.9371650237172044
Sc 12.428699860754845 6.266598307186998 6.812652512551171
Sc 2.6477809929329905 7.83331430337274 7.696832156144167
Sc 9.820755708569695 5.147048348323087 7.6604010605882795
Sc 4.573724942521198 10.098580623190854 4.1223988513295415
Sc 11.950335106224383 5.2076861373345205 9.809160753904239
Sc 9.846220987241356 8.105411982052374 6.944038834067308
Sc 10.426894723596469 10.576635922290544 5.062898333485922
Sc 7.514535696288981 9.652749152480803 5.410845938909649
Sc 9.822305563200052 4.894669796195557 12.026904082313157
Sc 7.557653251473949 11.620352193871694 3.487783090918291
Sc 5.456057594678017 8.957025045573454 7.504005178192746
Sc 6.179249131612659 7.209033929219272 10.120267392222265
Sc 3.1971036002405544 10.752319228752334 7.01921147804463
Sc 4.822596661479305 4.286517392943606 10.708426163891698
Sc 3.157833510611538 6.722510528315361 10.585856118552405
Sc 8.125094850782515 9.813504198193494 8.755614976978991
Sc 11.58408815625593 7.3582269810544805 12.111602760165248
Sc 5.689042330858981 12.022858860341135 5.977923364391552
Sc 6.743520620921235 5.349647534392162 12.62133826118525
Sc 12.112398639546148 8.276596010641963 9.225845392647532
Sc 9.493597473923703 7.145858191364306 10.009121246897891
Sc 8.45016122383585 12.218623619237823 6.859818946857955
Sc 10.818956923871808 10.917871866602171 8.208447410335062
Sc 5.8484138605756515 11.75958268601172 8.897922196508288
Sc 3.9952354530011496 9.568142015737264 10.10934647236903
Sc 8.368379349282309 7.789018945635461 12.662136711648591
Sc 5.027542134835108 7.869201246744132 12.718588840363546
Sc 8.72587008453072 12.451824840422463 9.917176045647983
Sc 10.113200997428429 9.921332082314981 11.088214017599554
Sc 6.833668661225366 10.170179979768012 11.40184348601547
