50
Energy = -264.57840475 eV
Sc 12.89536220650326 7.835955036514529 9.961664080587251
Sc 11.908808450827895 7.53060194072084 6.536949641072931
Sc 12.236046584153666 10.238259841266778 7.919758106830417
Sc 9.22953245391614 2.488055064782392 7.539857091273941
Sc 10.865562122933548 10.719188222490411 10.59791205293451
Sc 10.72414020289506 5.055528541415818 8.464186389642263
Sc 11.10690253654329 5.6324543147166155 11.444072896148363
Sc 10.321381228383533 4.813929987586207 5.271215541162513
Sc 9.193996035147963 3.4079371139776944 10.792134795468355
Sc 7.997622580767728 9.448180560175384 12.22497397870009
Sc 10.373713721977781 8.070972521762977 9.031928308335964
Sc 11.10485955947919 11.099972827659368 4.9069678789354665
Sc 10.71340482821676 8.270604240220186 12.205551783083445
Sc 8.722610136821732 6.908129734881326 6.841745174513293
Sc 9.83931266581326 7.778161173226913 3.9959862992100397
Sc 9.584751685483067 9.671955544011865 6.539920785793824
Sc 8.504646483761274 2.241809291143035 4.215320989195359
Sc 8.576793080933918 6.362331827009861 13.366229620869818
Sc 6.714826540015064 1.3674973007493412 6.432305195300663
Sc 7.47670370339221 4.710835351522061 8.79137337850849
Sc 8.235303762655468 10.130537607108325 9.338441471709599
Sc 7.429357022594493 4.293440267897449 5.868431564611795
Sc 6.698788319992902 2.0265012008168157 9.533986843757178
Sc 8.03405188249982 5.146839367973806 3.084357257094633
Sc 8.392221471249153 6.789445353119436 10.667652189793996
Sc 5.1074244752399265 6.093665068836206 2.7742361159323465
Sc 5.475476807553578 3.2267194188011827 4.206204730171623
Sc 9.990010702599056 12.310250995090525 8.062724509664191
Sc 6.545283299200749 4.506575707573408 11.646180259335226
Sc 4.761349934020355 3.330816393299368 7.457778176909214
Sc 6.195870461537288 7.5521002892430875 8.556837104475175
Sc 7.359426157539614 7.9028953858483515 1.7679190684569628
Sc 6.872487740054584 7.553023879944185 4.587008783783641
Sc 8.33994832376762 12.453444201168232 5.654537099484971
Sc 6.657490960201483 9.892385640188825 6.7361657573097515
Sc 7.931018734209813 10.282317472484356 3.789901053241966
Sc 5.579576632302511 7.443658094108792 11.63851569410368
Sc 5.4380018427971315 10.165947693469347 10.09691649269043
Sc 2.4901055598646042 7.262370784438603 4.380516093497639
Sc 6.625489533541189 12.48024542217542 8.11116391351231
Sc 4.921573808577847 5.857455592337278 6.061021653769711
Sc 4.379056586712681 5.397004649375317 9.613683437219192
Sc 4.809190239594754 9.191735237192718 3.1859892140868697
Sc 5.280896880118161 11.73790941541828 5.0455848976373
Sc 4.041933499449487 8.658318513127153 6.23628557565456
Sc 3.2268444299851557 8.273969560422792 9.286742872644902
Sc 3.670019231679424 11.075927285949408 7.64864555276136
Sc 2.3641966877991147 6.061474743788241 7.3304918600924855
Sc 2.3043371977088234 10.409715405335973 4.6332084912072675
Sc 1.1897718431334046 8.89943075996271 6.869320073409272
