51
Energy = -269.63581289 eV
Sc 12.73010087631655 5.88433906452944 4.853228647777878
Sc 12.538638056338916 8.480282859619207 6.6160851087819355
Sc 11.227281280999076 11.508965901693509 4.932857033430149
Sc 12.237152856958003 5.08552285819035 7.807938207562362
Sc 10.223315058465719 6.701130986907451 6.123272750896368
Sc 10.400676725134145 3.795274371698047 5.473142566863355
Sc 11.726848575933888 8.48695016288144 3.7194351770964778
Sc 10.892802763465612 10.52170929302347 8.320076521009184
Sc 10.014067472387433 6.096146999057902 3.0057928198110635
Sc 9.643158542414582 9.50849606192159 5.521185571559941
Sc 10.825987784800551 7.391944927688339 9.27957302425534
Sc 10.68185357368291 2.294173217733936 8.31712845108485
Sc 10.152206082875244 4.547805130201705 11.014018238208953
Sc 8.662159521217829 11.936512111528808 6.914216913620732
Sc 7.4607933678423315 4.565139313669633 4.182613862912146
Sc 7.966980824761483 11.579428049802383 4.066806236460621
Sc 7.687841423544912 6.777722293434618 10.221325353396974
Sc 9.282427744491113 4.706079054948015 8.352505501227029
Sc 7.7539983146109535 7.544993183590038 4.232130227478605
Sc 9.358420247733603 9.401490359951483 10.973726825785178
Sc 9.142413915237428 9.212659557896977 2.310004400638858
Sc 7.798846472014796 2.6410592915436175 6.752861587855087
Sc 8.46160776247783 8.890870796990441 8.099155436657679
Sc 6.772593477974624 6.565095764158341 1.6519096228928194
Sc 8.161691248932078 2.27285524683026 9.980281546262646
Sc 7.271701329245249 6.223929771300142 6.90934087380599
Sc 7.6100409343745055 11.5448265152867 9.712835418511277
Sc 5.046229630912518 6.80882060918512 4.085875141255435
Sc 5.983738563761149 9.434776157585619 2.6700203529285336
Sc 6.479835753931152 9.344667748095976 11.853824242236895
Sc 6.245964494832293 4.132003564994677 8.865236519293807
Sc 7.322585466344085 4.34521501710002 12.018188547907874
Sc 5.50284666300766 12.05006488500886 7.351501324305958
Sc 4.359846120442022 4.526588034936167 2.7794915143443175
Sc 4.866562732510996 4.471904227077878 5.973719145892577
Sc 6.526872126267549 9.711946543793252 5.899574887908812
Sc 8.669097950161557 6.9682740053367045 12.807061641832963
Sc 5.679083565402056 9.38622443736391 9.000427042435037
Sc 4.643782169825571 6.4038359190091265 9.559418993826956
Sc 3.489389381865719 7.568837258167814 2.0109652049148754
Sc 4.534334506596441 7.516660324392873 6.8096638250600146
Sc 4.521220267253456 11.662016648870653 10.284158903387562
Sc 2.894915313767045 4.401558245806943 8.332654252701946
Sc 3.6013270337328147 9.43847245892219 4.697201226163204
Sc 4.506309161828551 3.7130471806870964 11.13847420520099
Sc 2.3923545276548146 6.298126245974424 5.116735245394892
Sc 3.0912728168190307 10.17948325620644 7.979271581690867
Sc 5.279288716470112 6.514038860892323 12.432944591509813
Sc 3.370714410166065 8.822121215812512 10.878502930296401
Sc 1.9736654138485439 7.291009107836663 8.419807911551702
Sc 2.265239053078565 5.758868825866781 11.032400868931111
