52
Energy = -274.73143449 eV
Sc 12.010144168385345 3.7657372491262344 8.411760469607797
Sc 11.526523980177048 9.26308043184618 8.517852936849648
Sc 11.866771554600632 9.085059439157476 11.614625503314429
Sc 11.797837360234658 6.652904157353607 6.7192613426201895
Sc 10.806046223462552 9.452595914362123 5.127526468177731
Sc 9.554486743802292 11.009719036062087 10.412248683182392
Sc 9.508854442182352 11.257491415471275 7.359610923372608
Sc 11.904658890894794 6.459485772519805 9.923661767440027
Sc 10.546496510904479 3.812289251504273 5.672222558287286
Sc 10.536962900660699 6.570139143138867 3.898837742803364
Sc 10.016670778401801 3.9525794769198277 10.817120987781768
Sc 10.34625152989649 6.514002937966536 12.722606449478508
Sc 9.261806594679314 2.366664147158717 8.211478230611181
Sc 6.789941238594386 12.21436128433011 9.09168181267922
Sc 8.991766916367322 8.161743377011549 7.19140476447413
Sc 9.770942439003408 9.117932625887402 2.172946705606833
Sc 9.373976032476167 9.522632617729574 13.109497109725304
Sc 9.545953641158027 5.345305820416938 8.201639786321142
Sc 8.574747427390154 11.358056206386552 3.963427687074665
Sc 9.348029219174695 8.019840493075199 10.445350183072758
Sc 7.927602599548613 8.54387011902791 4.284092418368941
Sc 7.841990638698679 2.423525635265941 5.3524108787678895
Sc 6.726408958268742 10.345582928698345 11.768075435826365
Sc 8.969547882290426 3.870298364718957 3.046688641936555
Sc 7.999469520792619 4.37786624830858 13.058312852169276
Sc 7.295596565265522 5.694815563140265 10.289688556312921
Sc 7.015802411971944 9.348022604776881 9.138642090898415
Sc 6.908314678310844 10.579685310449769 6.424295041490822
Sc 6.958858078906557 2.8419523110393197 10.55813726532849
Sc 8.060937804719359 5.5688077748122735 5.406693291591232
Sc 8.017727784388253 6.532815521453854 2.024484775711174
Sc 5.229549975887034 4.941834388650001 12.32862271234892
Sc 6.6531478695290795 3.931343770771269 7.6372628934585896
Sc 7.2072027914926915 7.389538653013873 12.905357468352737
Sc 5.982474323088674 6.898458861265553 7.6275264239037925
Sc 6.6046202748024045 9.28874192301224 1.6858346081474174
Sc 5.354415564945428 10.743819154804184 4.012704911284008
Sc 5.145451875367045 7.390335282526953 4.392362365066774
Sc 4.167259508381383 12.204696242544467 6.942327091684395
Sc 4.170276699695238 10.456067129240619 9.507942041569287
Sc 4.406531917598103 4.737390617291204 9.444984714320793
Sc 4.922302592090478 7.644055447182966 10.670668475417461
Sc 5.874271567793872 4.448965695403725 3.6869412925768663
Sc 4.311296216509168 9.346025737711136 6.7125703372218135
Sc 3.9160708594509073 5.172643024367936 6.17501278237602
Sc 5.086232332580116 6.578865558818128 1.4052158119446225
Sc 3.3297402859069485 8.808005244686072 2.5317565322796844
Sc 2.437230254368712 10.808214476824999 4.761802677039475
Sc 2.900731361277395 7.360586190047094 8.409271005252622
Sc 1.734038691281273 10.295563708654782 7.593690678938434
Sc 2.9655046438977717 5.704030993912636 3.2289027937566583
Sc 2.156069275424621 7.781995867387351 5.36493304023973
