51
Energy = -268.87677575 eV
Sc 11.631008639122424 3.9469537347572143 9.40241650689377
Sc 9.22861794197435 3.3990174402384454 11.457264446914536
Sc 9.509141374573646 1.6048524284560561 9.075687352968883
Sc 12.381795349712652 5.393717545406555 6.496789657938739
Sc 9.973001804287064 6.353786985894942 11.39302568761885
Sc 10.539053941593926 6.748852723621936 8.56119347856494
Sc 10.321092440179509 3.2168133271591484 6.345320502516019
Sc 12.80891180077885 8.441280625359857 7.536544001805314
Sc 8.882518024118426 4.323093350650831 8.655182665666354
Sc 6.64700673337253 2.6260555691138743 10.063777436648396
Sc 8.398376298527644 8.868806678275547 11.348526155663409
Sc 10.956218142934523 9.243690315315705 9.955595792611545
Sc 7.09109442382093 5.630115959914347 10.45201635064927
Sc 10.952603686997302 5.032015462051883 3.626392960039013
Sc 12.038841242712417 7.741394755440544 4.792451651083743
Sc 9.506628982804287 6.268463378326071 5.612748328137167
Sc 7.15083304674599 2.521263973162853 7.015954576231584
Sc 7.759106524420764 7.9075733578496425 8.649749041031288
Sc 9.965105685532526 9.18516388620074 7.006905362181783
Sc 7.949487053125189 3.862987719608104 4.373227572259233
Sc 11.20396172341375 10.649063782545204 5.009821281968645
Sc 4.717761758707214 4.463029291141576 8.464606379339118
Sc 6.073127931162472 7.429789856384655 12.535750311799434
Sc 6.839465375476558 5.66915749561829 6.8645074117407505
Sc 4.404488603596235 5.058674625137304 11.612135260543088
Sc 9.780746089100534 8.508115365812253 3.1903900074845883
Sc 7.457863010648962 8.796978117775925 5.303142746575464
Sc 4.769447395434549 3.8106540817809353 5.2928320480657085
Sc 4.728477080846297 7.411835753475103 9.41760707844197
Sc 8.270694368686724 10.970089641388602 9.203870168622897
Sc 8.135087237374202 6.043505076587157 2.14768088748272
Sc 8.507923026413907 11.230537817192486 3.5563229671284273
Sc 2.1766299767086585 5.59389526719758 9.767329034656596
Sc 2.295752321589487 5.299748037436598 6.566519271853771
Sc 5.921833966942371 6.3983199935374 3.974102042405186
Sc 5.819710929149122 9.84666483063859 7.6160780480351145
Sc 3.049338148977787 8.001718071316352 11.522437625559553
Sc 5.7349422632596 10.069956705021124 10.790509701058111
Sc 6.873909168349108 9.019760772699177 2.2575081834280444
Sc 8.170372486688443 11.722264637010364 6.393473408303597
Sc 5.606359080035077 4.055040086539561 2.2925531991782724
Sc 4.3097714603291415 7.470280734150956 6.260943727457389
Sc 1.8684098468245556 8.028255848967593 8.061730422773728
Sc 5.106960949198765 6.782953721138724 1.1956477820617621
Sc 5.371545623319374 12.432485714541377 8.019273406667681
Sc 5.670107037409398 11.243619149710893 4.746833733208021
Sc 3.103782572646081 5.705950563782249 3.398625101320274
Sc 3.2712634944675214 10.333679860772545 9.270334312908068
Sc 4.017976966217302 8.899443715073819 3.434860608697815
Sc 3.0827178839667315 10.321052725982872 6.275631338536951
Sc 1.5803945558453552 7.8139425551472455 5.033636169485247
