50
Energy = -264.17584561 eV
Sc 2.4169269177566477 3.7120274857809923 7.557378339188476
Sc 3.984066500527226 4.91671257042032 5.198824925455403
Sc 5.161789998598578 2.206823839206076 6.724031407162299
Sc 3.7978791706041206 8.101112468067093 4.4019907695100295
Sc 2.2057246648879003 10.045933788860525 6.118936888747151
Sc 5.351327704396094 5.956288249689027 2.621101538124326
Sc 2.4234719199638177 6.904162384165502 6.877646964836445
Sc 6.807008257173761 3.8733482311419545 4.466902986192203
Sc 4.049572820721336 2.6280991533943143 9.715378560203186
Sc 8.282450478655692 1.884642796113474 6.363680577229848
Sc 3.0829677858083926 5.775188094661244 9.806930528061073
Sc 4.708721849050881 11.154195595928723 4.164897373857175
Sc 5.234448549717179 4.71540823564106 8.06680014691056
Sc 6.389152396969755 8.83611024627056 2.7805400345113767
Sc 7.2199950297592554 2.5426327334168866 9.14956979257755
Sc 2.5735343985815313 9.091049153244983 8.990228921178106
Sc 3.6792466462741387 12.35676390713678 7.5853541255842405
Sc 6.3320988804965195 6.888203404247339 5.384589580495176
Sc 5.039412349656691 10.029834890960446 6.782369324219877
Sc 8.358249262007181 6.244877888234948 3.1886706893508867
Sc 9.855701794190551 4.20925694752372 4.904009249961479
Sc 8.02576760542284 4.752064659473526 7.178655474594603
Sc 5.022229874676567 7.658956251216979 8.13362721708102
Sc 9.446060675314833 7.348379750451344 6.066856373513733
Sc 5.934900419862144 4.780268317207871 11.095400499287713
Sc 7.607413763827391 6.73404411732348 9.488839689221294
Sc 9.358249665261958 8.966580438256127 2.8917318778951424
Sc 10.449628007198623 3.376850370916225 8.15240511632197
Sc 4.8382085989263155 10.540736259740084 9.869501623969887
Sc 9.040831888426526 4.3903775543498185 10.763446654952634
Sc 8.134036950563688 11.728561015981482 3.4928845389341125
Sc 7.89814277334567 9.512102462570994 8.347897377422091
Sc 6.4367174424558335 12.667401517328308 5.946037823949713
Sc 6.880807981145644 12.30255896515153 8.844615800480364
Sc 8.09873914032862 6.825489889108329 12.374356475104001
Sc 12.095686989968348 5.192714577614205 6.40868237667367
Sc 7.628606197166976 9.794544588120575 5.330581760682263
Sc 5.080731960582703 7.783033367406807 11.162205082006931
Sc 11.508249800227068 7.073702852309458 4.0991630701938595
Sc 10.626380360889359 6.43756724984242 8.74596929435106
Sc 11.32759954377251 6.184033521240392 11.73792093856822
Sc 7.358846651574379 9.897001997597412 11.2892359750875
Sc 12.982617298203087 5.1707376591528735 9.337018953396221
Sc 9.68572881440716 11.52313426890921 9.998437672973704
Sc 10.84483022848961 10.074545609499493 5.018618182926708
Sc 9.226646762837106 11.977447396245658 6.872660048459071
Sc 9.915944840251735 8.59730483236164 10.768428132273373
Sc 13.01275420876531 7.908388202963096 6.79626149074463
Sc 10.856743269614908 9.528744658780386 7.9663741266577
Sc 12.856303236822693 8.163890945669626 9.969863400201524
