52
Energy = -271.2208397 eV
Sc 13.901628925239397 4.780458043055472 10.492647776496527
Sc 12.792276402573862 6.719031576538361 8.329671438490918
Sc 12.909846054348433 3.8450435274918524 7.904912474862436
Sc 11.447990050013383 6.354639810215937 11.039351686638812
Sc 11.41772848007103 8.706558469002369 6.283718752791241
Sc 11.226342876322601 5.508452536647328 5.674590752223295
Sc 11.109394100895168 3.3679648818360777 10.326575820644688
Sc 10.488428889603725 7.771916233778938 3.5298090197675567
Sc 10.408830909229584 2.3668852318644023 7.196503280345363
Sc 10.086815052035947 8.298305784487733 9.082156958636366
Sc 9.786165834678599 10.73757022987597 4.269169137794449
Sc 9.539433757449942 9.768233141524396 1.349317342564349
Sc 7.973593905328598 3.977303351203485 6.477979757973762
Sc 10.163747942724447 5.276120527634755 8.36134863571346
Sc 8.861660615818959 8.569258888791266 12.070901028813912
Sc 8.066110138558118 2.7787439594179544 9.205256296127098
Sc 8.368549572483825 5.315167216740643 3.883153630942015
Sc 8.793556749417117 7.3642018910883165 6.256478515681775
Sc 8.888722826168372 10.36736039163766 7.172364096259891
Sc 6.408844733455055 6.993825914757663 12.488522885875607
Sc 8.53135867213189 6.976079973427218 1.248382963148517
Sc 7.510429455979914 11.69279261243836 2.2794457082850283
Sc 8.461906470252638 5.669041376323912 10.7599726101313
Sc 7.477773536127926 8.858015191894827 3.6134876879091467
Sc 8.623944296337411 10.92059885553535 10.302493126908773
Sc 7.553667280897281 1.152339383874437 6.561201472583907
Sc 6.006471501903902 8.733366356538102 6.622568795920471
Sc 6.54791711385176 9.217550297505914 0.7199305126680735
Sc 7.059657173407361 8.388263547878724 9.614070103764323
Sc 5.886046211345193 9.950444381021612 11.550612215000077
Sc 6.318778327886526 5.7787591344468945 8.32439118965245
Sc 5.7372855609413635 4.294580960893353 10.838351968020472
Sc 6.219928970702286 11.318187669625837 8.488099125047539
Sc 5.788919168799099 6.599808701867038 2.470373786767796
Sc 5.812155535590442 3.1747875326493533 4.417915361766993
Sc 6.8979376468790035 11.571227845185028 5.27205588177316
Sc 5.530232330563028 5.758430896708129 5.401617510893147
Sc 3.389642719033438 6.85119309933524 7.355365323506605
Sc 4.306202381640852 7.019840638862223 10.44139030723784
Sc 5.335403145728656 2.984312256260571 7.663673041223517
Sc 4.049700782512065 10.925308144378883 6.1111408848240005
Sc 3.3543572663955374 5.0922732366779675 3.402284131657159
Sc 4.90523943408018 10.485007057761543 3.1290494534576085
Sc 3.858226505935852 9.513105144942399 8.846926591235128
Sc 3.1149617668564056 4.499953682518857 9.240241554167165
Sc 1.5475225360486262 9.11832078710247 6.676755058187122
Sc 2.9736714550198555 3.961236179437612 6.080969638581785
Sc 3.7451062528976733 8.094040520597893 4.527804403670644
Sc 0.584630938863884 5.03583986074979 7.719300832407899
Sc 1.2805588710851414 7.486762755729011 9.33964666403279
Sc 1.1551517018905204 6.45057715077518 5.259423406289488
Sc 13.901628925239393 7.484186690770304 7.261609495646009
