53
Energy = -280.03451417 eV
Sc 2.6971779467049846 9.959230798124134 10.212781024995595
Sc 1.2647809143003514 7.068601642209045 10.097920925920898
Sc 3.0851901505188772 11.711100663318348 7.576807690175365
Sc 1.4005244189522763 8.787548738701009 7.637498540802229
Sc 4.862285652893649 12.226586434804691 10.01961017856002
Sc 4.204237400697297 7.222515703772287 10.908331092010384
Sc 5.5498698799539135 9.833954879529463 11.881152900035428
Sc 0.9939901034226762 5.565308780944356 7.5082239201222265
Sc 2.085637116046957 7.042649770426822 5.082982360434679
Sc 3.608296259100003 6.776661230978736 7.895447730635313
Sc 6.937096462248927 5.860890558319707 12.257334157036555
Sc 4.0252991327790335 9.378324247697845 6.0023641675755215
Sc 5.234977366740375 9.551506980424273 8.793381740528869
Sc 6.069529075653631 11.953655785897496 7.076512263596687
Sc 2.923060808135831 4.436622513688294 9.69632360033673
Sc 5.079091391126289 11.723430999551907 4.233031173211351
Sc 7.7888170296550365 10.948529463050988 10.078912040426415
Sc 7.236538073396945 7.813953507892075 10.174350926122402
Sc 5.852724552008453 5.226524875604058 9.396649482323163
Sc 8.586163272866571 8.703046441603776 12.459983739058197
Sc 4.913568062221638 6.550381636453125 4.849009888999825
Sc 4.162065038867877 8.994423641243865 3.0108899955470996
Sc 3.819278684257989 4.0715010431127165 6.601024476144574
Sc 5.568073264242171 2.3688997476313456 8.795255725894208
Sc 8.260669530978184 11.868604296990489 4.824395819990339
Sc 6.6845208563910905 9.244472438136173 4.723924327005549
Sc 6.70134896053999 7.296437337165517 7.133558192950745
Sc 8.203405277001398 9.882309093541743 7.249478549842417
Sc 10.03744954245565 8.696445875472254 9.504680992408929
Sc 7.202591417377121 10.032283681181287 2.131596120819099
Sc 8.860235325276456 5.65202025624185 8.58235077723769
Sc 6.850653322514201 4.294967787203807 6.596751328261342
Sc 8.21173049924974 3.4014204110198274 10.445521465894407
Sc 9.815999375425148 6.087708045221137 11.25474775756882
Sc 10.047143098551025 7.4999321251456434 6.646054777640847
Sc 9.847509713513931 9.331981325162449 4.287787129949023
Sc 8.12466587112659 6.552939278199823 4.41925252165681
Sc 6.346567632427666 6.941842796936055 2.0432651359145373
Sc 5.8629432591038375 1.642934089460816 5.853210626394216
Sc 10.918936964099347 10.55585080336723 7.03772739005127
Sc 6.063231388213495 3.9899268986298315 3.6883034759794344
Sc 8.512940938322599 2.0503357525483272 7.649604174783246
Sc 9.188771743314863 7.692455316567796 1.740556243577921
Sc 9.823826246028688 4.42224525806576 5.8681193279301205
Sc 12.042127214568556 6.605720064524381 8.692117705612462
Sc 11.034646610489975 3.6462950318449625 8.74606311341158
Sc 8.555247249160578 2.229706826231647 4.356551937800615
Sc 12.70222900529699 8.24074035250739 5.859360576853117
Sc 8.847205297616998 4.6298259281933944 2.343857880179943
Sc 11.247681914183504 6.447309377127653 3.729055243852734
Sc 11.306463162194804 1.9232142794262483 6.1137362641421475
Sc 12.644085381049122 4.934039847539765 6.197442751010345
Sc 11.460959002147863 3.421773875260313 3.58988746235131
