50
Energy = -264.37664104 eV
Sc 10.749894486998862 2.723624619403819 5.202537959243957
Sc 11.459195983458724 4.903504756069449 7.458640613291011
Sc 10.692528689150521 6.178813146684471 4.589411770797547
Sc 13.15389742082433 7.381760220669131 6.509361247725799
Sc 8.731174883493305 4.263510546698547 6.08026002231216
Sc 11.574377130146257 9.584071799355014 5.093231031998755
Sc 9.71831342530106 8.657002004483282 2.890508716485837
Sc 8.113251474339814 4.308905484992914 3.296633129069939
Sc 12.064356993234249 9.701801094069147 8.525422715906112
Sc 9.657808665439369 11.659609946518055 3.700375730789209
Sc 7.29291407871846 7.251784080990895 2.0335781341061634
Sc 12.6402749175514 6.94041588104684 9.462208947519937
Sc 7.034180074898688 10.47004908197141 2.7660494196949825
Sc 9.548592699948903 2.6227361361100905 8.35067074308911
Sc 10.751409806507905 4.767796726965678 10.508757481560563
Sc 7.755720575694699 1.7494489987573005 5.612702236779084
Sc 8.591709963074436 5.629181321354434 8.542853422307406
Sc 7.031785701453938 12.20790026172617 5.291705535306147
Sc 10.271557208978697 7.761621957855568 7.094864066833232
Sc 10.021990440593335 11.489089438507326 6.994265963358741
Sc 5.734894424031934 4.154892175073891 5.602786588593503
Sc 7.561385656423141 6.77044030581739 5.072939614981675
Sc 8.446653819746686 9.627797620290714 5.272028989931171
Sc 5.168309534644718 5.6012019497345795 3.220694001021412
Sc 9.73520405359814 11.138005029386447 10.177491711974389
Sc 11.61318561254471 8.802088492478749 11.918339086278245
Sc 6.876127440438053 7.2310338455127505 10.639702496955582
Sc 7.759702847270132 4.2776993238052405 11.145756874714946
Sc 4.5258275862707835 11.847811181147538 8.014337331524272
Sc 4.192125926228797 11.206556627344616 4.788492321558379
Sc 6.5140144284928905 3.378493928794419 8.333534270006773
Sc 9.284167339646528 6.496712480031112 12.603507702701565
Sc 5.721013174259424 9.510912756091408 6.608367400769881
Sc 7.975441099240939 9.39751603477379 8.538764493537753
Sc 7.470743416349588 12.355039337659996 8.16966670211039
Sc 9.945766922276379 7.888632738363341 10.083751702489948
Sc 5.228719418307036 8.446733032791595 3.8276424575050485
Sc 3.5049835864010523 6.821388590350709 5.760744963534524
Sc 3.4677258735717467 4.234758429485805 7.612564403218411
Sc 5.656867532133631 6.404039451082121 7.774217653936047
Sc 4.761652017059537 4.958517730984473 10.398924255757633
Sc 6.507796988827975 11.345044399578862 10.670545860664317
Sc 2.836855518042255 10.26844284839902 10.480192597068982
Sc 6.163645079637436 6.50616293469254 13.22970458172593
Sc 8.319147392536546 9.336618294415938 12.305617131675662
Sc 2.805022290814329 9.619504229642732 7.208245059776615
Sc 4.938843742322916 9.06033699479184 9.372004719272464
Sc 2.7742354702804857 6.9464804199124845 8.776579811046062
Sc 3.5964372874621913 7.3675747270876695 11.633028284470265
Sc 5.213801766175091 9.42192173290521 12.51470068367659
