5
Energy = -19.34812343 eV
Sc 5.529821576370268 8.59132321629839 6.921625775385808
Sc 8.421255443092512 4.793527819583942 7.429948608189493
Sc 7.812285970160553 7.133507113764664 5.994691261976016
Sc 7.1504469448037735 6.9278381782852 8.8051881555549
Sc 8.06041357833215 9.46926736397397 7.8501372058689896
