52
Energy = -275.39594957 eV
Sc 11.367767744396227 10.07147786119737 5.891619162228082
Sc 11.66519854432137 10.992652011434124 9.007517255244393
Sc 10.64989964116668 8.62927262010899 2.8962222125580293
Sc 12.314789940884246 7.964562555053214 8.280459242618571
Sc 9.296800352304354 12.143577520142657 7.3020716573806
Sc 9.003408234967148 11.35052407593017 4.291162095250748
Sc 11.868613008926344 7.132048019930242 5.354458876054237
Sc 6.707456101741207 13.211760119934684 5.685535128195588
Sc 7.845316647478295 9.563739808004456 2.2810485184685216
Sc 8.857203304237819 11.204816010065242 10.234491249863783
Sc 8.951545885743855 8.156019050402792 5.065173205679979
Sc 9.515322622012395 9.18508710700652 8.073615013619454
Sc 9.742999232309808 5.035782968853317 4.656447668858192
Sc 11.335568559013149 5.671153230481478 10.312504726749893
Sc 10.52408726606134 8.685761324303916 10.841945090576072
Sc 6.30799421326567 12.240173786048068 8.539454258322706
Sc 12.11024560648871 4.576590178792731 7.193890482487228
Sc 5.610421386550911 11.091618821764435 3.627218374608758
Sc 7.002155811096214 10.385817181109052 6.287747332158824
Sc 8.054263358893223 6.729681473921315 2.2548755097129063
Sc 9.891595824543781 6.188113363772925 7.5294475259449944
Sc 4.110376981422888 11.50174991408651 6.42168610921759
Sc 5.982927191387036 8.145295716119126 4.295847481405195
Sc 6.749145923347673 9.286593900753754 9.203051994997466
Sc 9.53724973018553 6.6371789344012955 12.939359083016326
Sc 5.1807375267503595 8.330666522602789 1.6467354132214247
Sc 1.709757872782287 9.486362120954006 7.137793345685608
Sc 3.808055193661765 10.237759061939872 9.468865378562729
Sc 3.717331110566775 6.0712703533084555 3.252353477925089
Sc 10.193095074052597 2.305427635654302 6.111079638717669
Sc 7.4875731346596845 8.729743756473248 12.030658284601438
Sc 8.29270520740155 6.4567756047731555 10.125857929408188
Sc 9.900605102685985 3.280263296181207 8.94650937691618
Sc 3.128370380130411 8.95513259971761 4.4305978567846775
Sc 7.7479257029190105 3.997803614649103 6.8505548292738085
Sc 9.213004988260215 3.947059017192746 11.947721118111321
Sc 6.922240258909452 6.901956715116397 7.170207175888941
Sc 6.567776362776081 5.272399331731358 4.446098952979982
Sc 7.783096185971936 2.433233477937735 4.374156771636587
Sc 4.515789284150919 8.641231318422859 7.225768942750805
Sc 6.630424055714902 5.568818616882823 12.38405379959542
Sc 1.314555676482022 6.748518204156185 5.740641211159738
Sc 5.040001308244491 7.303251077727575 10.30397158737746
Sc 6.969105897856012 3.4788461806796396 9.989135247300933
Sc 7.398203321433655 1.3507309296324088 7.442653287350762
Sc 5.0281021586557815 4.92698682318311 8.394442371564562
Sc 4.988215932032826 3.027849595315365 5.852925820825265
Sc 2.4741460746860056 6.832208607881487 8.70721270930419
Sc 3.986883003524808 6.023339991151982 6.0254472690042595
Sc 3.721520062866147 4.36954963782282 10.733604165422125
Sc 4.534828647107157 2.065233069142965 8.72825211006053
Sc 2.323732802210115 4.000234237868392 7.6254947915355435
