52
Energy = -273.4472367 eV
Sc 7.035631913286096 12.818949949542178 6.826072151201047
Sc 5.020532146027771 10.850855822161996 4.7596832085409435
Sc 7.7947405784722035 10.302216584908752 5.38442606829226
Sc 6.66939881619116 8.752387211821175 3.0661551655903234
Sc 2.16244053343163 9.843701643291128 5.880958122370062
Sc 1.3607883664610565 11.800407627590257 8.073068731577175
Sc 4.279251525804559 11.623098897583661 7.382857703227687
Sc 5.718195254936623 12.24725100002557 9.847736072360568
Sc 4.30234625514711 7.916511901427049 4.940932437306222
Sc 9.247768775673952 12.29892864610924 8.92815390527231
Sc 9.887428335687483 9.722630222666796 3.3678059820251036
Sc 6.980940485676159 10.10582679492917 8.38477859244562
Sc 1.1736213326453326 8.899282415325589 8.500794902646554
Sc 8.923155274432517 6.924093063044559 2.8244964334319143
Sc 7.045729472752689 7.614296652541616 6.0313537129708585
Sc 4.224632365712658 8.636442697343707 7.901907634205474
Sc 10.141391986398085 11.969113238375082 5.908529382759291
Sc 2.364389098743624 6.446690474559485 7.01903313954409
Sc 6.634755833886208 5.32501058920467 3.9339504526917692
Sc 7.974097808052228 10.905321137820435 11.357196236303922
Sc 3.0476159205911753 10.48261685585103 10.111098200480534
Sc 5.526923043941057 9.08741771155033 10.835320054447372
Sc 2.9933211492086307 5.136318995897 4.156165173868304
Sc 9.933828351023111 9.546022689309444 7.777639866271419
Sc 4.96028022614231 5.194405490412552 6.336824602164753
Sc 12.163266297885045 9.47989570795544 5.612764828165894
Sc 9.880534722522711 7.531282598204894 5.529856604804994
Sc 2.758019978343511 3.2781815616018206 6.531619534400815
Sc 6.310678811474656 6.576156387852609 8.784353820876653
Sc 3.1814193563357787 7.087346632875537 10.190349984066316
Sc 11.79229838099213 7.304322493115115 3.310141118689724
Sc 4.847191795310918 2.718980250870124 4.42608627785521
Sc 10.898800318628219 10.261726951795458 10.52056323046005
Sc 8.128967443592112 4.71584069936914 6.735457835463851
Sc 4.326498084685616 4.3420838200005125 9.24471684550856
Sc 10.171980610668337 4.727646516799286 4.355372720320672
Sc 8.487001417087079 8.150049967365073 10.392317492292426
Sc 12.183960286292017 11.485973078188643 8.068048978086212
Sc 12.569052272822436 8.32030885432485 8.572915927572927
Sc 5.888631954366684 6.014836015948802 11.516042510472754
Sc 10.142882068783473 6.197003640315704 8.588968920116047
Sc 5.92343625013765 2.46779481860446 7.229712010638528
Sc 12.425419860920783 6.267326752806846 6.244998931154058
Sc 7.911629305106695 2.50934836321518 4.83506314763757
Sc 11.393252474812765 7.21693606691261 11.160573540298973
Sc 7.375312358478591 3.71967392360464 9.664951147219552
Sc 11.153480671663353 3.600922708966449 6.970186691050709
Sc 9.082427935642437 5.375959039555395 11.536031763623901
Sc 12.809025031353826 5.125664948465129 9.342443924300564
Sc 8.853454689010547 1.7657027089343476 7.585660287795574
Sc 10.43637849028844 3.285444155863735 9.83837564182911
Sc 11.955716718732669 4.415695530029961 12.19927127268003
