50
Energy = -263.42405636 eV
Sc 1.46753861500224 9.181140127006396 8.575552838792824
Sc 5.760124857368353 11.886629276854162 8.593181298899536
Sc 2.675578328226157 11.775439910281207 7.7030151066186034
Sc 3.825637750880666 10.066152312158644 10.358607705878889
Sc 6.950788869258227 10.008356936013797 10.855475217595169
Sc 5.134100545458691 7.995472177494031 12.432646084685649
Sc 2.8780818337174088 7.020758500827915 10.597431999601886
Sc 2.2034776259403 9.704965359700335 5.482078685672359
Sc 9.057580172431972 11.892479731852168 8.844338656234257
Sc 4.732533831603032 11.53801847210299 5.354594768529828
Sc 4.322653515884393 9.40952924005533 7.40003710453666
Sc 2.8158029671329614 6.757247127111214 7.525297829285973
Sc 7.6466313530870895 9.607498168777957 7.846825483460922
Sc 7.512246327539129 12.030468247302426 6.20626443893493
Sc 7.855339081568754 6.792369115140586 11.308419307678522
Sc 9.688933068956262 8.880529121730738 10.146760982238032
Sc 4.6251096198074775 9.548043772300417 3.0068999964471117
Sc 5.175482335277822 4.9663006206317 11.752761816235877
Sc 5.561802695202563 7.662219499182893 9.507125718055324
Sc 3.520056354447248 4.255215322833378 9.084590428074982
Sc 3.692488813794847 7.050407264340418 4.599415680285562
Sc 10.964866087883367 9.762560992794954 7.765562719648744
Sc 10.354818734404885 11.680793330082423 5.512847356877884
Sc 7.6338201959086485 10.861112117487222 3.4974879775876193
Sc 6.259053172733745 8.650362713350406 5.200845192624128
Sc 5.6038464263352505 5.94234313297662 6.681826096506165
Sc 10.638039932722483 5.622023096579374 9.889568307623803
Sc 6.4227203698594035 4.82578914258526 9.213800453084588
Sc 8.353076401046422 3.5677578225158224 10.921086291192458
Sc 9.374825814638918 8.863098369041598 5.2562668297456865
Sc 8.445261472663999 6.860896946398134 8.155778047527766
Sc 3.24110435276192 4.119812525382586 6.034901952757266
Sc 10.650414427998571 10.076073792275755 2.8029743463787535
Sc 5.595170371086336 2.2359747704080615 10.164249575436902
Sc 8.416976905065821 8.164902137123953 2.2527932259113577
Sc 5.947015592199936 6.8024269918530935 2.7076837397059546
Sc 12.367556665623615 9.320424844569702 5.155424179888279
Sc 10.892046328861058 2.40480430052352 9.634858788010254
Sc 8.181414095408725 5.9900316475665045 4.970196869654376
Sc 5.846190672798114 2.750735311198708 7.0388753394786585
Sc 9.153935594549846 3.963786091231545 7.6984513745672825
Sc 5.66547802325792 4.241968964347045 4.130736803739555
Sc 11.19818934900326 6.830465966572362 6.834153848837103
Sc 8.172596809183686 1.3487143157362527 8.626263923377651
Sc 11.005736695652145 7.0271544522542015 3.42068449120118
Sc 12.32764336032988 4.061069774490305 7.643747357488921
Sc 8.567610031057903 4.885453792981731 2.487949906518417
Sc 10.763017995343231 4.241001164601003 4.960283013752963
Sc 8.196134194302443 2.7618832267116398 4.986417982583952
Sc 10.640154284953464 1.653094036147286 6.650483520265098
