55
Energy = -288.62775112 eV
Sc 6.922672738950179 7.12100281470214 6.90017931257721
Sc 1.9683171526004757 2.537227960067725 5.68364315111429
Sc 6.6032284575124205 1.8031831088138346 9.495894907703269
Sc 2.3099134128817584 7.245222306599197 8.432386314548213
Sc 7.156468597681142 5.6005605731928405 4.07593131188863
Sc 6.971701250715654 4.9823870138572195 9.615663124743604
Sc 7.199441232600429 10.181940636076584 7.00582725460117
Sc 7.200978839537711 8.803534488819926 4.260812096478633
Sc 9.549193098567782 10.713346357136528 8.944157317408639
Sc 7.14397745931793 3.588668353893346 6.915240239620092
Sc 7.187892434340743 2.361091588488292 3.9731901192887564
Sc 5.469991946618533 7.448311695057964 9.718331279976988
Sc 1.8538441585778287 4.2068649505743805 8.582969168661558
Sc 9.705166223542065 7.0985214984086165 3.4197356847896465
Sc 3.3539400153297327 6.019090471784642 11.044763097539109
Sc 7.19542957627031 0.712227624371484 6.658358970324487
Sc 9.677184990275117 4.140866375648698 3.2545172111279945
Sc 9.825954332426235 4.828228805352893 9.072896780613178
Sc 4.4249419488500985 5.268896023575574 7.8094825571076285
Sc 1.9375518157943201 7.421143380254751 3.0350730173067335
Sc 9.30838695303811 1.912879509801112 8.726073995999458
Sc 4.359186998755997 9.289079218216093 7.673062483329607
Sc 1.8845585493955765 4.099457008485674 2.9573803136909094
Sc 6.7367910750941755 10.248133384546849 9.989766608813273
Sc 4.280127501755637 2.1145057547528014 7.585966615298267
Sc 4.557654395134028 5.730383569231181 2.104911405887512
Sc 8.550439882499202 7.889866455664563 9.228347537463472
Sc 9.57300766710363 5.481546822083135 5.9960165367753095
Sc 9.725705614483585 5.745743235193202 0.5784757300951557
Sc 2.1923693907445254 5.790616454981969 0.26330431464539056
Sc 9.59625252918303 8.58415053894895 6.320276394566123
Sc 4.621613737944244 8.984465833157804 2.241015622572354
Sc 2.213428045859347 8.920684078172764 0.4731124898778107
Sc 9.669259122056879 2.3881050153715364 5.84849852642684
Sc 2.1015021088505077 10.429448930197703 3.006687849198174
Sc 2.0916446700125046 2.6471558447514414 0.32270850633481774
Sc 4.402367331038736 7.37576185260131 5.134755359105014
Sc 4.535017575227293 2.4894335497768356 2.04801194554074
Sc 4.716190254051658 7.2899606328452204 13.114892049909278
Sc 4.566438438835641 10.4273395410931 4.977408204008385
Sc 1.9911046163679151 1.1160454946657905 2.871671520324389
Sc 4.651719921297911 4.295198613614462 13.014195838603062
Sc 4.450097540379891 3.966118521320409 4.860691454023111
Sc 7.335140206369 7.338609214675035 1.3309965496496476
Sc 7.351969725013432 5.793327346963822 12.321828894661223
Sc 4.480459419094961 0.9881357408380899 4.803660411297804
Sc 7.256627995684664 4.125637209517784 1.223407557091705
Sc 8.70998170401172 6.189751454985985 11.783432835617417
Sc 1.8408065985084703 5.682018056764637 5.818616762268606
Sc 4.2902724946958575 3.400574386734014 10.36583667083497
Sc 9.095681087940156 9.478477985894088 11.641985032544136
Sc 1.9829523887207257 8.993614097623716 5.750355971055329
Sc 6.4147478152301804 8.059885225438624 12.279030028441458
Sc 8.440986359843311 3.179812237332787 11.433933322049244
Sc 5.962559324228463 5.066599877922396 12.321828894661223
