53
Energy = -278.96030695 eV
Sc 9.601036007286616 1.5351937816401968 6.368410398864616
Sc 6.789685269223029 2.1261357478526364 5.050508607198359
Sc 6.0511085023307265 1.9305016945593423 8.022843231394711
Sc 8.517570943489783 4.0070790268829555 6.501996416608839
Sc 10.972543192495971 3.8511902027777194 8.404414056242878
Sc 8.599505621539931 2.5025727617498896 9.340591465038814
Sc 9.580118527316746 4.519231093432196 11.29770587234578
Sc 6.696720187324684 4.752138523994589 8.570288793505167
Sc 12.038507451672533 6.386114458919882 7.355407380639329
Sc 9.133368168956816 3.1938410596524593 3.622947357168539
Sc 11.247231655177131 4.373710262810523 5.2163729678077635
Sc 4.762879101618721 4.256955161430411 6.19963039349424
Sc 3.76724470155064 3.8258423402010293 9.038352283770138
Sc 12.031637856739497 6.571127637817557 10.354969027103962
Sc 9.692243778335305 6.249186389908041 3.0469680824180116
Sc 9.352770131767267 6.864011848121028 5.826046673366016
Sc 11.821027427337432 9.008315863637488 5.745984828467183
Sc 6.130587117691253 3.6069054829774037 11.111947949127686
Sc 13.798312871528115 8.577656887690125 8.5885125047261
Sc 9.229596763687427 6.453536168779667 8.95129214822014
Sc 7.330250309018155 6.419541868984888 11.304359603829166
Sc 6.952193751500613 5.2496545267156165 4.205841495008635
Sc 9.822118864061936 7.652384548898169 12.151714300009706
Sc 10.887768294887824 8.846126654015684 8.54256425634464
Sc 4.116262269699386 7.072283970934344 4.465187303208537
Sc 3.117132436832402 6.6150150274031 7.318554504780758
Sc 4.85030104674749 6.463827621087492 12.872297950880997
Sc 6.152856847844551 7.098172938624152 6.7115416412137
Sc 12.171691758623327 9.676545805848399 11.015636569067802
Sc 7.187534266397127 8.284982998281128 3.766374150012382
Sc 8.623862287727079 9.53415605361682 6.482688020993819
Sc 4.7676280996184035 6.480046175841318 9.865631407424122
Sc 6.4387119169150715 9.260643996635501 12.236553023578875
Sc 9.107803636893811 10.007152837983085 10.679598591310832
Sc 12.46298406073249 11.362954831508752 8.225357666569645
Sc 6.766403648068493 8.746941405756965 9.250163871771154
Sc 9.799574484580205 9.566102661584063 3.6139347612211163
Sc 2.3300113659374073 9.262778411153954 5.758655381473674
Sc 9.522997846005985 11.882997407624128 8.399542115792613
Sc 3.6173926510752534 8.722511150548002 11.243669153054002
Sc 5.276294684891302 9.769524672228384 5.524303284618461
Sc 4.030911066328819 9.328258900957554 8.18013102963284
Sc 10.514811354935457 11.89147210510631 5.541117593056363
Sc 6.6190687199672045 11.408708490158489 7.811482102133143
Sc 10.945541765304597 12.662921883825025 10.695276099546488
Sc 4.789038553681706 11.379943000653197 10.187577596553718
Sc 7.586387387094637 11.590614963293094 4.608594562252945
Sc 3.962432004771461 12.175168702791575 7.032367444206695
Sc 8.186061413940482 13.923435625796401 6.694586826278309
Sc 7.479774114258805 12.39588611238597 10.945193236306759
Sc 11.187676167138255 14.177451333257522 7.872981084665423
Sc 5.907426743463848 14.029794297673343 8.934257884549611
Sc 8.814624276799977 14.672216322224461 9.480972327463208
