51
Energy = -268.80927718 eV
Sc 9.181994839024886 2.478749715062759 5.366936614555482
Sc 10.25177823882574 5.390761760543052 4.523021028002134
Sc 9.595075833952247 1.3805588072622899 8.676032193962778
Sc 10.713944298814933 4.035232204215252 7.490296305918769
Sc 7.462293119276028 4.542155691695546 3.998624526539986
Sc 5.818064046387199 2.1624779223365924 4.215990265766232
Sc 6.920284142839164 1.9045875109623338 7.090851146419134
Sc 8.588966235141735 6.371432300175222 1.9448305421188776
Sc 10.501249399167273 7.604727430988625 6.64974105914203
Sc 6.533508879839138 0.9470709142172524 10.010103497029391
Sc 10.832705059676577 3.6344879216859893 10.571740480248085
Sc 8.088276217318473 5.173337195247722 6.848492105559584
Sc 8.724815324154987 2.0058726193449483 11.9130552914154
Sc 7.8700331471610365 7.489613871356707 4.599251112138922
Sc 5.267250533807971 4.713907375907711 2.0758614501275106
Sc 7.968942367623605 3.531484649899404 9.55111242403999
Sc 9.63296028049426 6.291561166465508 9.414916514920295
Sc 5.25684326736059 4.247269659435445 6.406441813393297
Sc 3.921599472359763 1.6214465216304268 6.575211987824441
Sc 3.204286527343323 3.9723536962759085 4.2748629073642235
Sc 5.896136900775747 7.534293825240992 1.717569735088019
Sc 10.549567392875232 8.566711164233803 3.7075945567165793
Sc 7.95291076262064 9.654563930740677 2.365551315285228
Sc 4.935939025418955 6.667826018251967 4.460154096981037
Sc 5.907946937079509 3.6066310635376326 11.825963690871578
Sc 4.7203033716348175 3.167304216560311 9.127776195648755
Sc 1.9763384733049225 6.39432479799771 5.410485324453723
Sc 8.551048563353486 5.1821452208559835 12.053935840753546
Sc 10.640988607519095 9.116821897554132 9.237076445414127
Sc 10.01125375262315 11.620684408752474 3.5708146161627563
Sc 8.393142021012734 10.289975463201413 5.645504520509023
Sc 4.847075961347237 9.813975054792655 3.2403734752352737
Sc 5.485138131303896 9.51126281942356 6.201268382789183
Sc 2.9826768560023225 7.019315655850598 2.5620743092220235
Sc 7.925046392714563 8.532421572713126 10.891217986440939
Sc 2.421714646621653 4.427487222187814 7.463384674266766
Sc 7.755306409215984 8.297748061241764 8.048951002785595
Sc 11.157558959922449 10.673808962706927 6.434520177786799
Sc 6.337444575667028 5.931868528645756 9.715728895514994
Sc 6.8723761017989675 12.22198316134282 3.931249748913168
Sc 4.346195758766232 7.007373740452711 7.555433059596182
Sc 3.3243852680784887 5.663027026055605 10.156497131436312
Sc 2.53468853440751 9.187694412922227 5.270802582680772
Sc 8.856084474723207 11.33403880925814 8.490422833026853
Sc 6.383044636934203 12.407805766540486 6.989195439491888
Sc 3.90129864003729 11.856836345993608 5.360579097015838
Sc 9.156336632473208 13.146213417632298 5.926211674675813
Sc 6.113748723201816 10.590108490624544 9.303432147975018
Sc 1.7089255735684827 7.668524976150437 8.23216635508066
Sc 4.489458703296 8.395993882283834 10.180268111546855
Sc 3.3511359565708427 10.334298150326667 8.050789820664633
