53
Energy = -277.58201826 eV
Sc 8.009508979195088 6.262542540420209 2.36446558628188
Sc 9.407976465465598 4.326441642857688 4.31744865656211
Sc 11.043932936964454 6.046208867150379 2.582891234841521
Sc 6.437939496135569 3.576958424371949 3.4885186790712304
Sc 4.984717784876303 1.8547751658833111 5.703441485014145
Sc 13.246762369170137 7.825005644434801 3.0589761083326223
Sc 7.771831965997961 2.7450129781712196 6.289071079279771
Sc 5.042495647176581 6.6370025874438845 3.1504297165229835
Sc 10.299447789546678 8.808937661555959 2.171503567612801
Sc 10.446047967758586 4.105246305846001 7.293416699899731
Sc 8.886528241272483 7.935889538711927 4.732480322120275
Sc 3.992083706451261 4.682724178377667 5.366126997174147
Sc 2.9424123436732934 7.614221581998023 5.423588111147264
Sc 11.580267215227623 6.533812034175555 5.479067216702939
Sc 6.100972526945435 1.036036135337979 8.375767009977276
Sc 3.931404260489563 9.596833469145764 3.181395060654543
Sc 8.200495247958859 3.2701721570388522 9.296151087545018
Sc 6.889484516668183 5.604471653330938 5.379892076170716
Sc 11.802655902653067 6.532903971689329 8.461898290350515
Sc 7.037698114995869 9.251185695722674 2.5928363398390584
Sc 11.504305930388432 9.460078513232338 4.782408202125605
Sc 3.2038967289043 2.00116883933965 8.159062461750056
Sc 8.44502261874376 6.2346646449730985 7.8691736793924845
Sc 5.441594462823388 3.895740925735371 8.062330388400285
Sc 10.149123915851712 8.91516086580329 7.623743669910847
Sc 5.746394875396957 8.69092419910093 5.233313395538904
Sc 4.883023946819572 2.6610740782761177 10.690937458330335
Sc 12.861343358579784 9.403671767358079 7.650849453467599
Sc 9.860221884014175 5.6194030472676815 10.424417646861851
Sc 9.116343377276575 11.178410583139383 4.044433944821979
Sc 10.939141073676021 11.703520258901131 6.5162648407469295
Sc 3.5651620267710893 10.565623255629154 6.039905994543604
Sc 6.055137140573136 11.66083248123421 4.5100206563944205
Sc 5.095270163124211 6.842996733597145 7.707158525174885
Sc 2.568249667996725 5.210358426267018 8.13711766805983
Sc 6.7340099790638375 5.651997251721658 10.61490301819696
Sc 7.846999021142694 10.399308147750792 6.654469559447173
Sc 11.11009059261464 8.515514223431738 10.546018315603964
Sc 2.6721491880708705 8.52328043207443 8.37314574123166
Sc 1.7957782271759046 3.182898341046011 10.456410219569745
Sc 7.9781851825227506 8.504378235738223 9.93337509665882
Sc 10.946617664503732 11.387624637494199 9.38835127891806
Sc 8.44911075127638 13.200557353338246 6.724756140143701
Sc 8.618421542261101 7.556296120839161 12.657610938135194
Sc 3.645566667587671 5.402620634398936 10.973676868087232
Sc 5.615859403651919 12.507023156822385 7.432437713256911
Sc 5.4569178996385626 9.761934482412476 8.406586145014254
Sc 4.747786559556614 7.941002657593902 10.485446925339671
Sc 9.252021820661167 10.471403374341245 11.998845682201324
Sc 5.692250568609406 7.313233374490984 13.21675438685771
Sc 7.959490365895086 11.560208298893977 9.398803254201491
Sc 6.2431956956968735 10.08832663575328 11.844958306960125
Sc 7.480303104338189 9.53219145824853 14.49899189866195
