53
Energy = -279.91490319 eV
Sc 13.263084636900276 6.925493481122183 3.994553246500394
Sc 13.309930603819495 9.498239052008765 5.257925088464227
Sc 13.079539000902587 6.920352030539474 7.156709894878411
Sc 12.251548804536439 4.424365896999996 5.558916518591764
Sc 11.066932568174888 7.211282711053782 9.839807335545347
Sc 11.684605774541739 9.606124980327655 7.993370871196241
Sc 11.019888995091499 8.982380588506139 3.005694802822849
Sc 10.23313315331852 5.349488217731763 7.420154317901866
Sc 10.768235641553195 7.983522244681387 5.639822102541876
Sc 10.525684486852999 5.791410066335542 3.4356753906478867
Sc 10.771039362451912 11.129158982367064 5.263688287909132
Sc 9.344756004294961 2.3857712598510616 8.067413291181673
Sc 6.7108703888567165 2.0033346278607835 4.391816926797709
Sc 8.571250066853635 5.306175657879999 9.944187074384084
Sc 9.393009783745521 3.3654621428759723 5.017078062907815
Sc 8.77256508721293 7.905712211945548 8.125952267979994
Sc 9.522440250702466 9.923935055027487 10.477165827517066
Sc 8.589549609250918 7.574559331339291 12.20353194889136
Sc 7.570948895221393 4.488986068311307 2.6972285524687067
Sc 6.252028555861337 1.227463950599459 7.260820881173355
Sc 9.034610924876139 10.905556264047624 7.7203851768497636
Sc 8.151278689616285 9.615546561786957 4.954053110823678
Sc 6.33606465992766 3.1508493074149224 9.723547110281434
Sc 7.944842489893446 7.551366631875084 2.7263902571061243
Sc 7.305662044815762 3.9889023057094737 7.0604227452289265
Sc 8.12224146287677 6.249970145210588 5.343013245268541
Sc 7.320689399898193 10.576139716486285 12.560955243680096
Sc 5.9137157598436785 5.817726758557385 11.509420478747662
Sc 3.703035756632112 2.049596311173418 5.056305550647938
Sc 4.701906489029952 3.0761375942085523 2.308087177178949
Sc 6.634613947886769 8.67921914818157 10.3689036292452
Sc 5.338471093429992 4.583247747202302 4.732407187638991
Sc 6.829354437875572 11.702577444301928 9.59960812423999
Sc 5.66546036451756 8.330378592785298 13.249297469374996
Sc 5.940944217673804 6.269539006811027 8.334149927120864
Sc 4.365684114711635 3.4684075017210647 7.535848270467692
Sc 5.5982208703805885 7.7268576798245014 4.972296550689113
Sc 6.290690869670486 9.609457321851771 7.328837763253699
Sc 6.855543933706652 12.29847378352507 6.293768072798038
Sc 3.4225964937908353 5.003624897758949 9.797051337306419
Sc 4.955986919790739 6.174013051271827 2.2915055858606803
Sc 1.5150441963380084 4.111399615561353 6.8742967229698655
Sc 2.4545203221521286 4.773881751567893 3.8485067063044966
Sc 3.346472699445623 7.478618478442298 11.434162350688217
Sc 3.368182665436993 6.332928121099514 6.389923779922288
Sc 4.432375763505186 10.504268316056562 11.227859629649302
Sc 3.9512201277980217 8.531862061111994 8.876833891319123
Sc 4.183516232883128 11.560731752475554 7.951768569719459
Sc 1.404961803822913 6.914370475897668 8.535032274122315
Sc 4.659621724905008 10.554725080962745 4.907342041321879
Sc 2.811961295389632 7.947369604729597 3.7451683897232555
Sc 0.584377918258135 6.727207558829682 5.5514448296427075
Sc 2.413579238935824 9.204315085927258 6.451113136629019
