50
Energy = -264.15487867 eV
Sc 6.694124733750876 1.0807682765327091 5.716465806198116
Sc 4.264579190870953 2.945785341551429 5.321712000267614
Sc 9.202596931420148 3.277641939432236 5.329032296319853
Sc 8.695408858616483 6.100105988870947 3.6622663443785166
Sc 4.043046189747382 5.013866918933731 3.0078095526172195
Sc 5.836586587186639 1.6914937201721962 8.839293331933797
Sc 3.5211861821576544 3.4862064955752725 8.284272712784976
Sc 5.348914171364878 10.409943536290994 2.4141814529320995
Sc 5.844050421471249 6.011833275026455 5.115610109468212
Sc 8.547619853310406 9.518232776225169 2.4672786048155344
Sc 6.56524241720835 8.965855950226963 4.423506861671407
Sc 10.97452923935055 11.466333968417565 7.808368346843777
Sc 8.665084308093741 1.6426320046932787 7.959706173026877
Sc 2.963707127302447 5.4736160946991905 6.068837826713444
Sc 10.69198175823539 3.8485907153958356 7.953794342034727
Sc 11.29535186103544 5.9357291386108395 5.368077542892611
Sc 7.817498593299943 4.0212719274995665 9.65944622369638
Sc 6.6298449100330945 3.7162081841073737 6.89901266024318
Sc 2.643305771534551 6.298534488923913 9.458014381552003
Sc 8.764428073941922 5.934862214425466 7.0046612138926285
Sc 6.664770029839083 3.5125503640836566 3.61617943392278
Sc 10.404938726169322 5.428972540564284 10.569858671511827
Sc 7.760319872662732 5.828956694390535 12.318876277938454
Sc 11.288680898478058 8.275655782709192 3.288048003213577
Sc 5.235656876223741 7.327400742423301 11.384591229373706
Sc 4.986917244592126 4.234901545380761 10.826905074742877
Sc 7.509200576239076 9.16276535795408 12.459273071158925
Sc 9.329960609297183 8.370594408567884 5.395820525887736
Sc 7.834321787594929 7.090080967415962 9.782455054919419
Sc 10.167375940967421 8.156013222738794 11.557490343099394
Sc 3.7595108311355707 7.994991450712749 3.9274041659540684
Sc 5.152351195852084 5.9755180918361175 8.429472989458308
Sc 12.419412129153145 9.290822656652953 9.680781058511036
Sc 7.177327491053203 10.119786603477415 9.732624114102666
Sc 11.793819068345869 6.603239778643459 8.26375532584293
Sc 6.105814363364738 7.182052197584681 2.1361551576894118
Sc 6.323341569891648 8.296265463120061 7.207844993675101
Sc 4.265805485682849 9.169149645491046 9.270284647718567
Sc 4.832414013684963 10.571500596411244 11.77921861651808
Sc 12.135571801029498 8.965866202918997 6.36833436078934
Sc 3.2085495453754294 8.200455258106805 6.824868456707007
Sc 9.84174402368763 8.838863188604366 8.487431920518986
Sc 7.171525944387098 12.41685356771784 11.573018406300804
Sc 9.95224666830884 11.005266183765842 10.716666013436667
Sc 7.354567705141039 11.850136809482343 4.185372557285756
Sc 4.864246720516552 10.733810158917905 6.007739452764231
Sc 5.40027768885819 12.142272728748358 8.98600696894437
Sc 10.360681234996468 10.99958385193814 4.666012757514766
Sc 8.37851171972955 12.948750216441919 8.877670468608853
Sc 7.995011258243617 10.835484140832458 6.854541974373479
