52
Energy = -274.09059966 eV
Sc 8.766443951742078 7.105698884617812 12.758717252376853
Sc 8.42943068462819 8.24597015711409 2.7852426775863868
Sc 3.102418327264502 5.982690139229941 9.34789997372917
Sc 2.1849835024289 10.888894223625078 6.64767410973174
Sc 12.444888326736576 8.332202514137109 8.917872244480073
Sc 5.596269655032446 4.819783633840792 8.684641778305872
Sc 6.286222973470212 5.547356409700812 2.8522756624549794
Sc 1.4477839963991421 4.634665594786268 4.93623790243729
Sc 1.5313377983955334 7.908148047495608 5.529925089674411
Sc 8.783707069161334 1.5871764159232984 9.188117885057581
Sc 6.843943993394183 7.126181109079176 7.310960076144761
Sc 9.840956058699735 9.614241846009232 7.85366084290607
Sc 8.84150401473056 11.785775160393674 9.97991871728276
Sc 4.1294344200435615 3.4081160560510275 4.366685210148948
Sc 12.752104786213293 9.553078856441477 6.353213198963767
Sc 6.672488284058336 10.797828176471443 3.3609283672716677
Sc 10.69888644372602 8.211809751511193 5.034767484295141
Sc 7.222655574879896 9.573695301233466 11.597972611364687
Sc 5.465838266550755 8.430810263624679 1.737173032336736
Sc 6.255183146849817 2.69599410323072 10.569560498032295
Sc 11.29169197197377 4.085247273270515 8.754835824177237
Sc 8.422625912336198 12.256325075744043 6.970195628094114
Sc 6.876968510836074 10.025055951520157 8.580789251187577
Sc 7.9414367367576375 9.535976446082042 5.655602187480444
Sc 10.340664010605423 11.187524651968122 5.004833018277978
Sc 3.5455420509248206 9.760997540625219 3.983553011043094
Sc 6.186210676571588 5.741636540748165 11.52792828758445
Sc 3.3292450183361906 6.529591851115474 3.281021334130127
Sc 11.512811821277507 11.63499908771629 8.344928783812716
Sc 11.007462586139244 6.426781633176151 10.761720514175552
Sc 5.7794881809087295 7.961248577226456 4.536206232040962
Sc 4.0230354982775705 10.93551410551724 9.143788558558644
Sc 5.272526437330259 11.231575663224378 6.165386845643487
Sc 6.085967090344812 1.9542221221308904 7.602117954327289
Sc 8.609965665053725 6.122530272799845 4.888069630394445
Sc 0.8620032547124691 5.860498656498058 7.559742499933131
Sc 6.630325004541339 4.202061157515032 5.643038164653842
Sc 8.8832706441691 4.287176236722287 11.078256310390032
Sc 10.688936918695825 4.067003426884964 5.754978789002189
Sc 8.383214282337205 4.205517953770799 8.072762200933543
Sc 3.8480004838300075 5.836209042201438 6.229493501891225
Sc 10.105900363733008 6.613834873056256 7.659345699231318
Sc 4.064226305183876 8.692021891732072 7.131705193483473
Sc 12.736753777194119 6.313875508979481 6.360523090088526
Sc 8.63380352872681 1.8100396644490795 6.10718332068522
Sc 11.048905478672703 5.8402300663828095 3.3294225769338563
Sc 2.997679598170749 3.4113379390977445 7.488295890951477
Sc 5.075692965324062 8.048486550206093 9.901384341449099
Sc 1.7004881424638623 8.679561072118025 8.794513009403373
Sc 10.302795844406992 9.366534744885833 10.984589784040653
Sc 8.231859063833578 7.333146391146077 9.907890683557552
Sc 8.776998129917011 3.566080551507439 3.4527809921748593
