52
Energy = -272.62993379 eV
Sc 12.448521612069584 9.37464228014906 5.952002561614315
Sc 12.09349220321679 7.085491383113647 8.10374804077137
Sc 11.176888346432788 6.789211063433046 5.028160766106676
Sc 11.024215995214252 11.87067937119828 4.832644102859703
Sc 9.99123867223121 9.51156992507957 8.137331849435578
Sc 11.689419419490486 9.422163856387085 3.0965519308283476
Sc 10.74555063445966 4.21256754466103 6.945953514634529
Sc 10.347236527127599 1.8920639191079207 9.02034402540517
Sc 10.676184768456093 4.913068336462831 10.097947542941865
Sc 12.076548162844258 11.67020631253068 7.847525780563998
Sc 10.063852453485008 7.833998571313678 10.492442453868296
Sc 10.15162154691953 11.556587936279875 10.182767919038938
Sc 9.586799172540799 9.410262977871762 5.1906762450594055
Sc 9.371186986751573 12.41602687129341 10.919058384225389
Sc 8.016062882867699 2.5541825499321957 6.298424983184026
Sc 9.049112226121148 10.790883179290066 2.5698912069511155
Sc 9.303927472127915 6.686123472028109 7.512481541146675
Sc 8.884695774470494 7.67288105872193 2.809782351447259
Sc 7.975380105645035 5.721104707052666 11.80774650074379
Sc 8.445519902983394 5.17986667707374 4.872898607577266
Sc 7.145976953554178 11.284601333337303 5.121631498004048
Sc 8.55894945818619 2.4931192572687966 11.374978276845601
Sc 9.175127602637787 12.239962269816 7.345628686179672
Sc 8.222380100176418 4.120952845456182 8.918085139173465
Sc 6.835230053949007 9.858611288083768 7.828655163260128
Sc 7.581135509086671 0.9371268237624288 8.844215302908006
Sc 5.996618323861457 5.015945786467389 7.10989912727726
Sc 7.765616593842812 9.834375882639252 10.681776045266659
Sc 7.090656737893889 12.41602687129341 9.619520897836049
Sc 4.863545676881165 12.040633846783736 7.493273633508809
Sc 7.117291258125744 7.0535421113329395 9.425869165140956
Sc 5.763717712510206 2.8988839657772694 9.976967313141635
Sc 6.025029806057691 6.282579602302393 3.2043502278153526
Sc 7.066333865006832 7.871253810674679 5.596240284502421
Sc 5.57614921675967 8.082344380303145 11.78824879426763
Sc 4.972224476915004 5.496196178524027 11.02721125434377
Sc 6.34319003501294 9.243070499862919 2.9594103118936275
Sc 5.448361486389808 3.694914537173225 4.4374121621234615
Sc 3.3962730621839903 4.491120131598083 8.783500779799839
Sc 4.5095064713770325 7.616154796418404 8.409696858008664
Sc 4.430995239458871 9.714993299086071 5.620567408838296
Sc 4.700668310834956 10.329726924127504 9.985398440325739
Sc 4.993276843860617 2.1783673471526948 7.089074011146702
Sc 2.3894907496766598 9.59513158064355 7.917958791892799
Sc 5.0330971380175455 7.205065520677692 0.7181972738900897
Sc 2.657074822045698 7.6062478457692855 10.491087366917288
Sc 3.5038046703116805 8.478532322176191 2.865047077504051
Sc 3.068972240767185 5.5849606741295 2.819809083069716
Sc 4.154282466717268 6.775044035891195 5.375104531067734
Sc 2.782703321467528 4.310944552585916 5.874285112728347
Sc 1.5516197375326326 7.850031373635298 4.977114935533146
Sc 1.7273790961480808 6.657212047438469 7.634469946386993
