54
Energy = -283.54362069 eV
Sc 1.8668004442058326 9.945816443535326 9.341183992825087
Sc 1.6775647671955247 6.893345719236237 8.924895981768403
Sc 2.4816916813217498 3.8307942318176003 8.376345423651083
Sc 2.835995758886147 8.127994299219637 11.471048187028186
Sc 1.7280895085295036 3.418600372899864 5.500570440245797
Sc 4.226842291937646 11.358907303054911 7.902556033141491
Sc 4.6119325201919175 10.563439233926943 10.98484594406657
Sc 4.088263808518523 5.501626961448949 10.609871684032576
Sc 2.2393225671554684 6.287447049038383 6.134871525462816
Sc 2.566952895058475 9.184229480089627 6.4674375209397965
Sc 7.14871111471013 2.587575397585464 6.986827965414983
Sc 4.357366278455582 2.2604343994911007 6.246804993562471
Sc 4.351041478979897 8.312079289225059 8.7691279808351
Sc 5.770604541203688 7.730902695000529 12.216340771869788
Sc 5.607096665283993 3.203580811201312 9.474854794257336
Sc 7.162655945714977 9.114921879358846 9.831715231114456
Sc 4.134226144495634 4.8749567079545955 4.362516826195345
Sc 4.791484541658878 5.13782599139129 7.364140406038745
Sc 7.330169401956075 4.880675354360469 11.79470884818904
Sc 3.5621419679433206 7.932485915154237 3.6221995459291976
Sc 6.945085014190534 6.150415588416122 9.296755992232809
Sc 6.866983105745582 10.026418957464182 6.958017661693278
Sc 6.667397000233723 12.086172800153715 9.51904115882325
Sc 7.563830681079322 5.408517280671586 6.1502455976874275
Sc 6.97908436586256 0.43637418766208413 5.119315475758314
Sc 4.671732926298565 10.787515441820828 4.956635758041121
Sc 5.378781237358488 7.677985035141999 5.738954011883954
Sc 6.716022776455485 12.86955188348666 6.477002659079049
Sc 6.601101561215046 3.2626514710445043 4.044843616368506
Sc 6.532095816418276 6.399743661782718 3.1293119056801273
Sc 8.66429582032794 7.659547904386069 12.053037664156898
Sc 8.788680803591083 3.681569493162892 9.168660246841709
Sc 9.284099385762081 2.5726232294696287 4.988467658606324
Sc 9.108385326850648 11.394063616984472 4.926484735042768
Sc 9.141228858610392 7.822262555089035 7.590156927215133
Sc 6.47132203204559 9.484940510214063 2.8498495235034693
Sc 9.172447272984913 11.462900200015309 8.114546828220861
Sc 8.628809760762074 8.267777232719602 4.688540763767543
Sc 6.79678826784129 12.421665301919505 3.3869004210128244
Sc 11.295196846972816 2.1806755054391758 7.243620532979125
Sc 7.757067967271901 10.540204575998986 12.102940766960694
Sc 9.953097548465117 6.197036813996868 9.984301799985358
Sc 10.482941463868892 4.942687564439123 7.041902452851806
Sc 9.419017151309797 5.386164342553498 3.7189095701068107
Sc 10.185750396118124 9.32347270948173 10.032146435142208
Sc 12.065378725343022 4.1213855060864555 9.526527056840433
Sc 11.129080060852017 9.740763716324777 6.6010361634744354
Sc 9.00651947123847 7.914134889429366 1.7929037105842538
Sc 11.990906326183435 3.8019619048877975 4.58710534974619
Sc 11.109121782245092 9.442303018711549 3.402081269064024
Sc 12.265717527930706 7.194011306689698 8.369012059857418
Sc 8.992253520070214 10.914555628069005 1.9290748158631263
Sc 11.53700591298653 7.016759693647359 5.268049404929568
Sc 13.439969306564961 4.503472671859529 6.976507525639664
