5
Energy = -17.43121824 eV
Sc 9.955132654109432 7.554261389014263 8.521088671065247
Sc 8.578586581674777 10.187981626910718 8.343716834927772
Sc 8.336387931366593 8.76783944908468 10.739668803256837
Sc 11.561749459029485 5.689925245931565 7.4295589266487365
Sc 7.231900800173102 11.379163759076423 10.511430731876109
