50
Energy = -262.3810578 eV
Sc 12.495516912239355 7.183940862043056 5.645838105576262
Sc 9.94650848930062 1.8576881566683148 8.788574552149276
Sc 10.974129484290353 7.290718048152732 8.274614685983078
Sc 11.046891965772373 4.380962972522806 6.690733567882043
Sc 10.183304729009514 4.728481392433063 9.832845157438891
Sc 11.386299762260144 5.604752463856353 3.4770443836897025
Sc 9.765709471700845 7.5701259889790355 10.898239917988326
Sc 9.468598161448362 1.1591922576706875 6.028801825501155
Sc 10.503079295456088 9.588756789577188 6.469980633333101
Sc 10.993336701897562 8.688065882226885 3.557512021868475
Sc 7.842702466888887 3.043830245210174 10.591394529168882
Sc 7.3931492386803175 5.972503843019558 11.592727379995903
Sc 10.376846787758206 10.392971578395871 9.824936323574828
Sc 6.986158820382165 1.16037196976791 8.129173641130059
Sc 9.424977454648914 6.778715022943406 5.400310985733184
Sc 9.227501566793086 3.706685422725964 4.30123690588476
Sc 8.090373154786409 3.5807365469683146 7.169953386151541
Sc 8.060917470733319 6.313074582991732 8.438731483965835
Sc 8.992819207785661 11.301873343129522 4.565520418384469
Sc 8.36464769367717 6.128060099364422 2.357652053391539
Sc 7.591080839772653 9.307514107646359 11.695378888016071
Sc 6.745485330383696 1.7232597728929908 4.996294002865297
Sc 8.21061440966099 9.253176251485963 8.57738641735686
Sc 9.226518312811542 12.098547711800784 7.645186098963208
Sc 5.780098042130127 4.2062651428096105 9.01607764226364
Sc 7.149930596175149 8.946689935590843 5.655834611461135
Sc 7.255267846734247 3.1268365884314053 2.1861735844837766
Sc 4.422578770489654 5.269260576448816 11.354663898396398
Sc 8.198516910809337 9.077483296841784 2.830022433906021
Sc 6.4682239943216375 5.239407210738986 4.547951636063933
Sc 4.672105011384631 3.5444242696336032 6.4124308672005075
Sc 5.59547782701009 7.691301062570483 9.899011587184836
Sc 7.359362549833854 11.782393611714353 9.90476706910203
Sc 5.01012504736055 7.825838181562598 12.778558251051995
Sc 5.876289683741696 10.952382157027017 3.7514697074975585
Sc 5.615862515789743 7.830651178400602 3.070917028863318
Sc 4.459230849384233 3.060383152372924 3.4470347662245793
Sc 2.9804478614227143 5.408732849907971 8.547723215066238
Sc 5.224898642324894 6.66751343999778 7.017839062342432
Sc 6.582862487174743 12.127227577208114 6.428478428047862
Sc 5.161912028987744 10.041563555665938 8.038640671635257
Sc 4.017215164437533 9.034305274284435 5.109389996133345
Sc 4.737614740353128 10.4708257921692 11.050799918540053
Sc 5.278734858106385 5.2818443102136925 1.670392696833646
Sc 2.760324201698297 7.964112864687584 10.501708360522066
Sc 4.652164490342631 12.877792203316154 8.796213229444467
Sc 3.5029155149872184 5.894248617078392 4.681018591233458
Sc 2.560661490359798 8.268022131108932 7.475162280451534
Sc 3.5434655582211025 11.766686269450258 6.215335210176413
Sc 2.4318538842837407 10.853411466351337 9.036178331070062
