53
Energy = -279.7269017 eV
Sc 11.3882473439214 7.266403717791286 10.557530556224696
Sc 10.959241541305524 10.111765259623887 8.746212013048678
Sc 9.694048634135832 10.084039947216112 11.491317676551287
Sc 8.194859277360605 7.221466137158583 12.413270664809893
Sc 11.609931438766893 7.663052330735841 7.182660187509612
Sc 11.199062128771558 10.30179128043323 5.646289012396359
Sc 10.40152689543802 5.116565169319928 8.105432149623375
Sc 9.708364893466847 13.0119103168556 9.32809544644724
Sc 8.668074383665688 4.787473588348519 10.577865516492814
Sc 8.819993892047764 8.761808591217626 6.489031274248271
Sc 12.572053645816782 5.095990785392876 5.749315885298546
Sc 7.381299716832471 12.584136822277886 11.439673130104868
Sc 9.026783369541969 7.780771695907331 9.401806447741881
Sc 6.424270672942511 9.53444972724198 11.363038048465613
Sc 6.244056652818924 4.77985457128741 12.562567683118912
Sc 4.827024328777193 7.381077879928811 12.671911852470405
Sc 8.103203850307668 2.970294402129411 7.969683160744796
Sc 6.234818401367866 6.567910860259189 10.168392952138483
Sc 11.871038305591101 7.575839320254169 3.9260130377692155
Sc 9.773307385015906 6.003822184678782 5.1891609118932855
Sc 10.181263342871272 3.031777279416929 5.534563785172666
Sc 7.485024660044328 6.123719994548925 7.381972472637903
Sc 6.795394437016524 13.465178416275347 8.637303611402347
Sc 7.993608564369469 10.857966756765903 9.311004255252142
Sc 5.044044520295731 11.795217399519476 6.4804177161587315
Sc 11.3253114682943 4.55699074941556 3.088429712279711
Sc 9.292961461793805 9.102859840005618 3.434470041873879
Sc 5.791073159515873 3.1824110186083647 9.922961001319859
Sc 7.675192586322951 1.204991375395275 5.048018049624059
Sc 8.321852946758794 11.784856234323582 6.540421081589915
Sc 9.136037434042292 6.411919514140186 1.9853195208597285
Sc 4.764450356903885 11.384151680049895 9.571669035615413
Sc 7.009244260331794 6.978629427854109 4.229985929080831
Sc 4.815262559132156 4.860276058955039 7.6289191841173185
Sc 6.115409243773857 9.317310810258409 7.834127388492544
Sc 8.401957234946643 3.356065625514731 2.821450648696968
Sc 3.591514097901425 5.252753851457174 10.77308990743531
Sc 3.7914410848986018 8.234285296544938 9.66245287604813
Sc 5.16217298606879 2.0581313304892803 6.8204285191068275
Sc 7.136375988294326 4.0308907456186995 5.35717391858458
Sc 6.59513739292942 9.952349995098485 4.696591112395885
Sc 6.607205817376165 8.574044812785909 1.860427031372294
Sc 4.68588922897866 7.583463904897108 6.159420787928214
Sc 2.821950640359611 3.04695383058918 8.729299836704694
Sc 5.297664045116705 2.4543779850234015 3.6553489817464473
Sc 6.183331206910135 5.250790356028489 1.8773578391955104
Sc 2.897800557571243 9.621704269971563 7.150637909322393
Sc 2.1838424587031353 6.14452624745458 7.942176691486416
Sc 3.6866479879077816 9.802099212582112 4.190798665770434
Sc 2.5480491609682043 3.712906892736056 5.8720918953885395
Sc 4.022581300141992 7.355829818292046 2.611451006243562
Sc 4.472242881372588 5.207916193405728 4.390672308711658
Sc 2.081156120421579 7.087047696798574 5.009754216725393
