53
Energy = -281.65237189 eV
Sc 10.728373328030603 2.165004642178258 8.294033305532215
Sc 8.60109690745961 2.7759688713098143 10.330317857880134
Sc 8.25118136147693 0.7087588668602806 7.880484824687661
Sc 11.265312497024377 4.345266669815979 10.532135857764985
Sc 9.86564104546736 6.995842445774736 11.948684890868014
Sc 10.760034441010182 10.116191236493142 11.327348536672242
Sc 9.435309761485456 2.1272433960459614 5.392878573700572
Sc 11.351441409996038 4.824322574358554 7.388384398510236
Sc 11.78248722579434 7.398426994242495 9.706495763297418
Sc 8.159726198527935 3.715178204005597 7.470355818977661
Sc 9.460177870638622 12.340402680790115 9.327721249106522
Sc 5.883371367771727 2.18972563604065 8.98594336886431
Sc 6.968392891737366 5.378910333239067 11.406430280340851
Sc 10.809719555373213 7.601103209085808 6.798707600824988
Sc 7.087520497142392 8.398830019073502 12.243344321935243
Sc 10.971129214447329 10.421627555694856 7.778661438078866
Sc 7.803822238174795 11.107720820460676 11.208212707747562
Sc 6.190039378200333 2.071811320039852 5.851425156969445
Sc 9.159130992213784 5.902045732415844 9.295123829018554
Sc 9.316134136472199 5.201806367891591 5.068313973526824
Sc 10.735199337352496 7.496688340981121 3.8051660094615225
Sc 9.100943828593323 8.799485332631823 9.550442416210926
Sc 11.070729824352558 10.619002242769367 4.37687531403779
Sc 4.078191202129953 3.8086035365229685 10.829470347261061
Sc 4.234111908630699 6.870711433358956 11.234542712184052
Sc 9.06062500193708 9.262447970257519 2.278127247728299
Sc 5.534886305292652 5.171154926755782 8.745219780701309
Sc 7.2227565557702675 3.696824970603079 3.427603967583993
Sc 9.063358544953873 12.498273483285093 6.3021571285259785
Sc 5.671886792501057 5.206423031998714 5.597727153640307
Sc 7.2197891878275335 10.526764572120161 8.016269089918788
Sc 2.5492629587366724 5.789773815510141 8.820853759222896
Sc 8.929921997150762 9.559037189442128 5.53053369428712
Sc 7.506250704099761 7.293543184930659 4.025868841653588
Sc 5.064260552161737 10.35320430828368 10.599971087291186
Sc 7.733409097320921 7.200846860097197 6.992554143851707
Sc 6.267971901315251 7.872317149496197 9.49781694141163
Sc 4.499284673480313 7.6545860457854955 7.093654693684116
Sc 2.866325200046686 8.773428403530714 9.261425979057162
Sc 8.840154173206667 5.981720825013059 1.876473808126541
Sc 2.51493038534595 5.724896156422455 5.758147508729085
Sc 6.41984225380965 13.000387219392426 9.065608604414054
Sc 5.684209386664389 5.921522323502889 2.219236297214021
Sc 3.6474759431658943 3.334491010762189 7.221158514757185
Sc 6.037764034472019 12.574710355383047 5.936539099227245
Sc 7.669897620167004 11.580919343225569 3.606936517320085
Sc 5.940094943712584 9.261264212208768 2.2535989235415586
Sc 4.091369614935154 10.923298260761863 7.541228539248256
Sc 2.106976424512082 8.856992989164958 6.210384575372431
Sc 3.9047014503844295 7.687518452668292 3.949924815384335
Sc 4.108735521606879 3.7350824872753026 3.844387915691289
Sc 5.99374049388874 9.54740123363163 5.297425697336221
Sc 3.8885829451723217 10.914923728422048 4.266392511035894
