50
Energy = -264.81777903 eV
Sc 5.301521387888242 10.42789169683698 3.543068390769656
Sc 4.681859889444402 11.87854950738315 6.289216610601538
Sc 4.145998986999563 7.186717123139916 3.2177044118906744
Sc 7.612625258396086 12.83486257379883 5.245334825326958
Sc 3.737298582839231 8.874982101074647 5.731088094731554
Sc 6.2987478390566505 8.275453444472866 1.296494523559928
Sc 8.185612875373067 10.504126858925822 2.8658295722976956
Sc 4.2527057748062855 3.385698144050346 4.012618827978925
Sc 5.306702354686931 5.050946450082185 1.5497034466188484
Sc 7.000637871510054 8.01814218451372 4.118522981118085
Sc 3.538334912382197 5.792324782472812 5.855667127383391
Sc 6.924172734381918 12.14714177992716 8.408927910733377
Sc 5.5348109069344655 9.63256017802726 7.900599825175832
Sc 7.534023353795542 10.245867268074175 5.86632701558714
Sc 3.6668490958211217 7.39619254148279 8.489643749785756
Sc 9.899860510034129 7.943543008588944 3.0372463998617714
Sc 6.412707237488784 5.193567364305524 4.426035052878413
Sc 7.300365608103104 2.9401271431915097 3.0473102118202675
Sc 9.716604187433555 11.684885708471228 7.6916074680363495
Sc 9.65412399317526 4.964380898574011 4.1140609897937495
Sc 10.455594097880267 10.228710608427583 4.940813658971532
Sc 6.207048353478641 7.002057257853492 6.882278337882419
Sc 2.807843898163545 10.309880952807207 8.636426800615874
Sc 6.378756986430905 2.506161597589796 5.943283904773651
Sc 8.010628419751068 5.882371767058593 1.8453772661829693
Sc 4.417644004944717 3.679333985881717 7.762858614494823
Sc 8.441072919002227 9.165270162792734 8.449312094061815
Sc 8.330920414005663 4.718410642655767 7.015769817066973
Sc 5.0026671572351935 10.937549054097852 10.703652342610752
Sc 9.511197429616807 7.427773296957727 6.1599866965325285
Sc 3.2008219676159366 5.1929165549756915 10.311342277287324
Sc 3.3985066896453864 8.391743250409158 11.3414660059321
Sc 9.047357865752163 6.4280161362645725 9.499029161852704
Sc 12.182650182858923 7.3540763299432905 5.19880894282288
Sc 6.254968872629989 8.183183762114375 10.430858908014269
Sc 9.348012960347821 2.3226273787921876 5.885335126722422
Sc 6.150056238156334 5.306436614962153 9.402314136021236
Sc 11.50826547740442 9.300896514577953 7.555534697064481
Sc 11.328169417450297 4.629182161307087 6.466939757087202
Sc 5.14261588380065 3.0508299602127895 10.8856670431514
Sc 7.473411782288287 2.5195932060521082 8.822426538283873
Sc 8.031561991069067 10.577053978949198 11.112326374098934
Sc 11.857477486202129 6.55853406405979 8.56660128234878
Sc 10.673923334401561 8.763059179345094 10.509695213468081
Sc 5.8398857636819645 9.183316790234588 13.068766029252089
Sc 5.45814379701532 5.985733063085051 12.305936348498808
Sc 10.363737302981882 3.7324464523311724 9.186659867778886
Sc 11.024128503564558 5.790314466795258 11.524660578136073
Sc 8.46833748366133 7.432679866601344 12.313126136087236
Sc 8.154095992137112 4.300365632687187 11.463481674275192
