51
Energy = -268.58261166 eV
Sc 9.649760349518752 5.505794333887739 12.92089246961171
Sc 7.787164297176811 4.112058746034631 10.568329599841706
Sc 10.82791205151882 3.772258063153256 10.868813989366851
Sc 7.071302821062615 6.92209058916508 11.904925072795555
Sc 12.143282666204405 6.563903336229504 11.555648684234148
Sc 4.912751152490645 5.294024257044148 10.083207766083884
Sc 6.046793324410971 3.0576580614237927 8.084258054707206
Sc 9.76582953779483 8.585674504644516 12.221769053582504
Sc 9.437401801451236 2.580929648360701 8.255614003590882
Sc 3.0752418034942632 3.914269091276742 7.94065501176735
Sc 9.647745531891825 6.482297247884843 10.08678596526392
Sc 11.528231957301928 4.862849640560235 8.12574762589091
Sc 6.879062064794298 7.498589149320636 8.97869400177413
Sc 7.100909869233055 9.947141144578504 10.892145332903793
Sc 12.176969530366664 9.836195331176533 10.60446400911047
Sc 4.612103849160105 3.6353689510467717 5.30010236087839
Sc 2.3594932782240474 6.760939274570109 8.892865268235132
Sc 7.622031957552052 2.3552673729158604 5.469736027507855
Sc 4.3964752283817505 8.43526823372548 10.559305812291736
Sc 5.11404004342978 5.951181832335491 7.033290941374821
Sc 12.451700920322674 7.567357280657309 8.685152204585329
Sc 7.3221073413302245 5.034570283544438 4.630298779320651
Sc 10.280694340712136 4.239515019794372 5.5356816965486555
Sc 8.238563241230478 5.078109687867202 7.597048517272686
Sc 9.790194454015912 11.581204986078243 11.516983215049086
Sc 9.980856309425215 7.457258777240438 6.8233698251073625
Sc 12.359371377884953 6.9187390036513285 5.539201780966519
Sc 7.0757385078760775 10.074976446230389 7.541646817879466
Sc 9.628032995023675 9.621525177541026 9.183431887435772
Sc 11.113876889565866 12.296598999331529 8.987153318658573
Sc 9.053004680776432 3.4484507521425076 2.829089571740005
Sc 2.4246315962157903 6.068068032892059 5.725866831090494
Sc 1.9984453771151491 9.96672079816319 9.259846918882923
Sc 9.704716807539675 6.649892858890719 3.6223237719704255
Sc 4.97034120815102 6.62790108669019 3.7303030812007805
Sc 1.077382504846402 8.707262810302835 6.751930476346401
Sc 11.95310605232288 9.962729316761559 7.076877499856434
Sc 7.954941799599119 12.500745658355081 9.097864442332462
Sc 7.454325290847128 7.975740141957682 5.417092016010568
Sc 4.058744391358605 8.762789712026198 7.509423516764422
Sc 7.3816373342001596 5.748123265622999 1.7155464701977794
Sc 6.10866466793565 3.1744664545658168 2.6679018777656496
Sc 4.790044360001451 11.320364315625069 9.115616701101155
Sc 10.158278005548611 9.459182226995434 4.466945921791787
Sc 7.283273411942416 8.614372228042685 2.580111528435081
Sc 9.42181744002763 11.749620256517504 6.470611559011419
Sc 2.5713513131354846 8.786977945079006 4.275176722469482
Sc 6.02070205234421 12.504312482594267 6.469247801123945
Sc 2.8833437418112955 11.24781784442361 6.485798044159458
Sc 5.208749367628899 9.849191353144082 4.912572160436351
Sc 7.608113529788974 11.175304018164384 4.206152213640403
