51
Energy = -268.95912778 eV
Sc 9.666731188386477 10.752474734311459 2.513650852604682
Sc 9.031525644436812 8.166605427671406 0.8203756036389971
Sc 6.748361337887219 10.031902905320273 1.0765066917532182
Sc 6.8483469186616635 11.823880602865344 3.4512856291190652
Sc 10.538759897886912 7.780842184098661 3.2187382119157526
Sc 9.05728151870607 11.152049634887838 5.7337438689070375
Sc 11.16864095854528 8.943114688369167 5.765613755329782
Sc 7.735325788257004 9.037974830255044 3.655385771719747
Sc 10.13286977646659 9.565779984734009 8.540326065557538
Sc 9.390145104910665 5.273750980877045 2.053515753366686
Sc 4.55644942891766 9.329283049240464 3.312218058712041
Sc 6.503186531751183 6.863028170627247 2.071777069853977
Sc 5.907032911367602 10.472941581870607 6.052127336743215
Sc 7.60814871645516 11.312617415914257 8.688523281825834
Sc 8.274854762287962 8.375951804993589 6.489492522935447
Sc 10.94262371836233 5.831903685013929 5.502845476399249
Sc 11.858058952201755 6.980746849113844 8.33192965116544
Sc 11.128596205719791 8.327161988012502 11.24314798737757
Sc 9.232525113083975 10.597348769816435 11.311332048331833
Sc 6.731603600438997 3.7561603022981433 2.8722689130673924
Sc 4.534724187263153 11.320298874165173 8.866774215198866
Sc 3.9021835810537757 5.54207425614491 3.137147535901549
Sc 9.413655758551789 3.2208634684601383 4.476753534672384
Sc 8.321519808623941 7.926917887633247 10.42515889033218
Sc 8.074658530313636 5.916935007057597 4.575011929284821
Sc 3.245184291671722 9.149990492368826 7.044525467710688
Sc 5.445476466245958 7.371342166321368 5.23859227020426
Sc 9.11159817693297 6.098005932973772 8.117096311369156
Sc 10.842506828092635 3.805603136884069 7.827449459599427
Sc 10.506751913442391 5.418789142797452 10.649521790799298
Sc 8.479485382633866 8.318341972608973 13.16238601409114
Sc 2.345196333584036 7.239173135434622 5.081606312539629
Sc 6.1668364689228845 10.155120365597133 11.318488137446192
Sc 6.058040741383503 8.741010671479417 8.597963424997532
Sc 3.994337502939355 6.134295794995201 7.570297766731531
Sc 7.884313721392842 3.7577913880739033 6.929369976432647
Sc 5.247806875552604 4.190370633311549 5.462817141829421
Sc 3.9747718392797706 2.4185274132161663 3.5496889590572374
Sc 7.82732062232472 5.365810066415944 12.11605563729924
Sc 3.456188913301596 8.752145717809151 10.098074100271887
Sc 6.350718979250961 5.712930569387902 9.394642358808637
Sc 6.542324629344304 1.6089630302173745 5.213237439826878
Sc 8.306697642362412 3.4445108632909456 9.858168104731453
Sc 2.244416710084018 4.305198404755813 5.609796871671826
Sc 5.498178790249373 7.197617431967046 11.978121285959864
Sc 1.3642876581276437 6.664766286697285 8.097241605078725
Sc 3.1963068486060298 5.90280554737884 10.479967891503328
Sc 5.492202072724612 2.8931182921110423 8.393897191099779
Sc 3.593345532730068 1.7688995879481173 6.4052849227068265
Sc 2.62853053934628 3.668620339095355 8.738101081840627
Sc 5.134748902107797 3.81492091028459 11.29538748733583
