5
Energy = -17.28974829 eV
Sc 8.19635125047167 4.966956926947584 6.3259918980839025
Sc 8.19635125047167 7.685026869220222 6.3259918980839025
Sc 5.611518315144225 8.524578440000003 6.3259918980839025
Sc 4.014220357525053 6.3259918980839025 6.3259918980839025
Sc 5.611518315144225 4.127405356167803 6.3259918980839025
