50
Energy = -262.79926979 eV
Sc 6.292612848543075 9.107648758669141 13.200210140307622
Sc 6.253322575165954 6.287798050445006 11.582514474872902
Sc 8.874464704862577 4.785730222779655 10.287015031085478
Sc 6.2607241160351 3.460847277237912 9.793199440083209
Sc 3.757247417197795 10.784691514461535 13.120731689259317
Sc 8.849294485489246 10.46626584776089 12.315778158295082
Sc 6.310211163009203 0.8261931143792648 8.098452105289363
Sc 9.0372185400901 7.631990929453358 11.581086742741507
Sc 6.461515900566636 9.399519410285924 10.286210459342964
Sc 3.9312878885975207 2.6295547847386023 7.814172844172361
Sc 8.936483766186166 2.5064652523600524 8.069025169321502
Sc 6.210439614368452 11.903526929948637 11.75779878388568
Sc 3.857008436074739 8.200649409669545 11.521519932625523
Sc 11.218977075878094 9.55251079712173 10.257475939299425
Sc 3.9372653241677824 5.396129657240751 9.742203107058415
Sc 11.609791560423286 4.301345196274178 7.850309322074091
Sc 6.537777212063905 6.437111920823381 8.59195064885778
Sc 6.598183232770133 3.6891176695957726 6.750134693566405
Sc 11.067348235733117 6.61931833253839 9.671336777860642
Sc 3.7630846695986766 10.918576539667054 10.036614163289704
Sc 4.4251732040700595 0.14492516440720346 5.989745363259033
Sc 9.624979845133382 3.51929270995596 5.224211880545489
Sc 8.87473734211377 11.599321050598535 9.660253772324214
Sc 7.199576924371618 1.2656455070068127 5.271178968417457
Sc 8.966896316574301 8.634801820709646 8.678660333673363
Sc 11.691612129491105 5.866316950924824 5.246102657280052
Sc 11.074920153969934 10.516567552466846 7.207861072918862
Sc 3.9771734407113835 8.28831655584225 8.427976549503382
Sc 9.131942698570803 5.565451008576854 7.285620751255709
Sc 4.499034277410232 2.9498547585965893 4.813713333886629
Sc 9.38079048772795 5.873315132380255 3.3127488169569386
Sc 12.385542041920136 7.7706374795405 7.402926111345019
Sc 6.011718835592929 12.149869758365606 8.511773950930165
Sc 6.961455014580681 3.9830717162959965 3.4791890189383183
Sc 4.144204253245959 5.491583078436708 6.576976748780841
Sc 3.9126076879265868 10.88577254164119 6.6159361799952086
Sc 6.501889818412801 9.409089330078858 7.081923267750378
Sc 6.89803673434316 6.453018423719449 5.263821097946855
Sc 8.402387100227084 11.752407807805282 6.807909866127543
Sc 12.113845109902323 8.87042154277891 4.499852689170983
Sc 9.682209829801268 8.12516513579622 5.66541024800126
Sc 4.198753437503798 8.215294976892524 5.388248277562226
Sc 6.194297062313905 11.790088728180063 4.763568186818618
Sc 4.546897564555694 6.021769103628309 3.4218174887083372
Sc 6.980661531771573 7.341408797178055 2.1032227115915494
Sc 7.368783402633336 9.263009183046716 4.2962677994412095
Sc 9.742493991379371 8.684965594092944 2.486968594165378
Sc 9.730559414312252 11.060460413701112 4.263251358312623
Sc 4.776338736257598 9.582232524605498 2.91303492697131
Sc 7.414275228468543 10.725214749028929 1.9376117804441275
