54
Energy = -285.36515521 eV
Sc 12.262759644499933 9.627689230529642 9.09574973167669
Sc 7.886140004595972 13.688979904514127 8.243782854544232
Sc 4.109820218361331 10.675852829941668 5.452018042433926
Sc 11.623567347078922 9.086506222017794 3.6226888074040318
Sc 6.094001204719925 1.0782688667090785 8.711984978058476
Sc 2.619970491474685 8.042644511278661 10.31454205997884
Sc 9.764237183395819 8.303458602529838 8.560822631796562
Sc 3.257835126579621 2.6840324831193465 4.399893435871222
Sc 4.74139936356644 9.981593813162718 10.34160743806719
Sc 6.931149315875998 7.023877459585323 5.680722203373728
Sc 5.345741451002699 4.485423413142264 5.307146257340765
Sc 4.948552956833517 3.4180906827708273 10.545278512809396
Sc 7.586657393325465 3.187370630331541 7.188975175322919
Sc 12.403073124244246 8.349835676981655 6.40929931842792
Sc 7.6108841254762245 8.586042620393885 11.940100339674467
Sc 9.121795091736606 5.706125925030568 7.3278724387116
Sc 4.05084795707888 7.9356905340270485 7.564936563237872
Sc 6.129369430939564 6.081018551091795 2.7599643435347505
Sc 7.490344795964913 11.243338054932083 9.97812464367276
Sc 6.6046187114471735 9.806329556101801 6.7766465273326295
Sc 9.205282274497343 11.116616516887833 7.421508917291865
Sc 11.899047686842003 11.186503604471351 6.2272581145646075
Sc 7.812848496781155 2.927142162275396 10.21122111970862
Sc 10.701183751073259 12.532449739616668 9.2131392775258
Sc 9.191697783939134 1.0929323292433697 8.14740866773653
Sc 8.667256560207617 1.4984394245662942 4.95084749331688
Sc 10.724566219142234 3.2855102496949575 6.549197427668582
Sc 8.186007119673313 5.9361727493402405 10.417435357068971
Sc 5.856858265421983 5.333285237209657 8.38291808104238
Sc 5.157217563395491 12.014847973013051 8.086582412033014
Sc 10.974652626261706 7.127797037937259 10.979985244001643
Sc 8.957764346163128 7.367162212449876 3.2038557058301516
Sc 9.501197147837074 8.696451710004123 5.6437052878196186
Sc 6.122292366607788 2.8225101361193063 3.1042729900476544
Sc 9.976662743288983 10.029148649166135 10.950004442263907
Sc 12.013098982041612 6.071152650499766 8.128500529093092
Sc 6.871346075724424 8.247863537668643 9.149775319867478
Sc 5.707983474746325 1.296483114772223 5.627539207087795
Sc 2.607915350381199 5.495228168663684 6.178724169653677
Sc 3.9248846114429177 2.858989204505563 7.601044759422713
Sc 6.864153793440392 9.631113954836625 3.7806712637771023
Sc 2.3709125095804833 10.238502126865056 8.109814325662134
Sc 0.9023279985576751 7.442501764501463 8.012355356510552
Sc 1.7310255742041347 8.374086749672788 5.359824966204779
Sc 7.016335936461901 12.469664715756908 5.5546136523206755
Sc 4.389665773115417 7.86081602607368 4.419564373724192
Sc 10.447061263776671 3.980050930911352 9.546072230916213
Sc 10.08537235801658 13.659643985779438 6.2520341339284515
Sc 5.205134594065221 6.65769744581013 11.145964194568945
Sc 11.147230546653972 6.117857449297835 4.968214047865839
Sc 3.1379243907040233 5.463766656743812 3.1842612541890336
Sc 8.425212753686798 4.531717586532279 4.4721245824949065
Sc 2.8561760784138324 5.282564124850482 9.293034782362183
Sc 9.55519076104122 11.33826898567942 4.220047887145829
