54
Energy = -284.71415773 eV
Sc 12.804478287813188 10.527272124088933 5.827614395373168
Sc 12.023186595547958 7.971641940829426 7.524469246779668
Sc 11.853518129455942 10.832375117981924 8.829894322981161
Sc 10.963835503914902 8.094559430719272 10.54305591876077
Sc 10.800759995522485 5.302031052112473 9.079412672726495
Sc 11.156006104431391 12.928262599248463 6.595784782210122
Sc 10.991190404608183 8.379562062121662 4.337025725942219
Sc 10.5081565948772 5.672334082510901 5.908653009325091
Sc 9.853763422514294 2.78576205695473 7.202021096161738
Sc 10.407515566717768 11.485517868399848 3.940753719335787
Sc 10.0525315271873 10.127260284448377 6.599230192511157
Sc 9.389986601897379 3.000381127597738 3.754951101269243
Sc 8.98588715304056 7.584114509898407 8.122721214173566
Sc 8.832049501248518 3.2848106556858125 10.636076131554097
Sc 9.131859901048154 12.866736612797501 8.779149731163741
Sc 9.09046290407849 10.168577310248446 9.89671104573167
Sc 8.434608891754994 6.38021200240243 10.911424554266322
Sc 7.795023828886593 1.2577396439541721 5.7869233174949555
Sc 8.632152237844153 9.201148346643274 2.444956548939961
Sc 9.157455791901887 6.153198357241914 3.0314341260796183
Sc 7.927227399113851 4.731747324537712 8.334258965101679
Sc 8.205431843165538 13.208172470407549 5.889062461825284
Sc 8.0023165717841 7.724403174397468 5.235280667444833
Sc 7.0212545871973315 1.860243834249521 8.530170929945527
Sc 7.78796109910302 4.369817225567749 5.442665773846339
Sc 7.746663844321912 9.14351227086067 12.32642845887613
Sc 7.463371842762423 10.597870913223705 7.581197724112636
Sc 7.52088812560705 10.658435022654174 4.68898950234375
Sc 5.167418446569472 8.771503052037481 6.444970680598105
Sc 5.278251791996943 5.766181544352373 5.060289701756894
Sc 6.827747590305053 4.607621236895782 2.466188785476694
Sc 4.117629667406144 1.6360034310535176 9.403462279529894
Sc 5.744645499872107 4.302951375386564 10.454685906726546
Sc 5.838386112084522 6.813816870817238 12.466408187698875
Sc 6.32046143820281 8.414129377871443 9.781235941131053
Sc 5.814939266246323 2.295721905688622 3.887289392332799
Sc 4.889641374591909 3.2080544134549798 6.7631262897514635
Sc 6.276606032826872 11.488377437428651 10.089812641336275
Sc 4.824165937817391 10.129420931108335 3.82262262964137
Sc 4.778214789673254 0.4043452129133509 6.512156660249604
Sc 2.880180326894712 4.398463059565451 8.873328259128517
Sc 6.103244908421847 7.53942305654648 2.7700744732510176
Sc 5.08210801041278 11.872039752755827 6.57566988230769
Sc 4.658402534230006 9.585628743775514 12.001607713290928
Sc 5.2404399100778525 6.1157760260093275 8.045411134708761
Sc 3.806416241006509 4.538823938988995 2.8920948260907995
Sc 3.5533824622557932 7.148797758836265 10.418806867588478
Sc 2.08423379489506 1.8990005867198994 7.262976913060598
Sc 2.9260125101373653 1.994976694789601 4.5026892652465005
Sc 3.7374801598093828 9.943885887852998 8.892170709983144
Sc 2.4085719673321653 4.808668220405728 5.720191341063709
Sc 2.5801153188869956 10.203010661834607 5.885505934849192
Sc 3.1164394047587947 7.600582125355055 4.235686811398213
Sc 2.505965622793949 7.412797243429099 7.43658777087389
