55
Energy = -292.94722339 eV
Sc 2.0621280787183536 5.168164206948061 4.307355770699994
Sc 12.674200590509477 7.998733399827727 7.026330793323769
Sc 9.003054315286057 4.708443890349831 9.13480629699729
Sc 4.962274751657394 1.5178508220757123 6.453840248757027
Sc 9.914097551908045 7.837420634454021 8.489965148632702
Sc 5.530283007878433 4.880310329880321 11.703822207137828
Sc 7.438418787727864 7.010399084588891 4.042565720367275
Sc 6.861041639818333 9.890486483861656 11.473587375664604
Sc 9.434661450642896 3.7823467463032077 6.239460538680351
Sc 4.52245363872203 6.064430845223258 5.65299946900326
Sc 4.691974542391871 6.01928161198 2.6377743578503035
Sc 5.806955733889322 4.713991049242936 8.546671996831634
Sc 1.9060516118236712 8.399985657290616 9.658598425032627
Sc 1.9249349335814798 6.775886686588921 7.030331362560158
Sc 3.0312725536081806 5.426183683849971 9.743024023508868
Sc 6.9409719133447805 11.425990761513745 4.315973017855314
Sc 3.8555551196489293 11.152603156392939 4.2475058958896525
Sc 11.498811154292895 9.28028430030664 4.320044540902017
Sc 5.286481195841804 11.813939940048533 6.98551604703055
Sc 7.426151489673202 2.190363955216193 7.791352491011521
Sc 8.819633743051666 9.393607983561393 5.713441927812823
Sc 7.413793041146766 2.794657425938586 10.79509663988731
Sc 4.665585078308683 2.3521470907156976 9.527874643000752
Sc 7.049297001951558 9.686726022736389 8.407684110205148
Sc 11.834078206546563 5.23758008536821 7.853819272948518
Sc 10.341819870228544 6.599030208959543 5.4369747738458845
Sc 4.3151430610525106 10.444170465039539 9.685674470187024
Sc 7.168753618849743 7.060126022796899 10.285965476912112
Sc 7.624739379466208 6.467707336744413 6.9653458125301695
Sc 8.65899021411853 5.256232293944765 12.19684374926009
Sc 4.377329348197883 7.801770051008902 11.42778132713725
Sc 4.541662231827579 7.68423903831644 8.385694830531458
Sc 14.063813984056962 6.656768551767769 9.388308325848849
Sc 11.178010427601889 10.598168922973635 7.19956119489766
Sc 10.05419944049634 11.848703826228334 4.4426142123138135
Sc 9.542547269616392 8.276734323729938 11.73945171795691
Sc 9.447382713614827 10.770290670160806 9.82254510123697
Sc 8.42958078964371 12.11285360706735 7.114348402090018
Sc 5.601493604051816 9.06079878383201 2.6116232820163807
Sc 6.587546578625988 4.107596840235628 5.38412186272127
Sc 6.802062053794068 12.431718807258656 9.720638312369376
Sc 6.489096052871788 3.689415699756871 2.182862465671878
Sc 3.104262092650787 3.7771076385140363 7.02884272184853
Sc 11.352044339057331 6.127921219445858 10.67748172386432
Sc 9.020640850492859 4.449885482445304 3.3483793255336938
Sc 8.798352800383046 9.508769589374795 2.6407706949308807
Sc 6.866261199366405 7.327737556162404 13.286574326090637
Sc 7.6298794787090145 6.550006863771062 1.2878756560407052
Sc 5.531964727372989 9.070888217254948 5.648848054513749
Sc 12.245150174917752 9.000349799428113 9.928542382339371
Sc 10.410260865874037 7.03520941571508 2.478868318758307
Sc 2.8155877899509205 9.821410334162788 6.954028238265931
Sc 4.2050778723876165 3.1169844741521775 4.037467438472051
Sc 7.398146215931712 1.7108866880689813 4.459568377153125
Sc 2.9351986987159338 8.205860293315322 4.224113978965316
