55
Energy = -292.98414189 eV
Sc 12.717293621687318 5.323018915972014 9.222918512915777
Sc 12.18898302126618 6.558387969247171 6.144173617301338
Sc 12.742416006925277 8.648983016368582 8.440358509445014
Sc 11.31544299838973 10.961153529733318 7.449370630501324
Sc 11.75731260150548 7.60236513216249 11.489172870003507
Sc 12.200750479628327 9.445978845282395 4.9503492566656755
Sc 10.517371796126085 4.490587941205558 7.281302634025682
Sc 10.917444805129037 6.98827724896295 3.526550242503049
Sc 10.56560738653618 4.875934692752767 11.238044244947986
Sc 11.23318633463135 10.59970182443575 10.48256474112339
Sc 10.53306740811907 3.9336404340804174 4.153213227811418
Sc 10.402657052150683 7.019483468352887 8.888606851388165
Sc 9.286969015339748 9.033297023238916 12.23197423479152
Sc 9.75644844210051 8.607488261864303 6.00826286071452
Sc 8.673589020036239 5.655252423899685 5.2700583411453445
Sc 9.508913956120995 11.630656388177282 5.213828877913907
Sc 8.645604824339081 2.4646824798049654 6.44729086003382
Sc 9.274944468038385 9.383665700913904 2.9397232808285376
Sc 8.693774617310218 6.206047948240868 13.186447164114005
Sc 8.261127655922664 4.306732365332483 9.252114886984849
Sc 8.866082316715536 12.441007057351353 8.3340118982173
Sc 9.028901496334303 9.528205441790844 9.07591522378172
Sc 10.47173927564182 2.451100891857676 9.488049305303104
Sc 8.235802909423676 6.300504149148595 2.3329490935194435
Sc 7.9632919216428215 3.4677567702312824 11.920289851935578
Sc 7.797501485073696 6.932125921988477 10.537009571790486
Sc 7.656520963988231 11.30336847509877 11.147902146047658
Sc 7.630069261336584 6.989027252560198 7.563832515591432
Sc 6.846684404837365 3.6418221701419693 3.9846109328335486
Sc 6.30860145832932 8.643029809971491 12.559104201920313
Sc 7.152543391524104 10.44120261995457 6.73943588260404
Sc 6.942952474989705 8.1894500047252 4.3837208568944535
Sc 6.416664170339735 4.1003663549747635 7.142127010498531
Sc 5.6294662990536555 5.533316434759952 12.046067861073379
Sc 5.435820970961443 3.2119115173622994 9.777398212330642
Sc 6.990105450149624 13.354724788642361 6.045870461229326
Sc 5.932005517533852 9.328003192547213 9.55269482458037
Sc 6.7311886828028165 11.13901417399223 3.7732119606983776
Sc 5.3576209111598585 5.871812275137965 5.547103699328212
Sc 6.495741243788005 8.812007396311353 1.55120659640793
Sc 5.065611602110523 6.2447305135428905 8.978899048266722
Sc 5.750490320983812 12.284910077442902 8.78608465317899
Sc 5.116093694726026 6.25014701507636 2.681324431270518
Sc 4.518915535309348 11.01607982764324 11.505926730477828
Sc 4.545749252995235 8.575463248746763 6.67718749999335
Sc 5.213334859274922 1.8564252468591813 6.2000683368942875
Sc 3.6709851753173335 8.09368890930705 11.054318549072722
Sc 3.3790710222241844 4.333936215943775 7.29679075994315
Sc 4.380309825299696 11.517527141320935 5.976213104633207
Sc 4.109490413327937 9.170600581843352 3.7005216612196508
Sc 2.5996685938624884 6.682768662658365 5.062795680185012
Sc 3.1587685183189285 10.322132785570915 8.752115857962917
Sc 2.2459919963489527 7.3992111120276896 8.122847050669646
Sc 1.84702949168047 9.529923889894002 6.011992000601756
Sc 3.750525241728146 3.741608123982716 4.308322344323284
