54
Energy = -286.19323247 eV
Sc 8.481071468609919 2.098197640928664 3.733912320258982
Sc 7.253318256857392 0.19554273542927367 6.065839240891709
Sc 5.470669940492249 1.826685151764478 4.3012702292385345
Sc 9.403144191289321 2.2906009207494593 6.6881551708754134
Sc 6.409591628822604 3.4817790493065126 1.8763122862036077
Sc 7.811738700639756 0.7697805788262568 8.890460077700727
Sc 8.798406086335048 5.385510193653941 2.516873962970918
Sc 10.913775298398365 4.159318285432884 4.528532160397845
Sc 4.874494832873603 0.8181846057054402 8.004959751987323
Sc 11.665901854658566 4.3495093712843795 7.6855478875784184
Sc 12.785615301483858 6.4750237207366 5.89717331489604
Sc 6.991634966129858 4.39643913667584 4.5995111673246125
Sc 3.450006040599928 2.9196189307060547 6.1612577213948265
Sc 9.454948408048866 3.2649590725926587 9.732507001839421
Sc 6.4444976004288215 2.949197662441496 7.242854168899563
Sc 5.866450263028849 6.539672946785022 2.42150648432033
Sc 4.064711895524397 4.800030532539041 4.000662118219749
Sc 6.354562467142949 3.0570798905158707 10.347502346109126
Sc 10.463578050620647 7.290899457703318 4.209239101860889
Sc 8.080402233022738 8.637607352071008 2.221791495308107
Sc 12.73513783498759 8.146568121454322 8.681081151206454
Sc 9.119607736032775 5.345392817343152 6.481097069481521
Sc 7.487931293315693 7.37375428173079 4.856654684179614
Sc 10.507654682619712 7.760287638609144 7.257138408330225
Sc 10.537778357044616 6.0288366072857515 9.79180885616474
Sc 4.822524618598458 9.284729395122946 2.07227895644332
Sc 12.300072026989145 9.510839354456984 5.88273986985093
Sc 7.615471761610588 5.491199551192078 8.970706245875231
Sc 3.6612919832711768 3.776010016310945 8.8256214633165
Sc 5.218948950247389 5.727775914820821 6.935801663157246
Sc 9.050956484632435 9.87018227033428 5.562481824680536
Sc 2.490480480423649 7.5864444752635505 3.4361913418726333
Sc 9.652205545317416 8.674230875861399 10.281531539095246
Sc 4.626320809172171 8.059465609789585 5.05673222688984
Sc 8.087647122004936 5.648603431860212 11.724048982283326
Sc 2.2765651460622434 5.788934073241787 6.2909582095211185
Sc 6.522172189738912 10.455742795070865 4.0792265630941325
Sc 7.630182182236647 8.285393039296117 7.825964949930314
Sc 4.98386282502092 5.841367784835851 10.390950955627677
Sc 10.509278880722393 10.66709338925151 8.082943202480127
Sc 4.363040153641271 8.282298515233414 8.517164708625382
Sc 6.618927783155367 8.336962307128061 10.691758978654967
Sc 3.3228828358075013 10.600460388800203 4.378386380052589
Sc 1.9546436268521339 8.75803374459359 6.567244396512135
Sc 2.0640972787911167 6.626118025181848 9.213758296089132
Sc 5.838793872738117 10.558803839878845 6.953324407211624
Sc 8.069792476530585 12.569671831342031 6.579977626250798
Sc 5.17970085534889 13.006305088087936 5.396901428946559
Sc 7.730769844083043 11.017885152468455 9.3610997036519
Sc 3.5177830830387933 8.288288780699423 11.448311236609545
Sc 1.8164654127549722 9.701823659245465 9.499134563511763
Sc 4.645937210652362 10.8688864694897 10.06125477117973
Sc 3.109648173876842 11.603886980702542 7.352584291937668
Sc 5.699889635463944 13.237866854369639 8.31252728464953
