52
Energy = -274.17638509 eV
Sc 9.202040886691902 4.3386130075109675 10.124737704268501
Sc 6.228072132061063 2.9315340893572106 10.689402931582897
Sc 5.558129931112316 2.355012671740807 7.6242394901813215
Sc 8.39142835818196 1.9904780298189682 8.511877721232137
Sc 7.417363115381691 5.690937166500569 12.063353875424019
Sc 7.690907618014348 1.6820377878011872 5.3458349339392885
Sc 3.7328749249476965 4.106461024686258 8.949105599646252
Sc 3.367924326029409 4.1759199505763585 5.909467163988022
Sc 4.465285880235969 5.892311977087261 11.206083862901016
Sc 9.184395907419159 8.122150140495387 12.88492634691103
Sc 11.157250004484922 6.514836741092498 11.028848355763799
Sc 11.588524805811982 3.4678495120968797 8.615313236950861
Sc 2.4327122305001163 6.773506623284822 8.930560919437854
Sc 6.561500486752004 4.349456316958464 5.618672228473714
Sc 6.641943630913259 5.08445031231199 8.947597128863306
Sc 8.408466422678165 7.69488110433863 10.032138075094245
Sc 9.315387845891152 4.092292850025964 6.737540505044159
Sc 6.104008944461693 8.479254405225763 12.120394168299809
Sc 4.483123650371449 6.32247521747298 4.030602611868047
Sc 6.290551153619102 3.7520761478303584 2.6882314615207594
Sc 5.115206887313582 8.149960989299256 9.290564951508939
Sc 4.922106498286952 6.450755103446745 6.909446550409284
Sc 3.007624700897872 8.695819017637103 11.289766658063918
Sc 10.936723963053558 9.484953036619467 10.882409463021423
Sc 10.901581820782683 6.296695390674917 7.99254461436289
Sc 12.053855480125463 4.70534051699549 5.713648413955952
Sc 9.188361630655399 3.879445282481856 3.76372140655294
Sc 8.062995088952253 10.64832834746891 11.076920385081376
Sc 2.5718173728431184 9.79504220414803 8.531188738369977
Sc 4.998817242929392 10.943388164665468 10.296438688858931
Sc 7.375142213061884 6.280130418485764 3.6565543278760195
Sc 5.769483726561101 6.879255533083006 1.307291832047161
Sc 2.2625891469017336 7.362611872670383 5.853390114698549
Sc 12.911630780605051 8.393617479793237 8.831211849333615
Sc 8.203440605944293 6.93929854543335 6.78931356764087
Sc 7.134992685047942 10.134385743279461 7.999267807687403
Sc 4.5964953727813365 9.227694041857443 3.1924859992300103
Sc 8.716256989184558 5.860209677054603 1.3424043801644785
Sc 10.07924871781614 9.19785774732973 7.859345969773981
Sc 12.257072126693366 8.102919364028386 5.9356834410088215
Sc 10.136874252079348 11.900793365128143 9.292546965797563
Sc 7.2494837004523385 13.016826955058779 9.04342457938302
Sc 4.334957102824513 9.491191358842913 6.286496614483453
Sc 6.702410129143654 8.655558807011818 5.235969410455803
Sc 4.8783637605345715 12.136049315081017 7.458510758793426
Sc 10.150477807484464 6.676834063441408 4.411212088440326
Sc 7.677934154064946 8.94187735494428 2.382491133599748
Sc 12.087733495143633 10.973138534644304 7.131104750694823
Sc 9.60044079443381 9.625392697968378 4.906900297516028
Sc 6.563071127082815 11.46954669063389 4.914074633992661
Sc 9.09398276740895 12.129067576004998 6.635240262677248
Sc 6.8674017451747655 14.216335746347125 6.324426304466292
