55
Energy = -287.82754171 eV
Sc 7.603205743463197 7.812318343476793 7.726779533498252
Sc 2.1444765739791904 2.9291134218102104 6.100533672453527
Sc 6.915888001655275 2.2051430972911885 10.03114192802484
Sc 2.6214578581950865 7.607690623990886 8.732549969888375
Sc 7.117754639774883 6.131545816449325 4.822324816409337
Sc 7.9416533287005 6.086939133781353 10.418788533131583
Sc 7.623151657832653 11.04054221090432 7.4246171414101605
Sc 7.2347808543969965 9.258095011760716 4.976913124989773
Sc 9.99205169035711 10.830266661250892 9.521278077846738
Sc 7.665475459970926 4.287865821814427 7.7973830944119005
Sc 7.205638999624969 3.0127653279613713 4.921120310931211
Sc 5.320126168910728 7.648745229235486 9.938442504703108
Sc 2.6110185434364332 4.696861661621124 8.785012578453644
Sc 9.725529271901236 7.6036055842325165 3.9546912280175457
Sc 3.685271262213218 6.201168758210566 11.855070903360978
Sc 7.548218534757669 1.1086731048772263 7.2286509900370675
Sc 9.696838364380236 4.662047316858556 3.9401015054904005
Sc 10.405621374186202 4.518478547801966 9.382751143429948
Sc 4.899842866352903 6.106458763496304 7.221648557308658
Sc 1.5764764778598246 7.705733154959329 3.2306300798086904
Sc 9.737614460831663 1.5338349324080647 9.378705165060172
Sc 4.947605322193377 9.301627265516093 7.436136925254345
Sc 1.5642056962298843 4.638523981341599 3.2100309635964255
Sc 7.400304017323794 9.76689289656308 10.19200989326051
Sc 4.920958641877618 2.913382814339252 7.454941894018832
Sc 4.3248190067155186 6.171059000256093 2.119991479886025
Sc 10.227034589760352 7.868158672227861 9.457720665106534
Sc 9.914441198826331 6.12554917746535 6.670348450178679
Sc 9.882642902069856 6.113447890940644 1.2534684292145766
Sc 2.309489484097442 6.161051258020882 0.14569018266583672
Sc 9.990014804221143 9.366519875747215 6.747150243937751
Sc 5.302493067160934 9.921625332330782 2.3200938232141657
Sc 2.8990162267081305 8.936192125615431 0.9219597340348251
Sc 9.99427327143733 2.868345368656994 6.651905616358992
Sc 2.532772670015159 10.555220778289826 3.356717916593636
Sc 2.9284934056523917 3.3979936253394025 0.9508243575296571
Sc 4.347821444805398 8.087768860553929 4.604598980396161
Sc 5.298171945563391 2.341035641550214 2.2816714913804783
Sc 5.116698543682485 7.673787738866697 13.064738286049243
Sc 4.731260653614395 11.166960706239042 5.207254392302721
Sc 2.477509810872585 1.7562244176293342 3.326128703142718
Sc 5.1374619346335555 4.626400888606055 13.058273268920953
Sc 4.332507519248464 4.195986157095206 4.567077688249638
Sc 7.311607576609278 7.624599137086918 1.9397198577577501
Sc 7.697841164323465 6.176148755799734 12.745549858570357
Sc 4.705653401383573 1.1201362823614807 5.146853986094038
Sc 7.270868900777231 4.685323050551704 1.9284308818532094
Sc 9.563783223405094 6.061956365067643 12.623057652329484
Sc 2.081203397620345 6.150247960099369 5.970651017414771
Sc 5.313037994098616 4.625837860332619 9.97820276743862
Sc 9.45401553217518 9.022680688499248 12.05439323610495
Sc 2.133283650212821 9.383548988049553 6.101390183965797
Sc 6.678713119925275 7.68130373202277 12.634107399285176
Sc 8.96188496415609 3.3470778194692343 11.7055211039648
Sc 6.495491156131878 4.698964733586048 12.745549858570357
