52
Energy = -274.98550033 eV
Sc 5.229422089265908 4.86001270254135 11.585888888480753
Sc 1.7304251103999344 7.340210026555241 6.7970782792525615
Sc 7.042667377435735 7.035733944869206 13.146443674598007
Sc 6.457089964565544 6.948650923396554 10.066242159063053
Sc 3.4851481949117105 6.420043547061073 9.229762898017848
Sc 2.6010395687851635 9.586514300485383 8.80643349588234
Sc 8.750035789984727 8.92647856781197 9.269429252439998
Sc 6.8031936980030325 9.669610682343665 11.717322700927271
Sc 7.746183196851557 3.8814602563502714 9.910857776785555
Sc 2.8335053564174615 4.508880913964232 6.466818236090569
Sc 8.129964216231253 4.213155843359196 12.994937893190569
Sc 3.0953084538663784 6.389157121934271 4.161668420224577
Sc 5.055962901348412 11.55211628192453 10.17070317111679
Sc 10.247433475336287 6.33891908925031 13.739057041674302
Sc 4.189200214192551 8.298098243107871 11.483274278753836
Sc 6.061670607611148 7.457230859765576 3.8495526619385196
Sc 9.132807158045397 6.297481372668077 11.173196199653509
Sc 11.945609483492953 7.289523296345496 11.241981971745838
Sc 5.37108029582192 9.082928027057527 8.531881831299431
Sc 6.09124403554601 10.874043855409411 4.691211733736511
Sc 9.658962040095966 9.136271481818378 12.214611470203357
Sc 4.666777131538699 6.74911570299724 6.520484807662722
Sc 10.521005108204836 3.2771025160236675 8.880789496609694
Sc 8.395136990066225 11.887615356938607 10.639060873234943
Sc 11.149561612471 4.307213276503799 11.616290349364505
Sc 5.173411153184427 3.853097247168178 8.29787644422808
Sc 3.7166989121239036 9.413843779158126 5.804787075462094
Sc 7.2490675688973 5.760499704028113 7.524623099150052
Sc 6.627620871533343 13.890331752708367 8.650706858786522
Sc 12.791380313068538 5.363099660222126 8.824357348215308
Sc 11.207057461187988 10.864202177148261 9.801862855972653
Sc 8.257443495042375 3.206064590761639 6.764779625314112
Sc 9.989827306193101 6.094271107082349 8.471717977108094
Sc 7.261463389889288 11.258717493459738 7.867458723611747
Sc 5.688005942593982 4.483508263567166 4.942124400387471
Sc 11.88152708627337 8.32459661044897 8.452766080807898
Sc 9.731089186254902 13.19043681132686 8.255424057742264
Sc 4.4558594040667385 11.972649918797822 7.260282930444153
Sc 7.477541690285841 8.607745890370397 6.218111075916623
Sc 8.488591096004217 5.715418172096554 4.8164958649225245
Sc 11.286078794647167 4.662677648596383 6.152766627959953
Sc 13.187819351118597 7.25530461461438 5.935599102632725
Sc 7.897677884720118 13.229549047008822 5.856506989105662
Sc 10.01373189571771 10.404439427505261 6.92841838493394
Sc 8.994679398434823 11.087649915036671 4.205871254232647
Sc 10.296445829902302 7.58350234823017 5.839738207288173
Sc 7.743130760823277 5.445783509568892 2.1571912788290857
Sc 12.926648923381693 10.569829599594376 6.904748880837728
Sc 11.15590551318139 6.310277790398219 3.369944533243517
Sc 8.867670478825591 8.28821988935133 3.1770128841012366
Sc 11.162730712263052 12.74600592650617 5.493095046100951
Sc 11.65259784175504 9.650211665776801 4.264997297732612
