51
Energy = -268.6911845 eV
Sc 12.694855505221868 7.5642946588093665 6.378769352913192
Sc 11.010321043451563 9.36110072235452 4.213675594935376
Sc 9.695930979408987 8.290129927569515 1.6913714037453589
Sc 12.917173269145707 4.6025794647210905 5.441933871939251
Sc 11.377424968638964 6.4860680577515035 3.535875295710781
Sc 12.666706852039942 4.950516768563802 8.245931847417692
Sc 7.4934661339369075 10.210914806146421 2.845020771812946
Sc 11.136804089587553 7.46845165660684 9.168648821744114
Sc 10.777959222124284 9.97600050815773 7.238064630849713
Sc 8.971732830767287 11.341763713187733 5.120133714760606
Sc 8.75327202736118 5.355710538353725 2.3382535865377854
Sc 8.55939795820164 7.6623493522820825 4.372528408538328
Sc 10.323922969293214 5.90338968710009 6.598649829542138
Sc 9.426998891398547 9.985090659571672 10.173239356797742
Sc 10.424216800566882 3.6466064468930313 3.9856342466012116
Sc 6.593046605202085 7.420654230018106 1.894628366885236
Sc 10.564921530875589 2.8991285190214295 6.799710309718334
Sc 9.82185317491047 4.47751458518796 9.350143513037132
Sc 6.5505854308062705 9.59671541832326 5.63138733877887
Sc 8.528072579215351 6.888053844084123 10.781355934740766
Sc 7.831554327611082 4.770696389174391 5.415146103901881
Sc 8.059076060437336 11.4345128175781 7.976163031463066
Sc 7.863605258688736 9.391033140674589 12.739152293980219
Sc 5.889881557931053 12.146168794070356 5.1125000918800145
Sc 6.534875210406509 11.60105521802701 10.976131843371634
Sc 6.4660070647436445 8.936777075604358 10.140152502939229
Sc 5.229746194119975 10.986350118554201 8.078681784447644
Sc 7.894923233384772 2.099289429189457 4.669118978674075
Sc 8.413677931152105 8.258012821041925 7.751920419179124
Sc 3.4141702476089297 10.134449369713455 6.064838391101233
Sc 7.679427278276447 2.630908891312256 7.901982270770187
Sc 5.941532110775777 4.261228159556719 2.9141796525145627
Sc 4.955347698029697 9.724294381966779 12.969194494088557
Sc 7.012535494778454 4.163511712276678 11.062862240403863
Sc 7.089527037941251 5.495838725443782 8.310571947812619
Sc 4.50702599945081 9.339825220514314 3.3118372108612477
Sc 5.419522586348424 6.651095278125156 4.5854674931883475
Sc 5.961998608311764 6.86246706540111 12.734114832569112
Sc 5.084660445060876 7.894222936029091 7.39573114297842
Sc 3.619111029528174 9.978803210965117 10.329803144676445
Sc 3.675388996396567 6.475424043637202 2.1652803962808633
Sc 5.3507857157879455 3.164364002196159 5.982935739632498
Sc 4.738112794661685 6.398340605274998 10.002860327711039
Sc 4.0517362434656015 4.45052080174593 12.071997213758738
Sc 4.735664436415701 3.3734714147253806 9.219168335648758
Sc 3.202209083179091 4.538233723399169 4.278204252874327
Sc 2.5885943724132887 7.459599462629657 5.036557210440574
Sc 3.5100754354131016 5.3705167750019545 7.233504059805551
Sc 2.855242735480429 7.462209305008807 11.955349839426063
Sc 2.372197837830914 7.970989752750654 8.531118471013077
Sc 2.0601537871310196 5.075831531663278 9.956222288410014
