55
Energy = -291.5357077 eV
Sc 4.289857968079519 3.207632280636519 0.9886002938708074
Sc 8.696987027296103 1.3080523688982417 4.7976191775837345
Sc 5.198040998511484 1.5244814810142442 6.056925266627059
Sc 4.897721147072956 4.994387540406302 3.0539469881063206
Sc 2.1476838020482423 8.339193588831662 2.0007988515638506
Sc 4.99675102518069 7.700415872261401 1.6668189087849388
Sc 3.42780094745589 5.92472374169934 0.2499936730295103
Sc 1.6354242246727206 7.073594741026018 7.729773154821532
Sc 6.782909574179955 4.2118004947165195 8.573352842814241
Sc 6.173705940038259 8.562248591950482 4.345430942783317
Sc 9.680854493947226 6.150870760183107 5.863129412033247
Sc 7.625676743920045 1.2832820425724047 7.742519871707458
Sc 1.8039544682983175 5.266963518556104 2.608003172074633
Sc 2.6453099064636763 3.1865715760904267 10.921925185407195
Sc 0.6781245899707834 4.260206896166768 8.73539468850638
Sc 12.082591680764073 7.2612450675172235 4.599600813580715
Sc 8.354110280368431 9.470691344582395 6.540714383654391
Sc 10.060140259359585 6.096177320784854 2.0587939172230323
Sc 3.3518484628337104 7.139272313858665 4.524627872277105
Sc 2.497914614884505 10.02370938770441 7.239142104831486
Sc 3.1441341205862 2.751266981119102 4.0452611344636225
Sc 5.985398273564597 9.827333258825456 8.621413061695087
Sc 6.78692148961006 5.4521894580591415 0.7103121770712849
Sc 12.2174103284047 5.243075498288667 6.863640759381855
Sc 9.482102785200937 8.510489328119984 3.8371758010618713
Sc 11.070308176821909 10.297265052261105 5.350479550004436
Sc 5.026018528421646 10.546702523147957 2.3899899990697815
Sc 7.075467359138201 6.786692114242909 7.003376341292319
Sc 3.715857349783786 4.921173873122721 9.013560210744211
Sc 9.646140183536255 5.49151577666884 8.85786656092721
Sc 9.91314460322513 3.0445442135126295 7.139170363399204
Sc 1.5731852100578454 4.87416871409991 5.684110249099499
Sc 4.394270019003004 5.885303191491116 11.993583191727364
Sc 3.300959194699259 8.592894749468304 9.947071172804023
Sc 4.606599413841884 4.643328322982732 6.179155899046568
Sc 8.450166326835154 3.411977510166358 2.354534291431569
Sc 0.6702844746586593 7.9720952198255945 4.842734185370576
Sc 7.63983216600743 6.1241411286149505 3.5994892741731537
Sc 11.134165629232504 8.083565210832564 7.471388180108018
Sc 2.514572859895706 2.4525219864742263 7.299325342978483
Sc 8.697512673743086 2.754939479117207 10.234951328167515
Sc 4.846929108500607 1.7351388968912305 9.074987867932654
Sc 5.77216102199864 3.332358671315783 11.311924199069747
Sc 7.933622437497911 10.98738852902279 3.861328061933437
Sc 5.33367744113568 10.932243089614165 5.790703005703848
Sc 2.8980053268344435 10.037020671064635 4.34583644732887
Sc 7.731555612361641 5.556504734390424 11.315739209799851
Sc 4.406665729048304 7.916723458637848 7.1354217361097705
Sc 7.727132553354554 8.600756731944028 1.531058047184752
Sc 5.801537611596072 7.105987868415837 9.755772918376577
Sc 5.991956766288236 2.174592196564534 3.2437590564430536
Sc 10.76111442106096 4.007219018173827 4.258612971930645
Sc 7.493693144112952 3.7136034259675634 5.4710004562181975
Sc 8.576856355037487 8.16364697896154 9.428090772078411
Sc 1.6865164404091224 6.117394499988179 10.773347945443037
