54
Energy = -287.17494467 eV
Sc 9.09215852971497 4.7639387496237635 11.51387267640319
Sc 5.528626157876937 4.781204611766206 11.69858151871134
Sc 7.137446749048396 3.331859709444568 9.619331311662553
Sc 7.0803992584907585 7.17772982162395 10.555513572787463
Sc 10.092138179526165 3.008182551474908 8.764836421137224
Sc 7.792097953697523 1.7509255504135912 6.846211029598078
Sc 9.979294824788743 7.8976830632820985 10.774642203785145
Sc 4.537627686082192 7.789297046519808 11.873721641367899
Sc 11.738281657932616 5.691093227388988 9.402300416523529
Sc 7.55206559295915 9.947932566173604 11.912988621108168
Sc 5.843136594179501 4.187881920590827 7.127312495255593
Sc 10.811029132210544 2.366179919868778 5.776679030856704
Sc 8.909256716125727 5.661390827482307 8.850277696260724
Sc 12.27416812310105 8.725579391326804 9.104711957151352
Sc 2.5193180538856663 5.515151384816722 11.2254505248863
Sc 11.627068013963175 5.596131009535817 6.260395985421008
Sc 5.209258970882635 10.119466502873507 10.016456005684729
Sc 4.516440792559772 6.14887960247983 9.19294324241029
Sc 6.8887562696259375 7.06372750897452 7.291322017607648
Sc 8.104809332887422 9.660310459557722 9.013220495357222
Sc 10.301500196823218 10.992784089632172 10.50273151331464
Sc 8.280983808709937 2.655645996682741 3.7578903071719623
Sc 5.363014937548181 2.292053275488526 4.61643808781578
Sc 3.836622081588257 3.2682024121012425 9.353742658144014
Sc 12.555570611645047 8.747503787750654 6.043548964744727
Sc 10.64988911903763 4.542145605536108 3.678160704209045
Sc 7.459691633727915 12.294382099298446 9.801130374190437
Sc 2.338569012864559 8.223625107129958 9.686534573553091
Sc 2.879142028119858 3.3312863335527507 6.2407886322502515
Sc 8.858318003104229 4.403076821615952 6.182555932694944
Sc 10.968832530382047 10.882204396824806 7.594531434736461
Sc 1.696187935217542 5.495666117702797 8.15571376406462
Sc 5.481955197676907 11.817108188654748 7.338090804628734
Sc 7.284784938048339 9.698253534154405 6.257982150950249
Sc 6.36071952898575 5.05413433119381 4.218004863877537
Sc 8.445280627978288 12.262194503486045 6.873968986417734
Sc 6.000180708099549 3.48988784382693 1.7889719744046666
Sc 8.644319377376977 7.049507282492093 4.85199290042112
Sc 4.456467434297135 8.822873069345713 7.477680112263706
Sc 3.7420607658133416 6.168366011956535 5.975080588811148
Sc 11.044683102670609 7.524686097488153 3.570970261122589
Sc 10.038717937992407 8.003150283315765 7.366648561775981
Sc 3.4929197196342354 4.517065029477584 3.3791681420261437
Sc 1.0089742164515194 5.530108104470946 5.1023197196431305
Sc 6.587918420767245 11.37655894830178 4.160937701321599
Sc 8.39590118901686 5.668227073390676 2.074149682023196
Sc 1.625587426668526 8.207313379116655 6.44289780843198
Sc 9.876095734457474 10.141945406739179 4.792829832080544
Sc 5.6155738945805656 8.164618947660717 4.434696059850547
Sc 3.699783468507359 10.370137800064787 4.934543751315806
Sc 5.417353855432861 6.666490243711823 1.8167303187309884
Sc 7.887472382491745 8.858870362765515 2.5379706621604736
Sc 2.779747687542134 7.706291966065833 3.4776595969156414
Sc 4.807549142506011 9.794086287903317 2.145616196085499
