5
Energy = -18.11456383 eV
Sc 6.977713627049243 5.62116106671377 5.643379550860074
Sc 8.812165659524739 6.5858312559592775 7.528605287978531
Sc 5.271961822640368 7.465639019966202 6.129345794584081
Sc 9.185899807427278 8.4521909182442 9.476128067092374
Sc 6.856278798492507 8.6922198535945 8.08583530096036
