51
Energy = -267.12274111 eV
Sc 10.808116490469446 4.028863475725398 4.22784164533668
Sc 9.724467636900414 1.636607311634868 6.07433788036539
Sc 11.14103254489397 6.980741066021894 4.028221321445508
Sc 12.652784144201936 6.1249420750744 6.406585945891696
Sc 7.838444903916761 2.5967201831949853 4.138431228408483
Sc 12.066257586098123 9.159992738134422 5.681388051409505
Sc 8.65713125701371 1.4570449886222943 8.763184740476007
Sc 8.454317018903724 5.456798957114796 5.189286275416223
Sc 10.429934326829184 4.21338416646032 7.370338772623051
Sc 5.1186954238946765 1.8705583477698247 2.72886558435106
Sc 8.783350972604573 6.515457154159105 2.49716819474698
Sc 10.072067222860404 7.283077753583028 6.845630146724112
Sc 6.661245024302768 0.871242973746774 6.39591537262362
Sc 11.317098778745454 6.41601676436791 9.500185115585065
Sc 6.373927659088721 4.685741735482012 2.7565751055066237
Sc 9.696920884987637 9.497813583418425 3.2834939257371354
Sc 10.021441539591926 3.688799879180376 10.30708299267032
Sc 11.062047411587843 9.397978692813961 8.613978926633353
Sc 9.422364479395863 10.7298601604668 6.222255777491824
Sc 7.33557798430973 3.6274726287138113 7.156803184584734
Sc 7.1107695235492505 3.3945240408198467 10.43402466510363
Sc 5.449683495174964 6.123070208093495 5.22718851454019
Sc 8.25543670519831 5.883869575464238 9.099231910918801
Sc 3.4865152021115122 4.5155557955495125 3.17384623970033
Sc 5.961639513082806 7.899263342664169 2.719845476514929
Sc 7.753635802957085 8.369303663557101 5.058544497493705
Sc 8.374311839774194 5.681545010764979 12.002915959954576
Sc 5.0242297128090545 3.1869189912508724 5.293299666818464
Sc 9.386959642657727 8.493073835361876 10.874369046511978
Sc 7.794245610070396 8.889944117391561 8.21611313449786
Sc 8.77484175669943 11.27412698461981 9.573852890267867
Sc 6.918741833026109 11.08573199792726 4.260669340237666
Sc 4.234484622646066 10.009522029685293 3.90398895298771
Sc 2.9836943884978355 7.410307415390923 4.362742837802654
Sc 2.833583675621444 4.9897630203928935 6.390098380460417
Sc 4.631026035617902 3.2706078701258114 8.529443776900878
Sc 7.133502110231893 10.655822850652733 11.995048246561243
Sc 5.1428353309037345 6.346182006315955 8.24794441998615
Sc 6.657980767979701 11.921464364502683 7.197441224112871
Sc 5.0292748712068915 9.152968817325513 6.5906011599896726
Sc 5.0111041771912 5.314669190210359 11.045673118999966
Sc 6.493520269304423 7.876900292169842 10.926087787959537
Sc 6.740744140165637 13.338680092397283 10.157281659082813
Sc 5.549681795768303 10.643588302570963 9.542296717244971
Sc 4.010176002060573 12.26542261149428 5.738589793631074
Sc 1.7237444985766976 10.120884302786319 5.377316620195786
Sc 2.2748256818248067 7.7300133183245725 7.357722405106574
Sc 2.467804111196921 5.438395430667296 9.438686357498366
Sc 4.246291643864621 13.243924938263623 8.689977269175877
Sc 3.606135411664588 8.224261285229764 10.147764886458543
Sc 2.8112861402059672 10.645115949350098 8.029848494635019
