55
Energy = -290.72882265 eV
Sc 4.531498319063675 4.198698216438207 2.007191544444602
Sc 9.112154113165571 3.315617940714768 6.303974221911088
Sc 6.2919482877456945 2.0314807582134895 6.696083503402258
Sc 5.378868155639787 6.454567074009153 4.096017229899048
Sc 4.276968767052603 9.26885349497326 3.218546603818515
Sc 6.696438227223227 8.992455502677368 1.4593828783813518
Sc 4.402585081304603 7.006724652220026 1.2144096582358366
Sc 2.185486904212341 7.45067154601803 8.857939493960089
Sc 7.9119913875498336 5.667908452759952 9.14391862582484
Sc 6.859471102190051 9.325034525082588 5.170702473701431
Sc 10.351989226379551 7.038909192568601 8.517998176909428
Sc 8.072491989844787 2.7244197284227405 9.186376344898076
Sc 2.5485498465544487 6.074297555594199 3.4546118756550395
Sc 3.951967490453108 4.257762203273142 12.497394434951296
Sc 2.8253541520460934 4.546129013630582 9.671829875192408
Sc 13.256410968891162 7.828148479869799 5.571612801435002
Sc 10.03854862085262 11.18189892425479 7.803225768734561
Sc 11.354377502316598 7.587405797029305 3.275796205657249
Sc 4.907160532086148 7.73808822514651 7.102325713058526
Sc 2.4154498153153345 10.219573244081122 8.171029514662516
Sc 4.143552189947847 3.70001458589451 4.91609198864168
Sc 7.786264658270408 11.536607064326144 9.957714154755271
Sc 7.153137045171297 5.699596368939473 1.5611475362919585
Sc 13.202903810661304 6.200809187151135 8.15336312659441
Sc 10.097669895698607 8.67196710735342 5.857060791823303
Sc 12.02640029086412 10.435087619847021 4.803536452292323
Sc 6.6794918650820305 11.454925200564505 3.3338499219878477
Sc 7.891359927413716 8.957176623291513 8.09186974075654
Sc 4.956248529219912 6.628844701607463 10.041566521105802
Sc 11.869661498976672 6.476636138581486 10.877312384319323
Sc 10.934256493202636 4.144339874903964 8.692884563943004
Sc 2.4553275874966953 5.437495681847474 6.674245101687873
Sc 5.373376327940693 6.973024900428739 12.928051637298056
Sc 3.7069747619434845 9.22717045081382 11.050207569623913
Sc 5.411612704085956 4.644040455254228 7.576545573402146
Sc 9.576244778817667 4.901296653721974 3.5186809632794915
Sc 2.5107767980316726 8.422903499631168 5.597549020342078
Sc 8.339915998814991 7.649722553440866 3.4082957793058615
Sc 12.397697057324933 9.189145596701298 8.067296927694485
Sc 3.3451851502040197 2.4246764751884777 7.508733587251798
Sc 9.79479000631226 4.13697004350517 11.391051603031558
Sc 5.183835472649722 2.6740541275336103 9.870716810921243
Sc 6.753501599485683 4.527615226524359 11.608880064043818
Sc 9.20206804150071 11.58118947782303 5.0005378166877525
Sc 7.067529565048154 11.842212076745426 6.937257651042853
Sc 4.360878217378798 10.80879880387029 5.830535244285959
Sc 8.924449521392555 6.840981296529194 11.730991412061192
Sc 5.2211384457407135 10.265754999612778 8.739654421642147
Sc 9.539855136772855 10.168090999200048 2.6187795919326233
Sc 6.931629169993672 8.786538337172301 10.906004995130987
Sc 6.983437923473791 3.639431094170987 3.995416771130276
Sc 11.207437801542566 5.683469691252285 5.8765010888964735
Sc 7.937533195300525 6.055229945202231 6.0258682117939095
Sc 10.051924321059532 9.395728279652383 10.355439219261234
Sc 2.4562167251203126 6.753803336567235 11.919987812836515
