52
Energy = -273.70333384 eV
Sc 11.154287719730563 9.871548582588952 8.07609726221283
Sc 11.34952736931713 8.398630979672534 5.352739648749351
Sc 11.208615368795142 7.666457932421551 2.386595204736728
Sc 12.128147374711833 5.396494654768192 4.947090613319389
Sc 10.584943553733279 4.7819352856430095 2.221449043914493
Sc 9.55715924603432 12.21055354703458 8.83209944581306
Sc 10.879075585310693 10.641185391106953 3.3161336557284784
Sc 11.554071815327248 7.857897442883904 10.25488249813938
Sc 10.211964166207615 10.47741647430521 11.341943303989948
Sc 9.204606984969205 10.86615716710773 5.943939518590752
Sc 10.298813909646437 6.803183428908306 7.769231671992583
Sc 9.104103403766489 9.579327890889086 0.9765555312703901
Sc 8.317506838212148 6.634433142088811 1.3868092678589152
Sc 10.462435021315528 2.8111963439012913 4.350115957512996
Sc 8.663985218520915 8.601979234172262 3.8107830201726927
Sc 8.693388175548765 9.079470367626765 9.584812338957493
Sc 6.777555602024177 11.105936395489262 8.06043619667874
Sc 9.30797491591632 5.6890823661993215 4.781266610516328
Sc 9.232514341092799 7.185920090375352 12.003521011889422
Sc 10.141481912860044 3.914625330804462 7.157009930831451
Sc 7.483131820831827 11.886038507112143 10.87613361433547
Sc 6.137873115121583 10.118427737191864 5.107241193757762
Sc 10.506406438059757 4.882938605243965 10.212623341307104
Sc 7.823098914380696 3.6996530350662122 3.051503214088091
Sc 7.927621668747409 11.462448346219288 2.9900244599704315
Sc 7.840203712890634 8.22918198527097 6.871783470618779
Sc 8.2678215575512 4.201586374316693 12.085389460924114
Sc 6.3985128368592905 6.379209998861341 3.7434225631759865
Sc 7.697790033721454 5.9261364258525635 9.646776865008247
Sc 6.1243351599739215 8.95132716366113 2.1463422650603667
Sc 7.7914222389780905 2.3821811504051404 5.861957120653679
Sc 4.996214535259549 7.306490718291114 6.115092284483104
Sc 7.11549730984615 5.059932271517432 6.831999821050557
Sc 3.8868612585041906 9.973133828613195 7.241639654365361
Sc 6.917209172012071 9.368074330878985 12.134887891976172
Sc 8.074966283552481 2.945919860909795 9.121315592771092
Sc 5.63891878534123 8.32771484545538 9.376800096954506
Sc 6.097096431094401 6.452979334416369 12.193440333648093
Sc 5.1124840747313005 3.8241785698204973 4.912589016065699
Sc 4.592711783269026 10.887817051835599 10.33760783347526
Sc 3.319436792187416 6.12949080068148 3.9286660414231243
Sc 5.544825027802944 3.748741767698245 10.72976674305878
Sc 3.5081686375221515 9.072592948187207 4.158574217296511
Sc 5.2073449584027 2.740224125434985 7.7805029957031175
Sc 4.328983475952523 5.654392039027532 8.647589164332988
Sc 3.9413506788374892 8.612988078699164 12.07169627693528
Sc 2.5597232998097357 8.403481450231213 9.471932372673969
Sc 3.110623305879695 5.699704660862907 11.366920745124286
Sc 2.6089893407761813 4.331014672950803 6.589899939482187
Sc 2.116180748073621 7.4664125682121005 6.524482708866964
Sc 2.6821141369858834 3.2256426135183376 9.547163092953362
Sc 1.2326172477103312 5.641968897596106 8.989857327594999
