54
Energy = -286.9672366 eV
Sc 3.1018262351819543 4.4019707905124505 10.484045637426844
Sc 4.179959305113409 5.413067034052231 7.864180398089459
Sc 4.364685028161145 2.214427740768191 8.785974725310668
Sc 3.333170682649512 7.683493070395117 9.701660909228417
Sc 2.918684492052331 7.886253761811784 6.384226672353216
Sc 5.268018595169315 2.4875582385631776 11.656392534467766
Sc 4.377911841870042 5.509195074484668 4.928664239408886
Sc 5.067893050161303 5.707588458138591 12.238914101542285
Sc 3.5431564400912343 7.989112195297783 2.875390268162816
Sc 6.117608105912357 4.346433262684761 9.73945535827118
Sc 2.571734329740439 10.72215210303121 8.015509117348737
Sc 5.967247855022763 3.1919901154769788 6.4315800092287825
Sc 6.649535713660445 6.954690346842355 6.9880167716147
Sc 7.61794939357235 1.9398468724479176 9.108980638672577
Sc 7.749350277175041 4.962321983967011 4.682614877606608
Sc 6.267746270518617 7.27598241071364 9.90920188819
Sc 3.5435092794699936 10.48679268856524 5.015287770407007
Sc 5.867659009893528 5.835652572526251 2.5185671134984595
Sc 8.19664026539116 3.945321902802076 11.73002941441918
Sc 8.789697449848033 2.2315872632476927 5.922775482153576
Sc 5.553716474657312 8.335059242954415 4.668801753469781
Sc 4.287178365553638 10.37260942578036 10.611245446782178
Sc 6.571728527390556 8.495815971572132 1.8368219803075077
Sc 7.846620910619742 6.626192564433774 12.64739887225882
Sc 5.112809462216484 12.450156695389294 8.867447013580767
Sc 8.280862132352583 4.547822316325667 7.664469118262469
Sc 5.099676370929694 9.602364532432798 7.566326581373913
Sc 6.117336092207286 11.115390952282592 3.2976243737514284
Sc 10.347006123467118 3.651825313473464 9.764963693575032
Sc 7.662068782201936 10.4698034960394 5.894038213174671
Sc 5.60931808892485 12.56297397900178 5.9299203008336665
Sc 9.149023932354698 6.554541471952597 9.796858251907286
Sc 6.058017174701547 8.918203813051173 12.365793981228798
Sc 6.957049215500402 11.963145427200928 11.446311534905776
Sc 7.267503285681476 10.040082182875361 9.511103057379373
Sc 10.871789956979288 6.087811484375524 11.900729911956256
Sc 11.300266998423316 3.5027596006978015 6.931831268474172
Sc 9.259030027447075 8.749937706910252 7.661646704965632
Sc 8.92130076360782 10.034878863810478 2.5480457661414997
Sc 8.898023476094954 6.435949563022127 2.0391879452211032
Sc 10.34307594199263 6.2418820792312 6.295276510996256
Sc 9.132852200456481 9.085609474027681 11.822493646588391
Sc 12.081137738141635 5.969723845216969 8.74048158248461
Sc 8.49379711722295 7.922514611437885 4.544178922347652
Sc 7.95602483675897 12.717335614408169 8.037566935729508
Sc 10.709444008582969 4.361127856653181 4.016216226253501
Sc 8.733101216768034 12.674142160277238 4.698260777529406
Sc 9.828966749596935 11.36157329138363 10.078653658144235
Sc 10.624290153177025 11.41724116058326 7.318987794335631
Sc 11.444763869726778 8.793121810034116 9.801922582389068
Sc 12.283928311411241 8.504650954068172 6.741321116733062
Sc 10.68351134905901 10.139984822453513 4.825266399359067
Sc 13.078636723779073 5.593800985021219 5.593612267844724
Sc 11.426319991507077 7.416616894777653 3.686034326089378
