51
Energy = -266.80824428 eV
Sc 2.518341104829535 6.527802142868608 8.935514244416327
Sc 3.7373591608217094 4.0725819365445215 10.430305671493194
Sc 3.306596893519346 9.334183474196283 9.717947944201327
Sc 1.370546516847446 8.822155190978119 6.896825516347001
Sc 1.4223124852619056 11.280186024131648 4.954721989850621
Sc 3.3668540887262326 11.263719275946622 7.2427096741284345
Sc 4.900185316470374 6.946383508436259 11.192966190233403
Sc 3.241499461687158 3.7206463022115908 7.559581366856211
Sc 5.118546465403239 1.732487054739319 8.952193295888502
Sc 3.239959294385122 5.960591390878115 5.554435410898099
Sc 4.97379723598552 2.8932691853121484 5.296517204288776
Sc 5.230050445059547 5.879737712413425 8.382539566697817
Sc 5.1834588490288285 11.656551370749696 9.57418377005632
Sc 2.93486884770517 8.803320919345806 4.208290592810425
Sc 3.3416671919416356 4.070703113586817 3.1662325760348438
Sc 4.254506288579016 8.375158483259915 6.918429350745835
Sc 4.502832440466288 11.442116490824006 4.533956693295382
Sc 6.3834801623430115 9.90721991437042 11.79724731689599
Sc 6.569456472609848 3.6149233694413665 7.513377773018245
Sc 8.329931341949719 2.966123721682198 5.259498525244469
Sc 8.132491800480338 7.26223315779111 11.409525901107003
Sc 6.366391624171563 13.176258752167639 7.119101703352855
Sc 6.782440241547754 4.118778569189286 10.487649282854242
Sc 6.356032815316563 5.716332651411683 5.34796607490684
Sc 6.406788885915418 8.749187596219874 9.234100006710209
Sc 8.306375282579001 5.877849682027551 8.633458824207485
Sc 6.557125151311236 4.021245345670234 2.8995857112681076
Sc 6.371922240845039 10.528535415104123 6.796024862429221
Sc 4.836681508152639 6.526322638874013 2.7821890195813195
Sc 9.680511207666424 5.777133721030081 5.683058944354029
Sc 9.757244937464094 9.993436649428192 11.754050612583068
Sc 6.014237322192065 8.684780234856284 4.346738420300136
Sc 9.920146726441004 4.695420260898578 10.850164015822832
Sc 9.296004570134079 3.0617011188779575 8.392214821674532
Sc 8.059044459988892 11.419388447624534 9.52488209850625
Sc 8.12081298630759 6.8058849840239946 3.06863769935174
Sc 8.021927695530545 8.111854660987898 6.6264171832782095
Sc 11.478658626479552 3.5249709349718064 5.801576777275528
Sc 9.960137668224226 4.324594167160274 3.1559119772945095
Sc 9.716289191765892 8.707179581783784 9.086898691962876
Sc 9.303796889114697 11.051539034574231 6.8674218204124395
Sc 12.873677238037079 10.02420672994051 11.545384468257357
Sc 11.34725062106059 7.431508089871571 11.247623547038684
Sc 8.942042069044467 9.572447461867787 4.23027137231759
Sc 11.323726257937198 5.898800786015041 8.393799721463466
Sc 12.96045346365023 6.223092010498321 5.7945264154390985
Sc 11.245423098345338 7.134259408946082 3.484210265054577
Sc 11.336334998694655 11.206751454766327 9.303008453399578
Sc 11.101534298477667 8.574948325519827 6.342692857838464
Sc 12.996548288577857 4.566385510645301 3.3315335671580013
Sc 12.936706985967 8.534957924690945 8.882929117431534
