5
Energy = -19.98399573 eV
Sc 7.285619414652787 6.747055099606404 9.349788999911736
Sc 7.065232820667785 5.775497117207315 6.59913379941977
Sc 5.6722499361783125 8.298735140545523 7.688981033307408
Sc 9.29383095980213 7.633601595996379 7.634673840420542
Sc 7.550526611063178 8.502022749530557 5.64362648512292
