54
Energy = -284.70814216 eV
Sc 3.6490646333626513 5.564802448037166 9.84105272995598
Sc 4.837968917529074 2.5644386376741957 4.174364521972725
Sc 3.6826279906311834 7.2257202553363316 12.4114435790121
Sc 4.399419591516601 4.3515718999463795 6.92666689382413
Sc 6.544987022573419 3.9504200995925136 9.05294093135982
Sc 6.585602929956168 1.6148570859423017 6.963902050278622
Sc 2.5569881126473777 6.872998889747855 7.079878027050691
Sc 6.398456644872546 5.986552214959463 11.57127311491133
Sc 3.1777483654520164 5.16211084380083 4.2505845584210435
Sc 6.583408529238763 8.241063301177572 13.765585995670968
Sc 2.986510108874582 8.557487943278897 9.544128844577154
Sc 6.6863901910436265 2.950152090690309 1.575863045108228
Sc 8.899252322172494 2.168207789736601 8.955363481432613
Sc 9.140816502225682 4.5949083122678465 10.806877896469398
Sc 5.981583987456802 6.970400454675692 8.613901560309472
Sc 3.2136341509713064 8.081706111239889 4.396044245291858
Sc 3.8256861886876203 3.8409428732832187 1.491779892589753
Sc 9.298398228827386 7.062591816538342 13.002153588623408
Sc 5.940534447560863 5.16696323362302 3.184106481140892
Sc 4.270884038626275 10.714989211991016 4.070293991217598
Sc 5.524274558718193 8.868720196630376 11.028226405022856
Sc 9.298274005975829 9.704034933032283 14.42714098261453
Sc 4.204770967842981 6.902544197788395 1.7062672731005482
Sc 7.159242494187516 4.087459882078505 5.671718634120299
Sc 2.151415554134547 10.342321712412314 6.650293671779924
Sc 7.645371475709057 1.4625007777573886 4.126787496751816
Sc 5.776612709043011 6.914503352054446 5.634849592056494
Sc 9.674588789377038 2.5872810135967326 6.1511670530654206
Sc 4.532134784863229 9.244833556938678 7.063732059961381
Sc 9.02939658459782 5.28025123695538 7.8043291490947775
Sc 6.260753871710572 8.555130295520287 3.0872401509624283
Sc 4.562250393596738 11.40113733075131 9.248947265555342
Sc 8.693220045514629 7.793933026357256 10.200009576897601
Sc 9.128049855351955 3.994532687253135 3.1670161815682683
Sc 4.657252421471972 12.293947766681848 6.366806973523826
Sc 11.407758584563044 3.846480823260588 8.676380402249674
Sc 7.880518573573718 10.339933200941918 11.923663882540025
Sc 7.742670895439484 6.2760705900685725 1.3808302230955618
Sc 11.402180835002719 6.579692708941894 10.62490172260329
Sc 7.161999610341322 9.925939228072236 8.7411771146341
Sc 8.637490821808857 6.632732713850663 4.477677166436274
Sc 10.81323419941143 9.51799638550831 11.809645490344094
Sc 7.0622526009149365 12.365914211342458 4.277730989845339
Sc 9.513724831220834 11.499505950727979 9.613935520136913
Sc 6.861604235906628 10.079387540325726 5.6804279274370595
Sc 11.183648036223271 5.162406941114021 5.327283050924827
Sc 7.226572629715737 12.64971368301788 7.604558915019368
Sc 11.757919340317502 6.6619233108235605 7.7498088173981134
Sc 11.152594015961064 9.294582978346575 8.707243508551736
Sc 10.677335146400509 6.883501907583283 2.597112188863986
Sc 9.124292018135343 9.556147592959757 3.7351733475624807
Sc 8.815129690724898 8.213734759779756 6.951533909120495
Sc 9.682507089898266 11.12042785967351 6.47639393167788
Sc 11.323108621876813 8.361490784799193 5.343891021155229
