5
Energy = -15.6361694 eV
Sc 10.97601089914891 7.252715213835678 9.655165776549259
Sc 13.228988517076337 6.068107027972988 10.042111933770276
Sc 4.5214529863145145 12.075127171856854 6.598503713723348
Sc 6.115022136994268 10.488736310847697 7.843590624100252
Sc 8.606949246852059 8.906369401811551 8.676962658410382
