53
Energy = -282.81861526 eV
Sc 10.871881571820593 3.8150077691076514 5.227539584676914
Sc 12.73810645915412 5.24954630213506 7.402663286638787
Sc 11.784537294270896 6.927423708570605 4.826090478250268
Sc 11.9231198423723 8.17274919489682 7.773389132887396
Sc 8.972847808657395 2.4833942575124373 3.058786974518284
Sc 8.497947672348065 1.8791517616822844 6.152113545266782
Sc 11.08181913767451 6.062818256101204 9.914396863844445
Sc 10.392011384658664 3.3276624683337035 8.366950011114861
Sc 10.8602111011463 9.9334330377591 5.136043754250393
Sc 9.910326911978705 6.062519116645706 7.056391496423858
Sc 9.82025375387491 5.5303189606547525 2.6613940870050925
Sc 10.6543441215261 8.62686779753963 2.3951552716884934
Sc 8.7708492291327 4.28699697975345 10.767255119092486
Sc 7.937389395401975 4.579142275755747 4.8259944575683384
Sc 6.050112677807604 2.285523298992074 4.167347574141227
Sc 10.23760792955568 9.067008076835116 10.41218324995955
Sc 6.794131610504733 4.571985295964718 2.0054029702434426
Sc 8.465323330224484 12.036244511170922 6.128930779964303
Sc 5.570309633590507 1.7314671722518205 7.060844260581829
Sc 7.659277396727369 7.665879606371674 1.7261798186828043
Sc 8.225509945342585 6.816055348336791 12.295910523264359
Sc 9.052096452112332 9.235813885476363 7.481118939331489
Sc 7.531211044478223 4.22878457078313 7.880778596090789
Sc 6.9809890006440565 2.1160232620824124 9.699226541018419
Sc 8.382156212993744 10.526543702043794 3.3450313233225546
Sc 8.80673017843138 7.772189651430881 4.550788019152135
Sc 8.220310147529036 7.064630513467018 9.480794740568703
Sc 5.282911838559417 11.940512357868176 4.767361180119257
Sc 5.754157821295642 6.665483021802024 4.009725755531281
Sc 6.638245635979604 7.076843419240887 6.738743367345342
Sc 8.33040164584911 11.475677584323185 9.355407581102183
Sc 5.947389017094801 4.432526902872103 11.782591466203717
Sc 3.9900821179644486 4.204977212135302 3.2366549191122393
Sc 7.546455835435978 9.608856020211551 11.533333406615233
Sc 4.923436818963146 4.560238336470318 6.261456984876718
Sc 3.999258557969411 7.05527482661801 1.982154650131522
Sc 6.532826120456964 9.802951755585175 5.818358285863383
Sc 5.964423425044469 12.207299078353843 7.753279187682255
Sc 5.604013841958143 9.55963881611391 2.8180765396981973
Sc 2.8262728142914453 2.805872062294701 5.824234483015804
Sc 6.081459568412351 9.190977520612543 8.92982414506879
Sc 4.058207913468969 3.216446769153981 9.14407282495137
Sc 5.610505049596568 5.812621367577747 9.385274454313077
Sc 3.8418156112122337 7.255808475484142 7.640685102764943
Sc 3.6969208715734445 8.868341243168468 4.926446864514756
Sc 5.2268608161803245 7.733012902011005 11.730884665723059
Sc 4.99587124707496 11.166915574704253 10.518889265193152
Sc 2.471455133083331 5.9897087870292465 5.036666886361831
Sc 1.9410525305430784 5.064525383577865 7.8968007088981516
Sc 3.5668143548728604 10.484784842305393 7.5900799414608455
Sc 3.04346521826243 5.7697187893851964 10.664276903783488
Sc 2.905482545594094 8.754035955545097 9.98590610805478
Sc 1.283672368986319 8.183559876346939 7.232296973078516
