54
Energy = -284.88509672 eV
Sc 13.782903788131817 7.723149636898137 8.501467279032966
Sc 12.192022229613984 10.546297434939584 8.569416536362462
Sc 9.823254658740511 13.1011407226924 8.151451924772445
Sc 13.336790086877016 9.256479103388651 6.089716445809332
Sc 11.33560727087626 8.278695869657346 10.47871976739911
Sc 9.25986522854591 8.571523437373713 12.690360516962812
Sc 9.084362291004854 10.777636833036434 10.576911488464539
Sc 12.566788988367808 6.125414043211199 5.905319801344992
Sc 12.005192070251105 5.261322051902878 8.945921465491724
Sc 11.38306686849213 11.668387963404145 5.611390417296488
Sc 10.980364793772155 7.763247577473547 7.546637291954989
Sc 9.904470507135684 5.750496332329958 11.363537890772157
Sc 9.498890898100775 10.205911684649656 7.5012499708960725
Sc 7.2710942597270805 11.650877520363192 8.262717295933264
Sc 6.494649660896696 9.84635618242919 12.94711042236829
Sc 10.743714584241072 3.575035448877162 6.575524323572665
Sc 8.542445184497208 12.432564078163862 5.63042446670631
Sc 10.915169188312282 8.843039315995254 4.557899501704395
Sc 8.272677451344872 7.865502379126312 9.855231869100482
Sc 9.785803554113796 2.9241327106311017 9.843142486685156
Sc 5.976482223106324 9.790555166435768 10.248235677287045
Sc 6.912390463183472 6.740024874380729 12.480631362247493
Sc 9.18720829797649 6.0457530508034845 5.331240530035387
Sc 9.088619903705037 5.347836070089344 8.32418567654788
Sc 8.833024401703389 10.729292162095605 3.1147291270255044
Sc 8.493065774126983 1.8979530952060675 7.462751022208037
Sc 6.508130835318414 14.045688245450158 7.495149931986511
Sc 7.771256950787147 3.1190954885588242 4.733329108883916
Sc 6.111805557075344 12.724912717201354 10.649252745605583
Sc 8.0997813839357 8.943169058872686 5.205013824217038
Sc 4.3554825448748815 11.655726092756195 8.228939437982037
Sc 3.5858616065496727 10.848935974638684 11.190152989018513
Sc 4.271173782430042 7.627385260974488 11.47324561321556
Sc 6.645907728074193 4.0992278026967695 7.305443852771365
Sc 6.283631968844572 8.970319346112635 7.529524137859427
Sc 5.749578587905791 1.4434300570669307 6.532134739313399
Sc 8.779760003236765 7.7225938068719255 2.4944538115170753
Sc 5.246164252975638 6.291380297754174 8.94795037211643
Sc 5.946010263213469 11.227168929890498 5.330070330875472
Sc 7.341264405246592 4.575970084893145 10.502017840570188
Sc 5.85965079766176 6.70696895567206 5.68619121107691
Sc 2.350498661328033 5.881740518513649 9.770368085038918
Sc 4.538750930599187 4.4226924937720895 11.278219424644721
Sc 3.364940347180709 8.72183985331347 8.719883316422393
Sc 6.322093077234462 2.0028115443893126 9.560070770701351
Sc 6.846956232491452 5.628441772513835 3.287501422302334
Sc 3.8519231992639704 9.021080531089277 5.584760283829617
Sc 5.953833408721494 8.710867705373303 3.174879035901838
Sc 3.0554408983291084 6.196117417776558 6.728725385724578
Sc 5.866407839106885 6.673374014855228 0.8321479992358809
Sc 4.650207686179016 3.9963787588565 5.058797199306215
Sc 3.8560455575268535 3.538252060556386 8.288058063771896
Sc 3.925093145697699 6.3916871037673815 3.276678019803605
Sc 5.095639753899052 3.7844941269500056 2.0152096432733226
