54
Energy = -286.57277424 eV
Sc 10.413280056072518 4.940220905285302 9.692064238526239
Sc 11.6144846358998 7.606993308497799 8.683254844745782
Sc 8.944708494499558 5.064065569328935 12.552911203684229
Sc 11.97469839034071 7.334965327966528 5.257301327865855
Sc 9.913304086021663 7.768311467885451 11.347374038390427
Sc 11.67007265559997 4.5930081138908845 6.697933086094164
Sc 11.289872245004222 9.794168819573413 6.792159655100368
Sc 10.77370959953399 10.709134489653886 9.62093444235039
Sc 8.027174015481393 3.0680125704186856 10.535678834910586
Sc 10.256972588365594 1.8344132628861 4.877288152336587
Sc 9.432801858472702 2.618044629722601 7.8629256672847445
Sc 11.074573028356573 4.802416693290846 3.474669606858006
Sc 6.97063131730835 7.507179265755124 12.65325194785892
Sc 9.321284964520995 7.2617663476321 4.087371612687556
Sc 7.898768368072993 10.30141810101234 11.423908396578238
Sc 5.836458305774475 4.601693763328668 11.952597719968175
Sc 10.450998135162916 10.146701353131261 3.857764747525387
Sc 9.267577960357075 6.592657254692187 7.130371792249636
Sc 8.113011892866016 11.925794904848159 8.851334566075787
Sc 7.689921988938409 6.098934967706 10.052854878412797
Sc 11.357255255675796 7.661556583271527 2.1093367690565477
Sc 9.608709326767038 12.26885800476033 6.290293694591386
Sc 8.651426847868578 8.925458063050986 8.885920166004544
Sc 8.48177584333636 9.646548953976083 6.01876587300357
Sc 9.011077443333116 4.209819413339398 5.4792458205994885
Sc 7.137686672823802 2.0560661676777205 5.716271194606182
Sc 8.299328965834366 3.134790765137208 2.8478012252281615
Sc 6.835096880141972 5.457797662376581 4.107811318046126
Sc 8.906804182702947 5.85075423501839 1.5494009323180002
Sc 4.900172688737157 9.931993049266348 12.591789627373224
Sc 5.243998770021087 2.576099068433187 9.58198980496575
Sc 5.65450360853001 8.546901647305974 10.099443727750186
Sc 6.894814002262065 4.235625227782025 7.70067395968837
Sc 5.952408895252174 9.887673096890675 7.439835199446824
Sc 5.360745727948343 11.586303337708813 10.026335990161284
Sc 4.617085384006061 5.739909603346512 9.198357883366029
Sc 2.797323909812363 4.1320337709040205 10.902637766016603
Sc 8.319227742411567 8.932415089598608 1.6994436721897488
Sc 6.524284518418542 8.543840728077216 4.0748266087221925
Sc 6.03539724728989 6.948129152388474 6.650884455140195
Sc 6.381143727144706 12.479125568656986 6.397442221871697
Sc 3.7899509287562396 7.030421966176119 11.919531162230484
Sc 7.427142420233769 11.338573822212712 3.663155495661343
Sc 3.083284611046469 3.5258931275000656 7.955781723278302
Sc 4.551550721418307 4.366018937522236 5.502046414246632
Sc 2.915063556800709 9.691180242210807 10.266593007752247
Sc 5.9889343513904265 6.773896725350977 1.6460860706728149
Sc 3.4631857135043727 11.534341579183838 7.685727181548881
Sc 3.401562557528038 8.446272157710455 7.4194352597591555
Sc 4.423321324383571 10.488577090494598 4.906910008570513
Sc 1.8543693189722068 6.681569018234142 9.485820875432854
Sc 5.147783544514434 9.691011633137553 1.9163669151990659
Sc 3.9548799946938296 7.327696918938435 4.2368506069080025
Sc 2.24683755065161 5.947678478559015 6.582518825242077
