55
Energy = -290.28424884 eV
Sc 3.7543036147819935 7.026995923203938 7.638328613077228
Sc 9.624759359029655 12.50443427657926 9.699744887428364
Sc 11.10889520166055 14.140776540577551 7.904242919556782
Sc 6.4135458817347075 10.447255843034696 11.446651938707824
Sc 8.087766726213818 13.38779071221169 6.5291257671783764
Sc 3.9419151286238234 11.967091036091736 10.427220806315036
Sc 14.245764641268558 8.53460347050431 4.956706960934229
Sc 9.38676888050254 8.108662164077815 7.942386048291546
Sc 9.657726897550733 7.888482353743602 12.533788367032932
Sc 14.04343466763497 5.747626594960273 5.707047775157933
Sc 8.64814628426504 4.878449101135976 7.5771628780656695
Sc 6.354935838747793 7.746091059913662 13.309774431303051
Sc 5.508401446614058 8.7220711323067 5.390067927256287
Sc 13.99680323926632 4.6992113559857325 8.371139597096311
Sc 9.042932518814531 5.214786042038322 10.777644997782946
Sc 6.670573985124408 7.149777545887772 7.570023939839123
Sc 11.240282839065083 7.080607655635717 10.017820937479573
Sc 4.8303774649890805 9.116892627946033 9.478631776423457
Sc 5.732446134080007 4.915880750201307 9.090417234882445
Sc 4.213195781447926 6.6522617767031536 11.050261489895913
Sc 11.799496953636261 5.526206448839899 12.251261950751855
Sc 11.283657580993143 9.033425605871605 5.584347595890822
Sc 6.290775526956967 4.870691218944619 12.24286822502306
Sc 5.8439198838015844 11.866901824236294 5.24011843181912
Sc 8.341449658491577 10.088392879424825 4.820878663451708
Sc 8.144132046983504 10.332159022162607 13.728259218844217
Sc 8.986872056372853 9.771917316152887 10.445709644729329
Sc 11.765354040322963 3.6930290226249567 6.045656005577862
Sc 13.250478124458805 8.1684199136855 7.680303409420325
Sc 8.68590089051022 5.543751874896707 13.869127091005684
Sc 11.314815109990802 4.028316711477376 9.27817645412028
Sc 7.128308957458102 7.338311325583746 10.550126989684419
Sc 3.83696229591124 9.534703518264829 12.392659006432792
Sc 14.26904834452316 6.916135273084618 10.325719864906429
Sc 10.03853904580171 11.275646373584024 7.098685943398379
Sc 15.883043498349274 7.297959232471138 7.630383493829166
Sc 13.235541748257122 11.211402902300172 7.067984816807681
Sc 10.723460713808274 14.659099869976105 11.038142382483905
Sc 7.159750011261659 10.164643861604082 7.546031005586954
Sc 10.810634182223067 11.46545725596161 12.241936171501482
Sc 12.753762411426266 12.571820497895313 9.975792593090336
Sc 11.658821052581008 10.002319195096323 9.307991102123435
Sc 8.596302182403033 6.9990406676932055 5.236411562437264
Sc 11.286541947121409 6.148081579731692 6.998445370537433
Sc 5.620796216168395 5.32577533128302 5.871158198386337
Sc 12.67641763392399 8.835535317283489 12.043203036182291
Sc 7.983708036832385 13.076115401826506 12.134564617953213
Sc 5.237025966894992 12.245135028001613 13.251309062103603
Sc 5.551778777642601 14.502375162269868 10.951872075905307
Sc 8.061069854861575 15.033406900087689 9.124779744812589
Sc 11.75560204099338 6.42420050988938 4.092651512140382
Sc 6.664201614621586 12.410032119344066 9.192541489649289
Sc 4.191840256633411 10.975310579788982 7.34810656897567
Sc 14.661389899211436 9.853953683680569 9.63388147133811
Sc 5.212816268106972 14.087769973192515 7.547917296345423
