55
Energy = -288.66422318 eV
Sc 6.60012321022323 8.108848647133332 6.677211722055863
Sc 1.6470785244097792 2.2913694863390837 4.803596531961154
Sc 7.123103857883277 3.174465865042706 9.169952358260488
Sc 1.9867163544122624 7.388354205255694 9.492871584803883
Sc 7.098066113730319 6.384667039781946 4.124264286218779
Sc 7.363039342658122 6.182717958887533 9.106052121548927
Sc 7.238298512703976 11.093287358674447 6.977429587991006
Sc 7.559977572153602 9.530642906127381 4.132009262045697
Sc 9.9834394414122 10.835761724370226 8.963275812911487
Sc 6.548018470052616 4.237562243859366 6.294423560515297
Sc 7.109263793426323 2.0473942192485874 4.13892853766939
Sc 4.728694079253391 6.923851477697553 10.33159964496713
Sc 1.6717841105771059 4.497822200528815 8.659849367022249
Sc 9.845407318045156 7.29830663957395 3.8076286836325695
Sc 2.644646410535191 5.2882786772142385 11.580965532968838
Sc 6.414977462409073 1.1475012999559953 7.022230255188323
Sc 9.223731422894009 4.293129444583716 4.058347519299344
Sc 9.96925254166738 4.209027948957123 9.235848169748444
Sc 4.316415945977102 6.078021426877368 7.542406154927701
Sc 1.364075874389997 6.582842970211078 2.89516557337128
Sc 9.184750300185943 1.111686716083047 9.325299330930765
Sc 4.492014270775325 9.319124296701373 8.535295413979588
Sc 2.229725731233502 3.7204602502577506 2.030595658298788
Sc 7.577233629254419 9.266106043743296 9.345976458439651
Sc 3.784220388090138 2.86845118355747 6.892403375455357
Sc 4.190063840828846 6.1355094174217495 1.729645679291846
Sc 10.220281978849878 7.66514077343662 9.031097661313856
Sc 9.103973494948615 5.975412024889 6.5839663586813355
Sc 9.389557350897407 5.49524334064547 1.306506275608986
Sc 1.9542228109297242 5.6876395529144865 12.675318893783095
Sc 9.413914588844394 9.112452154006434 6.513550184706517
Sc 4.942392790879173 9.250064122379847 2.523331619375095
Sc 2.544654585603832 8.479207858145886 0.8477298475206098
Sc 9.046447961204025 2.675854812412694 6.763294529493196
Sc 2.1783312062550877 9.353573975149137 3.688544029959476
Sc 2.2019797461555473 2.160915022300033 12.512693774807602
Sc 4.208027818624928 7.126840714013276 4.5752562380087465
Sc 4.701236123188885 1.8564614749652166 1.5314175125728235
Sc 4.794831192916765 7.134908507182491 12.009800173300901
Sc 4.59896895710879 10.081267820816171 5.4562623622444555
Sc 2.0369889343209184 0.7350909034666707 2.218672981976347
Sc 4.485324054439085 4.125665466476745 12.525240003707848
Sc 4.490177924607156 3.855728197779415 4.02256247248463
Sc 7.144976311924666 7.431100486991783 1.2821710224965615
Sc 7.299191579951497 5.364819397780554 12.102244662671007
Sc 4.270431457004066 0.9052894901465656 4.504149182959381
Sc 6.733915620587793 4.270328062870626 1.876565380378253
Sc 9.09763095299561 6.073372606970578 11.523842264042147
Sc 2.163810549171914 5.199935098462335 5.620739732458684
Sc 4.302904395666649 3.7599169801688728 9.742381150192514
Sc 9.669227470957379 9.169752232698485 11.491925742273592
Sc 2.3334352961810283 8.185185734330458 6.575887817202553
Sc 6.904072029978539 8.003244466390212 12.0098001733009
Sc 8.680910980664725 2.955102010000701 11.662668838947468
Sc 6.201696546458124 4.902928294624742 11.826362534166257
