51
Energy = -267.33670166 eV
Sc 5.74664763163879 5.168871919895188 14.349553399237832
Sc 4.501207189153089 7.053530357649794 12.355798951354519
Sc 3.221215211444471 9.292062050404912 10.446026055873308
Sc 7.476669710764699 7.175839853031173 12.76876285413276
Sc 1.8492336568921435 11.597692547208693 9.126611078246027
Sc 6.331293952403361 9.268775834366132 10.89303976713507
Sc 4.965524062123182 11.41064696211702 9.196602983358927
Sc 9.495336893460976 9.111350959612006 10.913138984900447
Sc 4.654116341707176 4.059899155043821 11.721604383187561
Sc 7.675224323040772 4.316559281941933 12.190335383540907
Sc 8.295491589570569 11.17782381641101 9.09810058029487
Sc 3.116531287070237 6.345191214500562 9.695325361403652
Sc 1.7325476429525497 8.797331605042302 7.856132030100739
Sc 6.181901774184213 5.944309894508608 9.961180361965061
Sc 9.074337370874373 6.307210223936401 10.31125702941453
Sc 3.4340053269243467 11.025101476474777 6.645192142621011
Sc 4.699719967737467 8.463744445996738 7.822898989542774
Sc 11.89703103610974 6.798020749962231 9.499438667565627
Sc 10.27091616059448 3.6144708522537785 10.34220616401752
Sc 7.774826825065441 8.409154324498758 8.325555480025326
Sc 4.419531041068899 3.7576399415093125 8.493728229862995
Sc 6.515287106617725 10.907119379960262 6.612419720511482
Sc 7.0364838366812394 2.6710057047058213 9.872986877300127
Sc 3.0279947307113972 6.028925776702087 6.643528426089668
Sc 10.80336706543237 9.459994164395102 8.338826754589194
Sc 6.036680765079232 5.535797519089572 6.61019347667527
Sc 7.919469544041742 11.46477967986702 3.83280315299905
Sc 12.415446447068703 7.733690670273778 6.396150698030473
Sc 6.35155679671639 8.33381771158278 4.914702611335025
Sc 11.533647644291472 4.171017863898178 7.666337082150362
Sc 5.0629877281028515 10.896828944216546 3.8802877044736657
Sc 3.2510784922160454 8.589331629367557 4.9240158837430945
Sc 9.58656614730646 1.6582372347266736 8.157837554114236
Sc 9.930233755787096 6.801965127832101 7.257988947779567
Sc 8.5203342180048 4.346754663127013 7.9552739998012605
Sc 4.058461343161934 3.418989284494699 5.438790349718779
Sc 6.690221799402857 2.3487534814679427 6.774330180632617
Sc 9.236367996999206 9.280417207237102 5.702379591893332
Sc 8.492853983558518 6.100389826854751 4.675758867763019
Sc 8.070311866370169 8.827874239351223 2.415081110629842
Sc 4.983411200244059 8.559670483608617 2.021914477218695
Sc 6.548749710785883 11.04383774849934 1.1380658959991476
Sc 6.766614876592632 3.73586513966535 3.9974991668560484
Sc 11.499704535976349 5.263664542225853 4.868766692253344
Sc 4.607814003571468 5.9970537766497864 3.8825642935725457
Sc 9.486576550118286 3.107559508208455 5.374680630626955
Sc 10.745309060865248 7.644600155054842 3.4377822273104197
Sc 9.612363437846254 7.133349843904889 0.502661623858538
Sc 9.750920700861005 4.760611568224861 2.4680092049495395
Sc 7.0156903287988435 6.093492535771328 1.8185044359497533
Sc 6.918293539639228 8.262628392167999 14.349553399237832
