55
Energy = -291.39638998 eV
Sc 7.725454091554997 8.174407161922963 9.446616365337
Sc 7.440626084172406 10.608813463452186 7.356819845400599
Sc 4.665145829448401 7.0816451156637035 11.765604203512982
Sc 4.517619206503755 4.098285359110552 10.53623110837776
Sc 7.125730643991508 5.603299273281446 11.458289823597175
Sc 2.983445260081187 10.538395166814217 6.5187657349365296
Sc 10.22179087579167 9.539347929298062 10.752017835951284
Sc 7.246798314205318 13.561660323999435 8.23961697303739
Sc 9.721096673688772 3.2810847994003653 11.326607409427057
Sc 12.548598772791339 5.495835656494772 7.226653193118475
Sc 4.510574956837403 6.654039179553628 5.915966559588293
Sc 4.83671556978019 11.705747780864682 8.778452954160054
Sc 1.9366420884673514 5.3511380027002575 4.774604318160255
Sc 7.639711659054409 11.209036786236087 10.412251619009643
Sc 5.6850541353808905 5.8582292031762595 8.663390956028138
Sc 5.741876920949182 6.829437683453204 3.2874424162136213
Sc 10.211774191897453 3.996530804479223 5.498811199025368
Sc 9.907245914470689 6.324638663504682 10.919103791434804
Sc 4.769624708253428 8.757289433389664 8.088349047855399
Sc 5.6283996383217625 12.466615893430987 5.8927364367061505
Sc 11.846170841876846 11.530627659035678 6.308933423278664
Sc 10.373525171119393 9.181788599417612 7.739761430837737
Sc 12.741060812580141 10.57974178993557 8.96486263692279
Sc 12.27396664574568 7.599100237071571 9.403859427997102
Sc 2.8509127829288325 8.166368488441684 4.009308600342619
Sc 1.9318592822544092 7.664660894225471 7.015361621985617
Sc 4.176573711696359 2.275399581934259 2.538943572250477
Sc 2.7409445366679916 2.3441486548210446 5.303702576093976
Sc 7.820376012681692 3.8790141990876346 9.192455536390657
Sc 6.210899709288313 4.4136067504382615 1.626934489293458
Sc 3.375387846877251 5.305495369561101 2.185824094053127
Sc 8.110293000693494 1.9277552180400361 6.717223384543417
Sc 13.079028344160994 8.67410620691407 6.6191469623124375
Sc 5.249092053727048 2.8191609004791367 7.512702967026309
Sc 9.642654417232011 9.996575105414015 4.9211185587839035
Sc 7.3281969679240655 4.707460132375245 6.16493285799049
Sc 9.68425307869435 6.059026646424935 7.909377440552886
Sc 10.672691534090792 3.1205499882154895 8.347773409482164
Sc 7.696713589083451 7.687147639762132 5.74789611647314
Sc 5.466274395721522 1.0487279125116948 4.994892491573949
Sc 8.88627649475054 12.79715637359932 5.832581729290335
Sc 8.225344268330616 8.443153451448516 2.75634564985718
Sc 5.440087178018055 9.520636605393909 5.009486203998481
Sc 2.4761630350746833 9.682309861635554 9.644111818009938
Sc 8.549550562022167 5.543402448955747 3.492001759730649
Sc 7.646920170008277 2.658230570042507 3.764176445706012
Sc 7.596064887794499 8.471707699911772 12.4106997397337
Sc 10.715411811453821 7.08044791813389 5.183417832714806
Sc 12.221785615219657 4.657739206809368 10.197907614077781
Sc 2.839306281497586 6.680993613869199 9.637392662721219
Sc 4.936876051745753 4.050051726648216 4.546030255845607
Sc 5.232576582113999 9.725242133186441 10.941250934221497
Sc 2.906946328727189 4.627577499704207 7.5321905770550694
Sc 7.330352234433967 11.21896399661174 3.6344370122240663
Sc 9.993391935060059 12.058300946653782 8.66648008268742
