54
Energy = -283.2850241 eV
Sc 2.9814166656719405 5.735098742464652 8.713181710034815
Sc 5.065234014957515 3.3057392574588373 8.254247821567926
Sc 0.8757484956107037 7.802260322303857 9.54517146791982
Sc 6.693487917685515 3.3099127352381146 5.692148997768979
Sc 7.605564205164363 1.2612872451336152 7.81759518141773
Sc 3.7337677576258086 7.283967293416069 11.167883023816241
Sc 4.48317517723778 4.217024162859383 11.325039169115971
Sc 3.9069638887160805 5.222609399697447 5.811348938691445
Sc 2.900191126408492 7.1458416837739795 3.459206195813078
Sc 5.623444783034695 6.583853079163505 13.217625883819439
Sc 6.800079607483992 2.1338923608033005 10.453982001649813
Sc 1.5937297339227787 7.377852045735051 6.527737502601823
Sc 1.1850672594922171 10.100147819362213 7.5782125988803895
Sc 4.387313623616934 8.03505638162737 7.171111376904977
Sc 6.832225384636784 6.186118785216848 6.419088231195987
Sc 9.857081111522584 2.810296004172124 6.32394407850911
Sc 3.7863280498440854 9.880707230663084 2.1251734968959606
Sc 3.2621055656364946 9.58468723665027 9.54487987097108
Sc 7.472953173660484 4.597243669842683 11.835601053235326
Sc 5.916791492543095 5.521510272849081 3.4060315840147304
Sc 5.503964317484451 9.633375394246245 12.244888533803337
Sc 10.098408129649236 2.3129722922739444 9.47630752498863
Sc 8.857314966224003 4.630145717255245 3.914499196849244
Sc 5.992575423798638 6.044942781059127 9.505705711118534
Sc 2.830984279467361 9.83473313038862 5.016875502372135
Sc 5.056454139782793 7.464489216472124 1.2772510763761529
Sc 8.164173505703058 4.1528120964244115 8.517676306949886
Sc 4.295951404179465 11.309933548386782 7.299446869246273
Sc 7.94229078169021 7.596242189647714 11.644487369070818
Sc 6.141830089486611 8.957063984807267 9.544653627116768
Sc 9.968834625099806 5.526550911998938 10.675253301003492
Sc 5.4056287652520405 8.389693604660671 4.214812791738717
Sc 11.826247908980294 4.743172037128841 8.859410856870914
Sc 8.062074109728124 6.939064012189719 1.5937288167378747
Sc 12.742586110659328 2.73116841923626 7.106180926823751
Sc 8.600635457886314 7.411187063292235 8.538700399298758
Sc 10.24063947617651 5.895828172682741 6.527488115132414
Sc 11.989105889878088 4.4091948485532635 4.598231857571822
Sc 8.535238844862551 7.817791649913486 4.364859349041773
Sc 10.837861051807355 6.313051877150435 2.4527012358675075
Sc 7.001272170518301 9.864576181584436 6.7055197770540165
Sc 6.804976730317542 12.997920932435475 6.614493313403865
Sc 5.432741530263521 11.437601294150447 4.392524069557955
Sc 6.613812008811216 11.84482805327878 9.441910579202597
Sc 11.077207803060933 7.989349305304695 11.80860671029251
Sc 11.592578428398163 7.750606008637408 8.781939043928578
Sc 13.441402496338457 5.799565127097419 6.7724369606379655
Sc 7.058163213348222 9.811010763293748 2.158755577962769
Sc 8.592398483909864 11.19059844692296 4.554206538196896
Sc 11.950261231930458 7.641235125683031 4.741799024258527
Sc 9.250810505593346 9.83138690203668 10.05093853650454
Sc 10.219818657916612 9.264823941252757 2.501303936885442
Sc 10.137613899521313 9.261638886023874 6.5141397173719
Sc 9.23330095743228 11.840139347805314 7.754368621866878
