50
Energy = -262.09036537 eV
Sc 11.4044368348327 10.24182712397099 5.131213258659117
Sc 5.538944000768623 12.079697469870894 5.054502851475627
Sc 8.48946083199122 11.46944693766497 4.779210054548093
Sc 6.524177854979594 11.208296128648541 7.736436932206417
Sc 6.550680431647724 10.135101410357862 2.813837603593429
Sc 9.65289364692426 10.733557990682035 7.524068735749145
Sc 9.377215457214456 8.700109787491543 3.5685534221476245
Sc 3.4831917889827833 11.569129878577762 7.497397236975189
Sc 12.529957372352824 8.917708101237812 7.566905449128984
Sc 3.744509877914237 9.764893243282863 4.867760704399261
Sc 12.307592275445746 7.502254306451468 4.532557199008585
Sc 6.786501222733112 9.12638562378956 5.451840375975768
Sc 7.636426819432914 7.137428739312253 1.5201960641841792
Sc 10.293290999683558 5.930435127175492 2.407506399898882
Sc 10.21209798796437 8.762111100253252 9.710469505228508
Sc 4.482996998676408 8.729504553338828 7.762327648773554
Sc 4.990237839049712 11.407723904572558 10.247502192340086
Sc 7.68141336256506 8.341862350616626 8.2514069794647
Sc 12.854832164693146 5.957385469084538 7.065961293841684
Sc 10.181156780456568 7.629398135595923 6.570853859798324
Sc 5.129075763513238 7.29089894695068 3.3969528572759797
Sc 10.824118942464137 4.722494446277067 5.232159259180874
Sc 8.079448887994483 10.712052573934258 10.353227331506178
Sc 8.619644049139405 4.420425969990011 0.4108398640816796
Sc 8.009433784950593 5.956248462374439 4.278070794050248
Sc 8.613727739949605 8.391865973488521 12.282636469186706
Sc 6.2672595064031675 4.519240125650581 2.307206492569199
Sc 8.517466384913806 5.116907676575016 7.520605835915366
Sc 1.5139742258576743 9.380077890729934 7.1448211603974645
Sc 8.87495915809845 3.2699831638544756 3.260251329691604
Sc 5.773849683776985 6.2148281713184845 6.298230319983847
Sc 5.841723286938126 8.619330357208245 10.777919537344566
Sc 10.949251862270152 5.97879337676472 9.433745276727798
Sc 2.700547904525414 9.532333888348552 9.92900808463469
Sc 2.8280139786593184 6.995351449902788 5.722033918671283
Sc 11.310678707053786 3.47257564485406 7.870690707282839
Sc 8.870013791771667 2.388568447454244 6.533707474120185
Sc 8.069086946658294 6.197382905356906 10.407509378804384
Sc 5.241830447822447 5.882577689783731 9.368130976043405
Sc 3.824838989035332 4.682466729581308 4.1250750017983915
Sc 2.2568187284742502 6.655657550466129 8.736260119566849
Sc 6.02875899824058 6.252105631128722 12.71567126800571
Sc 6.290211875959104 3.3454438176509314 5.182073304631381
Sc 8.95990460304346 3.1901638598032767 9.701834284300055
Sc 3.3211244046439274 6.749683591546452 11.556790906201964
Sc 3.6269863204005754 4.358703958837973 7.163019088259342
Sc 6.196016475707396 3.6743240907940833 11.320183995346326
Sc 6.213536188647706 3.099174148259036 8.284979428294026
Sc 3.27664850309505 3.884993130233978 10.336919304169248
Sc 3.8741431358963534 4.214190458467581 13.253906866096155
