51
Energy = -268.38130183 eV
Sc 4.450455014481586 11.087351116253178 10.825362080336573
Sc 6.599375258305745 8.870493254588569 10.977742829720588
Sc 9.121977866455492 10.684938821426313 10.70798395111788
Sc 9.331776845927031 7.2391491244593364 11.121345685506842
Sc 9.094168904265377 12.805785855094818 8.152972163224186
Sc 6.761267388372353 11.19819112723973 8.82907628910782
Sc 3.639313135776564 7.988947952858571 11.423534952446246
Sc 11.051962723944865 10.782394806907888 8.416902618095328
Sc 1.850145539042979 10.176632339493318 9.532222517685545
Sc 9.208170037063763 4.288745665374067 11.76955561614163
Sc 6.5721451404482 6.003376915402987 11.487978655500422
Sc 3.8961666415262473 11.750786885605853 7.776195983321793
Sc 11.681929608944323 4.756101336537578 9.952550699801956
Sc 11.484164698696787 7.825743675033665 8.990416095309161
Sc 8.474256922847285 8.621748889332615 8.614481632471918
Sc 4.377298124831768 8.83909200120143 8.772619125900052
Sc 7.187524465375523 12.434568278903537 5.719049747223791
Sc 10.681901924600735 12.30204783293956 5.693775483644809
Sc 8.92035235881711 10.22723434642189 6.288651000007809
Sc 9.865153858181802 2.324030681097684 9.748687426649095
Sc 1.8046445078110158 7.137652011121714 8.771803221463262
Sc 2.307805673903179 9.28192653996219 6.528512828023457
Sc 4.056490785961247 5.315276000786929 9.932212989971166
Sc 9.279392011578967 5.310138483316366 8.674722816631677
Sc 12.186340496026723 9.214928486022949 6.228022858869712
Sc 4.369088800999037 8.946308537918812 4.103859873783087
Sc 9.91359752343577 7.24788206234532 6.046518726511647
Sc 5.867428722075199 9.793648288569631 6.444686000654047
Sc 6.38782759053319 6.4358934737587665 8.409681303953606
Sc 10.475777620132684 9.744519373189855 3.7975020486665243
Sc 7.3550292946804765 9.817490664091077 3.566896031773599
Sc 12.33827651124099 5.827161127565406 6.860514280846973
Sc 3.938122485369761 6.653451136733624 6.358968301792308
Sc 6.938164203248103 3.5324622979775713 9.841665330776424
Sc 6.934894220150834 7.319525714094248 5.25336413635763
Sc 7.9847330666955205 4.47138028358111 6.006213764381725
Sc 2.2472326773553513 4.358141592345786 7.674958732413743
Sc 5.201483677671752 3.773675755321846 7.209541444589444
Sc 12.19819642868345 7.299161895588834 3.9422115731052503
Sc 10.816678004558865 3.144077183413692 7.0559474720776185
Sc 1.1292449591445268 6.349760584203308 5.70498167213578
Sc 6.006439155035169 7.103100829398379 2.3432395016795957
Sc 9.141418663015717 7.165442492382857 3.0031025592598914
Sc 2.9531874551954322 6.462140291579964 3.238686385136376
Sc 7.88088142570311 1.825184455326656 7.3778326076842395
Sc 5.2764020164584915 4.936553125393181 4.290401185897118
Sc 6.216194972527311 2.167954055939533 4.723929421142149
Sc 10.70120866454941 4.70380147084033 4.3813265589594765
Sc 2.7529584869297645 3.7628215161986796 4.861931430050795
Sc 7.889416733776589 4.36488163568271 2.9939204765071965
Sc 9.220064174698846 2.0216033356784275 4.630013561117822
