52
Energy = -274.14380127 eV
Sc 11.487717922668065 2.9526523912299707 9.04209357261042
Sc 10.609021944724422 2.6438157883337663 6.266162707894531
Sc 13.071947488304364 4.468322163134978 6.740302095958957
Sc 10.110772769050287 4.7037777012218704 4.2292375766523165
Sc 12.683371334318206 5.488762973590421 9.729395297082297
Sc 8.622664875880625 3.68225100768104 8.204571483674494
Sc 7.557471815904138 3.575737930468441 5.535867119646585
Sc 6.872773137042921 3.783006652072156 10.533784440780384
Sc 9.957230130496141 4.85159432488269 11.176146383328396
Sc 10.686178861837085 5.7406309750773445 7.41518692362441
Sc 6.935720134831286 5.810590583392688 12.533491061881776
Sc 12.109730516332665 6.816566267805234 4.6127989231172535
Sc 13.150671725187827 7.604272546639666 7.5624704461052845
Sc 7.021720723146102 5.2810916215780725 3.2262016497142887
Sc 5.445601256664637 2.8960694886361464 8.039305876216774
Sc 8.323665371458615 6.635755404186931 5.786181818140265
Sc 9.342242441700934 7.471890582638613 2.9472478307921985
Sc 3.859742251063489 6.325081177994173 12.88504633544678
Sc 10.999265319322483 8.006159919441476 9.839398519938886
Sc 8.247148502323315 6.463515757369103 9.591055164584377
Sc 6.058999554601741 5.73022696621336 7.507103281250539
Sc 9.042102773142005 7.879783912147989 12.217177746765493
Sc 4.579298252219335 4.341606293914685 5.2085929623597025
Sc 3.8570453389597743 3.957588598400786 10.75158556705235
Sc 8.82097624515911 9.216057845490514 8.122461835518038
Sc 10.70975367260325 8.628149083513867 6.127439782473407
Sc 5.003380031283625 6.617766936762484 10.184085267309396
Sc 9.335477175811716 10.564570259166555 10.780302812350483
Sc 10.559065854308805 10.285643760039154 3.67064255677549
Sc 5.300971883385313 7.385497972458372 4.81059835082499
Sc 11.479188575082233 10.578332620846789 8.279220152730888
Sc 6.1409144705787115 7.962825096723171 2.002763647671562
Sc 6.699802584006965 9.118611443040189 10.275444258511195
Sc 6.140157477832476 8.554410410077518 13.156986943673697
Sc 3.89289479860781 5.840867911198096 2.639298168627263
Sc 2.068605921492086 6.500548610014181 10.467467404623305
Sc 3.1384213679665374 4.996185446928935 7.962498665747946
Sc 7.713424022112998 9.533906769277019 4.6227261888527975
Sc 6.0244976007904265 9.032762938639499 7.323017228935803
Sc 9.298112202571339 11.588882800758235 6.296056496320323
Sc 8.236648026188819 10.1830031717845 1.6866287291687396
Sc 3.7556475465584533 9.101041470929747 11.304617375162836
Sc 2.5107711979921516 6.762565901440343 5.322507823929068
Sc 7.381727980433092 11.813204079110687 8.854177357258182
Sc 6.239062305793365 11.362223790894678 11.759672002963082
Sc 3.2489774074765343 8.15647642531377 8.081845881183861
Sc 3.1741133284745713 8.629267519075878 2.9311613170420023
Sc 3.648375678295489 10.023634797771672 5.619651194406452
Sc 8.177540042412671 12.385331060712884 3.6134444360003224
Sc 4.449586473917128 10.998689797482948 8.847507581070213
Sc 6.105914830628385 11.895666955103056 6.086944100063043
Sc 5.442749294511524 10.80622097352789 3.180929325443628
