53
Energy = -279.17562554 eV
Sc 2.72352186269615 5.074121100527958 5.769190143988966
Sc 1.7361254148848666 7.9450211711504455 4.965248432896136
Sc 4.243611997978995 9.205137915517515 3.3572082758056605
Sc 2.0132236788230244 6.887414481417146 8.052007881061709
Sc 4.62507641373622 6.231444974420887 3.520395361999055
Sc 4.99793882782507 3.996449254837678 7.091562494725247
Sc 2.992932347162117 4.321942845535186 9.216916404727078
Sc 2.5846221670253895 9.878192206018024 8.223653831836016
Sc 6.024987012560411 3.594122717909543 4.560622759822192
Sc 3.130096453781742 10.737359524060809 5.394889817770703
Sc 4.117424716303868 7.829836888960612 6.258575655851334
Sc 7.149356788694498 8.159342648715548 3.1241097275680607
Sc 7.208688887136748 1.7030807516537676 7.207518682888254
Sc 3.4112754755260926 8.111888637066873 10.597698323129519
Sc 7.721232010516122 5.236243416642165 2.762911598430092
Sc 5.188088611517887 6.343103713951085 8.876792368920583
Sc 6.7677215017590715 6.480536106745449 5.6518085725197595
Sc 4.237880708409265 11.112624648223663 10.584254881678062
Sc 4.725908482815853 12.073388947433438 7.597034534593621
Sc 10.356306760788206 7.352440822099659 2.8095752503217772
Sc 4.613652171681802 5.3905385184157995 11.785876463054555
Sc 8.951419100348724 2.6545800865496716 4.64798769595116
Sc 5.689707315674323 12.06452139595397 4.070135618450164
Sc 8.007771653836851 4.361032707703541 7.346934322276088
Sc 5.565064037294161 9.381173553038929 8.678381512774967
Sc 6.124441508571121 9.84018097959996 5.668023574106546
Sc 8.536176381321901 10.14688442228639 7.326377153722019
Sc 8.599578729180328 10.845750401648942 4.171281270182742
Sc 6.064158415816596 3.459261906837594 9.791852998233843
Sc 9.407933880603725 8.093852994016045 5.574704678802079
Sc 7.539714481762838 12.716622883198209 6.5357501028062135
Sc 7.183871723142835 11.788648470660036 9.54746160579566
Sc 8.258764210274917 7.295905265338134 8.497256091124228
Sc 10.654940177386989 4.211114127856825 2.362759783117775
Sc 9.742202442748159 5.377570626428187 4.938925847530412
Sc 6.443680740857524 8.803215804033337 11.391000968395279
Sc 9.07183410218683 8.091230319011682 12.921688166850526
Sc 7.5300689488444466 6.003414458419285 11.181012473006133
Sc 10.286707538754204 2.5138611781805316 7.342048390191741
Sc 13.120336395196096 5.751111532798482 2.7238817468302052
Sc 6.963988459752704 3.61128974025903 12.78123069978031
Sc 11.220797576142221 8.76748281132419 8.057098022778568
Sc 11.227478646644814 10.512757418170809 5.5634154017169015
Sc 10.163218986849865 13.322652648443597 5.135761081974692
Sc 9.260256168965778 3.811972364027928 10.11712714491554
Sc 10.31220545358667 12.20161794469344 8.047965829480747
Sc 12.216925684869052 7.085512508482425 5.270680780919656
Sc 9.302745445193105 9.667187517405209 10.226108855602266
Sc 12.124166464467827 3.847565372396705 5.025516172652111
Sc 6.68927065918688 6.499114100559664 13.905802486032638
Sc 10.911818513794833 5.4966821890602455 7.733065160968861
Sc 9.469830910388264 5.137177806792276 13.210282970176571
Sc 10.518078430839779 6.729264228558276 10.62635706273457
