5
Energy = -20.41340622
Sc 6.101343502028571 7.559742281841563 5.216307969456232
Sc 6.043364872048961 4.585463998507109 5.214188200994218
Sc 6.0719370647032145 6.071048425611097 7.78908273078787
Sc 8.372502269877208 6.034109354113489 6.070945491796617
Sc 3.7718889222340604 6.110672570819108 6.070512237856958
