50
Energy = -262.16843307 eV
Sc 12.280751723594607 7.038270560376849 9.700852502053893
Sc 11.742986437509096 6.943592380107815 6.725119694019426
Sc 10.27781369718312 4.432515218495609 5.236792184417369
Sc 9.697797561973314 7.418299912294197 4.443941427062105
Sc 10.874502150713095 4.473243875062226 8.281386984116514
Sc 9.920981364009553 8.590633022208511 8.631714015263594
Sc 8.569040036240702 1.9993440532129692 3.8059440098236026
Sc 10.803833949695989 8.795807947888745 11.4947456683256
Sc 11.040187124664516 9.852006059748163 5.878978149715478
Sc 12.13388555313535 10.080624161440458 8.928510912793428
Sc 8.184207832906983 5.027951597358945 2.982917687503801
Sc 9.325254205887786 1.9703527928495197 6.790081535420657
Sc 9.384374297977642 6.189968034329032 10.482077251098044
Sc 8.712992001773872 6.211265241008709 7.277271196875991
Sc 10.400494834534207 12.728728161857166 5.180363158574985
Sc 9.482034261577116 11.660045412090033 7.8636940964026785
Sc 7.584283505524987 7.926107802939184 2.276806439586927
Sc 8.560625493276616 10.609016936556884 10.623913802335263
Sc 7.2170352785340794 3.8222704833236696 5.850613639667315
Sc 7.927732049723774 12.728728161857166 5.444354484997357
Sc 7.827317267528769 3.6973420130490644 8.982903024373092
Sc 8.01511332612209 9.377406397594175 6.370951331750354
Sc 7.688397541875358 8.215507286842508 12.294117868708073
Sc 8.882365374064449 10.478984979951306 3.689281469323008
Sc 7.02827146540679 8.182063918056526 9.384813426755876
Sc 7.382233696884516 12.235292706239427 5.6578922987557805
Sc 5.955278428835264 6.04495448386012 0.8304939076730601
Sc 6.113665660411191 5.6428450356076 11.036899275494564
Sc 5.212136812105434 9.265060769936794 1.2458068084477845
Sc 6.386282233861926 1.3727707256307187 7.419270832371679
Sc 6.522018585900024 6.7692059404320295 4.894849780786814
Sc 5.729862770586279 1.292419523031372 4.513686580654419
Sc 4.5771792832983085 7.648880871854416 12.698638048438172
Sc 5.883582019954526 9.82698736194596 4.189661936867397
Sc 6.3674257347317225 11.251078157499297 8.446645027159013
Sc 4.638518176704921 3.3052265318101908 9.479121642263545
Sc 5.5511255935558665 10.095719539334707 11.21250262690557
Sc 4.85200251198174 8.721477499375657 6.959800190287473
Sc 5.541815575671689 5.652153810047243 7.883992303230478
Sc 4.295822183436588 7.126126743598497 2.8532984949970075
Sc 3.121744165133668 5.2694780086385045 11.427376499424264
Sc 5.233403715209352 4.280329872596912 3.5644447134504307
Sc 3.9239880149105706 7.644670685578498 9.800527529310463
Sc 2.5395874256367503 5.20371819992937 8.388036931191854
Sc 3.3781047479634148 6.202049546518067 5.570923238738007
Sc 4.127710929380226 3.2751884805134286 6.418924152922825
Sc 4.209191379272252 11.49191380156438 6.226762329640515
Sc 3.38164203708799 10.510018566497553 8.97489782804725
Sc 2.9945273140561275 9.215014159397047 4.57261476661016
Sc 1.9659284421692793 8.283921116180268 7.38477236230559
