50
Energy = -260.8071748 eV
Sc 11.466360339039037 6.7672050823440175 4.480714833154558
Sc 12.339792528736746 6.4663876474854325 8.883669839193436
Sc 11.28820244139792 8.584648480198235 6.667006398690648
Sc 13.455829880148233 5.3272790449031175 11.405988985908682
Sc 10.309859662750808 9.619468752282582 3.8825063020938386
Sc 11.32469964439163 4.484944950211454 6.51926114932163
Sc 10.08122515935356 9.186933044794737 9.399026213284163
Sc 12.414691286683443 3.4545440150446955 9.268131753459361
Sc 9.250377996159925 7.013842830625933 2.249450460174344
Sc 9.02222887935367 10.578935503948829 6.691476297568918
Sc 9.576012441329132 4.672857966947638 4.1016881416339865
Sc 11.40729250924653 7.650572881597856 11.604268695514747
Sc 8.888774327549179 2.214394255283256 5.74812090410668
Sc 8.150457586251596 12.218272466459986 4.2413020211600285
Sc 8.46446261297191 7.644127037320179 5.076025155670635
Sc 9.467638634778195 6.377424644697208 7.90128978110205
Sc 8.702809070188835 9.486720393598368 12.173159676080683
Sc 10.59092158421252 4.9839457966581735 10.87297457034198
Sc 8.328201307971547 7.025373481320736 10.718876729111539
Sc 7.4857818161270355 9.491345939512886 2.6956268637923135
Sc 7.7213576496953635 11.149298919478925 9.539606417970617
Sc 7.252715655598571 8.526440536575725 8.164085164742234
Sc 7.3049525438017575 4.616118079591331 6.247221019030238
Sc 5.941885218817602 14.404911314268798 4.472650948373211
Sc 9.283167579623166 3.3980629388725063 8.65110445623292
Sc 7.642181727336395 3.8743907647076057 11.28729821806999
Sc 5.612957946922594 12.03268810330802 2.815707270021837
Sc 6.235764155286411 10.223475628823392 5.48602554453648
Sc 6.9519885471545475 3.5179939726621297 3.514557883742088
Sc 6.654950565146843 12.758711485144449 6.896920855222882
Sc 6.148046400223758 6.526183577896697 3.0999779304294313
Sc 5.953780629691522 9.269679060908034 10.92171201922325
Sc 5.2772944925892356 7.285879710647289 5.8865049283295585
Sc 5.434535968443909 6.451915262818296 11.721150377597137
Sc 6.51040628475489 2.3303324826162264 8.720977737206864
Sc 6.509171019356198 5.305710855037857 8.974003040890247
Sc 4.716996855279111 10.558577533310366 8.280882644457764
Sc 5.80869024685818 1.95901160325819 5.844008140491739
Sc 4.423500796116888 7.514737985687587 8.923581692928527
Sc 4.501529244578499 9.274279923694767 3.3255173301376746
Sc 4.007944250305106 12.17849297401279 5.4158939888904865
Sc 4.446905847724808 4.487359108543513 5.047257290125423
Sc 4.65581397894863 3.6834613654126755 10.850129994624057
Sc 2.967314285523643 6.854172096261925 3.9225806074618754
Sc 3.0261613169299486 8.446696355929234 11.472394488255812
Sc 3.946621425470501 3.8557825765709697 8.007644235781969
Sc 3.0081198506136997 9.181711875868567 5.988362164877583
Sc 2.4411499427592056 5.847885574927092 10.135569602750438
Sc 2.3791617272801764 6.246341300630216 6.90605925644207
Sc 1.7825047932879154 8.684018048442164 8.827474824915923
