54
Energy = -284.68858104 eV
Sc 7.137434161712028 8.761500795909221 12.271039759934363
Sc 5.236818321540764 6.226247996239923 12.372503978807506
Sc 8.238831836300383 6.123463276067813 11.438893282887086
Sc 10.542989757552544 8.170923349670902 11.402551636497886
Sc 6.985143199798212 3.524583435650534 12.375913850989788
Sc 8.668481853458424 9.829624480904219 9.981485686250679
Sc 11.374475624686648 10.709075361331697 9.506739830728257
Sc 3.909164737483649 8.613605304745242 10.909893386730541
Sc 2.7803751206839458 5.841282393237757 10.126306125064067
Sc 3.9452911925740373 3.3717625802900697 11.755457469492322
Sc 11.127008757196766 5.316381563129748 10.524715207077938
Sc 5.992485069520901 11.056647619206947 10.49127912446828
Sc 6.365522274289577 7.866589411222699 9.43172020138453
Sc 5.766427586989678 4.738583033448331 9.876096804704055
Sc 10.441506806718635 12.338211591484532 7.266393831887853
Sc 12.183683587198688 7.8109201428575386 8.697477106632402
Sc 1.7462542955039906 8.309184836994934 8.588497882798775
Sc 8.61661368269401 3.7607287720193123 9.248438824413094
Sc 10.062849021058051 9.393432569149237 6.859514333079925
Sc 8.55667644464121 12.74999484813455 9.484698755169914
Sc 12.671266105145959 10.42365479098414 6.622348031906827
Sc 3.5462244165041734 3.1867469919536626 8.645663776199468
Sc 5.962875651281592 1.7316249804297312 10.244047244937853
Sc 4.1602765322370105 6.796292524693932 7.613360445656322
Sc 1.7468941056028295 5.669422007293253 6.860282071958849
Sc 4.156932864892001 10.225740834728661 8.273293805748658
Sc 9.331766718394197 6.890804837654633 8.814352750213448
Sc 6.3373953291006835 2.4166046089787563 7.3826476803076675
Sc 7.320184262672655 10.669698426933671 7.494749705081868
Sc 5.820286661396497 13.057906163644672 8.132985150142481
Sc 11.172499536584109 5.05997166694726 7.336206472279498
Sc 10.635980703161657 11.484371992089661 4.54605492590703
Sc 6.9161632582004895 5.43629184323368 7.212144839073291
Sc 9.108399073759983 6.783806291111259 5.589789421718547
Sc 12.14104032768655 7.449458662761147 5.6728645018198405
Sc 8.844726372921603 3.531916408990953 5.920520218309802
Sc 2.9019039011155705 8.991403644006438 5.752758143675679
Sc 5.1816546443680425 11.355530273108243 5.50890357987895
Sc 4.345201791403875 4.091399014398219 5.906606075419846
Sc 7.974903235071126 13.105227857797837 5.8595889915057375
Sc 6.177991889242082 8.211979035908108 5.710358861873151
Sc 6.239023640913542 2.2713816983933266 4.164872216668813
Sc 7.887263907834194 10.406885517512658 4.401190564573052
Sc 10.81242854868295 5.220806271541823 3.8944124230156314
Sc 10.431176429238615 8.437370870415464 3.4545526267979727
Sc 6.866392855058514 5.156801624013678 4.085004769764075
Sc 3.886419425508161 6.507661863300025 4.404528466861094
Sc 8.960240777408355 2.9647522786711256 2.925802154972722
Sc 4.80642279018529 9.175692789402042 3.210145068039463
Sc 3.945609561635444 3.8125302563589294 2.812445042252863
Sc 7.497000398456118 7.982661508508163 2.824269940730402
Sc 6.517829035059086 3.397476006844194 1.2881001747306955
Sc 8.751899289592005 5.628658570632196 1.6181761838074094
Sc 5.400881193351314 6.228168245613664 1.6764465535016095
