51
Energy = -268.45248453 eV
Sc 7.010798619759625 2.7722387099630446 4.106885307863203
Sc 9.959355681243736 2.4979457469801574 5.771592989112693
Sc 7.092358238530561 2.6893659873437423 7.190503978508038
Sc 9.718399694400004 2.291471077453698 8.865159249116111
Sc 4.4248525882170595 2.854224366764631 5.732175888064756
Sc 9.161132719338594 5.042089102195816 4.154671262619712
Sc 6.744976060378624 5.187480731825683 2.1506475065479247
Sc 11.910849636072038 5.476335968177677 5.224918059334471
Sc 4.053854324704925 4.8515644260924855 3.4279249683124764
Sc 7.62283165394391 4.4007124972826634 10.104002425052828
Sc 12.056160424879781 3.7793825241671075 7.7675751412751595
Sc 10.896857091923735 7.752499308449359 3.354372051560721
Sc 6.24389832033784 5.191002168616044 5.429859744314336
Sc 5.026776110694394 4.8063697472951565 8.497910198352104
Sc 9.268855280299555 4.832196979084947 7.376863203227697
Sc 10.830823640784153 4.767015903382067 10.425905503646806
Sc 7.540568085165667 7.605341240488638 3.626273079358549
Sc 3.0005928310009238 5.591960378488662 6.368581674295521
Sc 9.89743651495503 7.737630801743111 5.962899219973442
Sc 2.2464653884011616 6.275972665678906 9.444024308599396
Sc 4.5949342972949205 7.689047254042634 2.2653306438789103
Sc 12.949374625040528 8.27943625746884 5.718024146690381
Sc 11.934447752025067 6.88777164808358 8.19913962639938
Sc 4.6304847966168525 5.2834103307003595 11.614019494974468
Sc 7.139063824954528 7.006204726209181 7.520856247074882
Sc 1.9670530603507608 7.131648712934116 3.94002629564217
Sc 8.720501087701614 6.301000636344671 12.368381198084363
Sc 9.230040116600374 7.062012759003817 9.603271375707987
Sc 4.686084544620264 7.8989897338536945 5.222012610667606
Sc 9.064114224280912 10.294437500285063 3.838965823691703
Sc 11.419622183804337 8.131263600862715 11.097337078036105
Sc 4.312123991302941 7.780733567091367 8.239771974909665
Sc 6.3282137307161195 7.289648533375837 10.47928415337407
Sc 7.298782445487602 9.412841041592754 5.906673992471486
Sc 11.086306932298596 10.699224534484328 5.900851871234547
Sc 12.501346555954923 9.923160286566105 8.55203120862155
Sc 5.900973977011867 10.456644644608138 3.601055978367489
Sc 3.5470148087748052 8.047403211136208 11.480676539269504
Sc 9.484030790788047 9.847986856201276 8.415898922977432
Sc 1.9492465009063409 8.638169066829072 6.68282739363203
Sc 5.983689567701807 7.735192352917258 13.254524984633159
Sc 2.9194329932573106 9.937542179085884 3.938429135533951
Sc 8.350080307561555 9.383445335260168 11.544522967565445
Sc 3.163133155372253 10.194956498303883 9.386728173219822
Sc 6.399721392509603 9.872626831162123 8.791123336731602
Sc 4.498561381322653 10.751535369684328 6.511604427238565
Sc 10.775998905270049 11.168983011926326 10.893142822504608
Sc 5.411218784901352 10.344875389767582 11.589274871539478
Sc 8.140029211847978 12.030951755396783 6.5352192140585394
Sc 10.679394271476331 12.583002455462694 8.269678227089674
Sc 8.003618530069035 12.171565169466007 9.835811495707881
