50
Energy = -262.61539814 eV
Sc 12.626461365988186 4.841001458815014 9.335874167194314
Sc 10.374260964548167 2.7508365407676183 8.909745325109071
Sc 11.7390998902228 4.614265178928425 6.61700091277468
Sc 9.42883715339305 2.2616206595354202 5.760881931693262
Sc 6.696678345740085 1.0660688853205558 4.792644901056121
Sc 13.390200473743976 7.336504248424901 7.572903492249824
Sc 7.3097986243548165 1.7212610006946172 7.834127888814017
Sc 7.6040191360895175 3.5346910634765947 3.0123722759646405
Sc 12.69809074347808 7.380142444247398 10.651167098787024
Sc 9.896256230186284 5.589928935383824 10.59057793096736
Sc 9.73588722822517 4.890923011954802 4.506016173395466
Sc 11.150993088697609 7.362051987878679 5.082104572975738
Sc 8.801011372670406 4.713697177016955 7.609840644777358
Sc 7.661932208829568 3.6331201182587964 10.280574830983369
Sc 10.702797140147771 7.223285813212901 8.122376255802479
Sc 6.510068558479383 3.9092022659477976 5.822623651925542
Sc 4.359572600109265 1.8805114832719108 6.526451123933948
Sc 4.638437630073392 3.0526689921872645 3.6657895762651616
Sc 5.867083936175243 5.997362241409981 3.847780229829046
Sc 10.989574343839895 10.0785249726603 6.551381257566941
Sc 12.32779309290974 9.78352714599537 9.131911422766052
Sc 5.25660638694095 4.227944640816197 8.551933709431442
Sc 8.619116520038714 6.870915878056166 2.7417886587066764
Sc 9.886009612913202 8.887763245786878 10.632756267327327
Sc 7.322998210708961 6.679893151796071 9.205888954949822
Sc 3.4506611758805414 4.82596665360024 5.975169331990199
Sc 5.456168459437151 5.632205971163895 11.343199505199877
Sc 8.014349728338413 7.279205725443955 5.814924690462904
Sc 5.022625752166214 7.052345356246682 6.936853551056715
Sc 9.066398769551045 9.613351524706516 4.275288487603646
Sc 7.282060615845842 7.875894697176869 11.96987237645077
Sc 9.899706005399834 11.684873401506904 9.084045864955785
Sc 8.277660176638513 9.508092816444817 8.072639970477645
Sc 3.2601572363579665 6.401770768201324 9.490073876447129
Sc 6.237790161804031 8.866818554585132 3.1736666010909937
Sc 7.586055907360037 10.69180609317428 10.971168322710362
Sc 3.4920342086838647 7.904982292197048 4.348571172561444
Sc 5.440814997709509 8.913723225492987 9.388924924130455
Sc 8.408621981567137 11.954455458976835 6.202900249331091
Sc 4.1861024871332155 8.332034314660211 11.89159744416515
Sc 5.916659194092327 9.880526873001182 5.958345022908129
Sc 2.0293222140316804 7.489831427504019 7.006670339221823
Sc 6.915961707364679 11.774966153758417 3.5088440284769717
Sc 4.670083429514753 11.280531715264686 11.164682480142023
Sc 6.86579619186201 12.514400420268908 8.783419811647729
Sc 2.513552844120901 9.441429798631454 9.393368711314624
Sc 2.8578652922281007 10.230980652492839 6.206707031897614
Sc 4.04370137821872 10.997143682466874 3.5465877277228586
Sc 5.319449977053138 12.725125117764817 5.83208142483601
Sc 4.235252381832582 11.58275806276634 8.323642134028333
