54
Energy = -285.87457738 eV
Sc 12.225765895060311 8.139200762651072 5.162466632963794
Sc 10.840342709005341 11.016994994076377 4.580114643710232
Sc 11.611672930371475 9.277740296212368 2.3231727542699523
Sc 12.085806061853136 7.102987737024364 8.297876979792271
Sc 12.399860758825609 4.9236732698488614 5.894274000822028
Sc 10.369187539109351 9.498108680144915 7.13517968612566
Sc 11.494498691874394 4.1398543944570125 9.157890466734733
Sc 11.68456406881949 6.386808857008016 11.343931791668485
Sc 10.214759638681084 8.9999250237303 10.118176720677686
Sc 8.769608569333661 10.783691059011584 2.3416270705804663
Sc 9.931280543161904 6.2614643311714735 6.217532732987238
Sc 10.995230618557176 6.234028357702003 3.0628703595977753
Sc 9.089679738249156 8.354278256040825 4.044012571261853
Sc 10.131240632559846 3.13828611235699 6.812679967483808
Sc 9.436582177117995 8.050299658723963 0.9591217131713146
Sc 7.867290539254807 10.763862924582373 5.560766660215187
Sc 9.282505408015288 3.8726912464394743 4.136323038463232
Sc 7.692219610063632 10.99731642921251 8.52655500547101
Sc 8.862466956651815 2.2412498562849428 9.381286631374346
Sc 9.504271803582286 6.221146775689124 9.58798199445249
Sc 8.7628121042077 7.315060757424451 12.437171869382976
Sc 7.9288244656931495 8.044301197155571 7.718926054531095
Sc 9.281088047893839 4.317239447669564 11.810366173644104
Sc 7.724871450470534 4.586308398069502 8.157508640922645
Sc 6.621238637438011 8.588980133784796 2.116086717042643
Sc 7.406002953337381 9.434879946866568 10.855132164819935
Sc 7.834528125147588 5.8521384711267395 2.4292397438659386
Sc 5.712460202145539 8.635266837380394 5.099198284587609
Sc 6.483153540333287 6.573235540133473 10.393754292568987
Sc 4.775027504878198 10.661924725912257 10.343472262508474
Sc 5.529197927984526 8.476461073707258 12.780033447782435
Sc 6.2668976947362784 5.524069462982072 13.061026026635796
Sc 6.244240396888746 3.4432825781748377 3.2234807051913794
Sc 5.634597231728793 11.118167052658047 3.565308187082224
Sc 7.224515702023736 2.5902738304078805 6.007599082829039
Sc 6.930880555848135 5.645628004421766 5.357065006816136
Sc 6.621312049012299 3.477603586642587 10.955514880943799
Sc 5.245158276713452 8.637038842852068 8.376633520175524
Sc 4.99027710758963 11.19393353541765 6.8165472852499
Sc 3.720952277261747 9.099218547519866 2.488299795558518
Sc 4.637906795599269 6.2277604975497605 3.3842790901034063
Sc 5.336191032419084 2.7016921433309804 8.431130076018771
Sc 4.797855244383351 5.6548574071052435 7.950390844767283
Sc 3.183230102411965 7.236610874953518 6.07993638552533
Sc 4.0039685687709285 4.772315799812534 10.688435797473236
Sc 4.206506379991756 3.961638259685367 5.629027204112093
Sc 3.476009792151035 7.9054237099781455 10.684445624201862
Sc 2.683872033006035 9.965520521656034 5.058809917701224
Sc 2.512290279819196 9.56854466822342 8.180105492460768
Sc 2.452654732039719 3.536067697071403 8.152053437026312
Sc 1.5762999704023517 7.32787972660694 3.6406346993677743
Sc 1.776948482599058 6.416642952186783 8.634735640194991
Sc 1.1691377544628982 5.108722535002253 5.888358634083328
Sc 0.3988407005343001 8.071381072712574 6.299419557351263
