51
Energy = -266.85813394 eV
Sc 8.130728578388213 12.952386765935879 6.913899030533141
Sc 7.757254630097099 11.315165065714371 3.998873617782832
Sc 11.90770620065329 8.556709343273662 5.469152659892274
Sc 9.379483054957676 8.543417833156179 3.70474858337356
Sc 8.755820679976937 6.081114963207743 1.9362397751307983
Sc 7.304907898467068 9.338491704321564 1.634092386139508
Sc 9.545151691387762 10.30571948812215 6.218561044778644
Sc 10.960821052556113 5.940445195212113 4.071281899722816
Sc 5.4899072210658515 11.436511482008786 6.153545221266167
Sc 12.023313753381277 5.972770800813737 6.860391957694018
Sc 11.55732466019429 8.670018152191279 8.411016372336645
Sc 8.70237646025456 13.965940626891655 9.830656218973658
Sc 4.884224189728384 10.808854624222601 3.0028383233375306
Sc 7.059187206973002 9.435917515789205 7.836912233293572
Sc 4.61898458236054 9.198661646827382 0.38012302224731287
Sc 6.267330460064387 8.70370929466839 4.609950625443271
Sc 9.472125358807071 3.297191167453628 3.871621034924193
Sc 9.28352046260386 7.289613107784982 7.053755994904801
Sc 8.000412356595676 5.839899790528249 4.691640204193548
Sc 6.539851393227687 12.04681312729391 9.248160316315339
Sc 10.395671419256312 5.695536290594451 9.353045527021793
Sc 9.53821903209358 4.03400525453353 6.872561633849739
Sc 5.862648731766143 6.7765531231936 1.7810458586551667
Sc 9.874312498596863 2.7222468612148125 10.810150594343622
Sc 9.625171288584808 11.342692024882881 8.923225902081398
Sc 3.503109150394498 8.075015061360794 2.9678902058383736
Sc 7.105529538052587 2.3927941603682594 5.518676656379758
Sc 9.043168290439601 8.574147330922443 10.205477684624205
Sc 8.377380201220527 11.374503330460566 11.577778097336097
Sc 6.538462570487953 3.783173551090529 2.92010615554042
Sc 3.1506113807746194 9.405361572653923 5.588439446559209
Sc 4.018341322900947 9.943326300962095 8.545655623088237
Sc 4.647618687704673 7.376866891511231 7.1122327400125815
Sc 4.955921230848446 5.852194570322961 4.3500663521716465
Sc 6.860778724990223 6.664449597254558 9.486475670255908
Sc 6.096588222248669 9.340053013217915 10.884334478239756
Sc 8.549435570924633 1.3886804275642426 8.116891416115868
Sc 7.804886920554791 3.8772150808210144 9.576917670827514
Sc 6.327769080294499 4.84388855207163 7.028357475007355
Sc 8.961299817503631 5.874550484175585 11.892624251217212
Sc 4.160602046976175 3.298110897153575 5.390948890793852
Sc 8.082587529977443 8.606786145146017 13.105433388810658
Sc 2.3013868928420065 6.204704731906586 5.435208941699018
Sc 1.8283159423834205 7.731617349799104 7.935281332604435
Sc 3.8904478620257104 7.15674466193015 10.11498639867872
Sc 3.314187478202047 4.805138971955473 8.025173124112177
Sc 6.0351755061333945 6.495665790223539 12.435618034950437
Sc 7.172468025945442 1.3045639910361342 10.741386360043016
Sc 5.024313868824356 4.225956652105891 10.559261477802005
Sc 5.538901208800464 2.206433289366008 8.12442613073115
Sc 7.280116421604936 3.627457471358128 12.607680316170203
