55
Energy = -291.47752261 eV
Sc 2.786327864100332 5.202468880836331 10.095411493403818
Sc 9.56755554283656 7.528094258727425 5.301486012486511
Sc 8.266518328951724 3.2749935140244717 9.322657387532374
Sc 5.085064907590603 5.742727174422587 3.3017546941936486
Sc 9.706387715356582 7.906588871118011 8.590410012265371
Sc 8.270497645410494 8.677781154485666 1.1099994277301652
Sc 4.479053081432924 5.161340721364407 7.485876048362739
Sc 2.3255739250524323 5.538303392878922 5.216764507688711
Sc 6.8068374362978705 8.619461355659586 3.765443066428439
Sc 7.761668602018196 5.273875935065619 11.820233331826795
Sc 4.986555493023389 6.559296336704342 11.60724925782081
Sc 6.985807646050156 8.631208085918571 7.027732663526361
Sc 4.165001873083632 10.13354724820056 3.7440783883949895
Sc 1.7539806239055107 8.697663174563584 5.617315104582471
Sc 6.767336133384687 8.808533781133917 10.320517069859072
Sc 4.383290189370832 10.442352424361802 6.948857907248096
Sc 8.069926068465653 6.0413761779128 2.8221084535259857
Sc 12.648039787028468 6.270674864189527 4.6173372612848365
Sc 10.208067460770462 4.523184357692738 4.134639497359254
Sc 7.087407040302498 5.37392447333554 5.889710020360652
Sc 12.400186032301216 7.32331796069888 7.224217473622408
Sc 10.009271327669142 5.079034634987919 7.413048482740798
Sc 7.097523706035107 6.072533870968353 8.996954165685956
Sc 2.76032880609493 7.604901101984345 2.9847517157309715
Sc 10.550578301435493 5.200308789375714 10.477523573596928
Sc 6.58836446280889 10.950925693612449 1.9700215202155504
Sc 2.385253497534649 8.220904012207734 10.855559550142155
Sc 9.34397407035314 10.228472474621821 3.5226251602644405
Sc 6.788725004536078 11.276762903920599 5.170137231724475
Sc 4.604219550892662 9.425678255515496 12.668125897348004
Sc 9.43966056281051 10.499307574024435 6.663455098427615
Sc 6.968362707105876 11.369508574488318 8.58046254855814
Sc 7.005902384322738 7.997980738382704 13.385103033580389
Sc 4.394094036384038 3.4023113926559385 5.0371152093589915
Sc 12.262753860621412 3.7054104323940154 6.2225066581693165
Sc 12.197100589423597 7.811330073100276 10.193164302222792
Sc 5.318436063064383 3.719740717244304 10.098661697744033
Sc 13.063069431110748 4.970687887497305 8.801304150457508
Sc 9.41720954630123 7.905530446871387 11.654220774880535
Sc 5.253620481136606 8.279890377351927 1.3007851443626781
Sc 11.99746792515854 9.308950904753823 5.000084660302653
Sc 1.7428190722359695 9.827819347422027 8.459482632744358
Sc 4.483387817622446 7.614947865409653 5.5729868393018105
Sc 2.728274442656607 3.1753111170039463 7.678517758601496
Sc 4.257830838783808 10.711123932150944 10.061455452482885
Sc 4.2983863994833005 7.88714122332269 8.680634149048762
Sc 1.5597914330551554 6.727825235172064 7.942596781321002
Sc 7.179390888155616 10.849150278720893 12.053481624939023
Sc 9.239237864048837 2.42801494982844 6.341373014870376
Sc 7.275312071288017 3.1701911714195528 3.9959561397204846
Sc 9.548527277206508 10.469801523644712 9.979455850132604
Sc 11.230007386664234 2.6177804149943436 8.779940955811291
Sc 6.187308529970314 2.629173521269839 7.208173257198617
Sc 12.019124169402742 10.039124951769349 8.146938906965845
Sc 10.756374116307144 7.554481487030903 2.602369000258869
