51
Energy = -269.69263529 eV
Sc 12.114732517531975 6.0142229553852165 5.796026030885085
Sc 12.95785836609545 9.232291648334995 6.3046082368312355
Sc 12.318906807678935 7.027433233719023 8.704471487383218
Sc 11.234959541511738 9.956104966279597 9.408898007017426
Sc 10.937922093997006 10.811915285101708 4.4794336533441985
Sc 10.569927511469569 7.718218054749296 11.212270688415805
Sc 11.136028223442846 8.041022018045823 3.701829245342077
Sc 11.029155483159572 11.66069958579705 7.0640898019511
Sc 9.976251430907041 4.614555588418536 11.0730312506093
Sc 11.314935898488443 4.111976088755668 8.127054696815328
Sc 10.368152584734911 8.368162265165042 6.758514327010786
Sc 10.036604424895549 5.125060218589298 3.4780852820789945
Sc 8.221968804963106 10.456770071394965 6.129007783438973
Sc 8.526403582610877 10.16831864541585 2.9517120881974903
Sc 8.731347727818171 12.060192165797503 8.905904896836788
Sc 8.502761356877292 10.132487927453235 11.595719085418208
Sc 8.339636031522613 9.073501273496573 9.060464438119695
Sc 8.783687960674271 12.999903226507099 5.280029666196223
Sc 7.807098192911419 6.873561049783781 11.580114979259383
Sc 8.428761833242572 3.155684851424243 8.559093592076707
Sc 8.245521402870423 7.632129332094847 4.594474219306355
Sc 9.303758231087077 6.222230013971362 8.93841387757705
Sc 9.144053858112146 5.253442463379697 6.254307621273425
Sc 9.859123041460473 2.6216518176840395 5.637411649625249
Sc 7.559978182296056 3.6186462518686593 4.032378556829819
Sc 6.76793039327189 6.039560311301476 2.529636171054432
Sc 6.97536180257511 7.222124427011398 7.3069191483597065
Sc 6.249172484255844 5.2926093980463556 9.472563674297694
Sc 6.059727965874656 11.00185441736029 9.696683051478663
Sc 5.772461569602872 8.870809067713125 3.3383163545507495
Sc 6.13848852188416 4.325968651902477 6.697540060779932
Sc 5.966802820939588 11.615167280671457 4.381024599512351
Sc 5.474471438592539 2.3518406255392903 8.988820578036714
Sc 5.0546703927688945 6.6293431561040705 5.004923939415269
Sc 6.166710874861499 12.52742455181404 7.132124059534363
Sc 5.424501136127186 9.570246043774166 6.7193637641311845
Sc 6.897326807149315 3.6923710349982275 11.575358033577658
Sc 6.565330715221668 1.671342361763744 6.082250391680818
Sc 5.3550251886254525 8.164909572034997 9.926629321895733
Sc 3.654364634076189 6.660678703826703 2.563427577846987
Sc 4.766600038365064 6.030870427284519 12.043332975682048
Sc 4.5283922795086005 3.8469217450596753 4.080475400166466
Sc 3.8331919879693395 6.257765065806646 7.7983951455503435
Sc 3.325722807071393 4.258809081310395 10.059460891520548
Sc 3.133889334776242 9.035209709164928 4.844340221949536
Sc 3.2721326951095717 3.2963232559004627 7.017466058204205
Sc 3.2684604757863602 10.140419245024475 8.586138626312401
Sc 2.1550985742852413 5.727923273807918 5.2638309820883995
Sc 2.3778079995542476 7.277090495897165 10.191958121824914
Sc 1.0422637869144942 5.2588959188625575 8.238081515233917
Sc 1.6524038978120905 8.061358746055353 7.255440843303017
