51
Energy = -268.52975387 eV
Sc 3.8793224563051263 10.715135032017523 3.582741332764771
Sc 4.554445278318364 8.48952281261919 1.877278340785639
Sc 2.2914274766403757 8.02515970450225 4.028146406297076
Sc 1.2447352697271687 7.445126874419122 7.234526114090961
Sc 4.67199069974175 5.925703495925664 3.0935029297927423
Sc 7.25139576582101 6.932896026820089 1.7644919580540839
Sc 2.79992211557697 10.095727044751824 6.3227640726073115
Sc 3.6611453415296618 5.701478805967822 6.115176629371336
Sc 7.0047354459046405 9.7421161756449 3.3077050239063435
Sc 1.548696693945686 9.867454765820941 9.14046346557103
Sc 6.0047876124652495 11.043916253834835 5.918527093530452
Sc 7.217432887840276 3.835750204615044 2.4595262552121344
Sc 1.555075619885742 7.177233650674908 10.340565331493488
Sc 3.3950789970132016 5.118496863839429 9.087263786553722
Sc 4.66566841632263 10.935274586683034 8.788378549106858
Sc 4.931794701709867 2.892436676962867 7.3104450351321075
Sc 7.64945182160921 6.895671733674675 4.710304256833423
Sc 3.7649981478821206 8.085405460796618 8.36376021373729
Sc 4.955905368400028 8.298483097544022 5.095617981245257
Sc 7.288873663544106 1.6433166656798661 5.254709818501455
Sc 7.751039064670062 11.684289579691159 8.242057808354245
Sc 9.786653616859393 5.314452926629915 2.9376335701264242
Sc 6.104740077398023 4.331694976051637 4.994176612592999
Sc 9.739412206551043 8.515220516566538 2.973365299636542
Sc 3.7626169658758286 9.043471571822046 11.27693668545537
Sc 8.889451669588318 9.376894999325625 5.8992887548602795
Sc 9.66330958291402 2.344340455331956 3.531981463039526
Sc 3.8819971780997973 5.885317799289487 12.114432881818155
Sc 7.90002847349352 2.6169247825242556 8.213936432290913
Sc 9.064166406899432 4.179490091809801 5.847931116932368
Sc 6.76327727106308 8.755730368493925 7.917861338585704
Sc 10.166104004905081 1.4639954274870826 6.365711385875258
Sc 8.994477739228351 11.991770801719936 4.934482347568278
Sc 5.725286604699137 3.7423932042967962 10.32111028713815
Sc 6.5139816841465255 5.4337153828965405 7.672803348049494
Sc 9.692713332000078 6.743368474952611 7.631075457759112
Sc 11.31744112385555 6.90784860640765 5.0331864383974
Sc 5.97332375340418 6.956640691089881 10.386826468685982
Sc 11.574017609529244 10.144798130396133 4.94401183526575
Sc 10.596823282589561 11.314515422208475 7.435336358775817
Sc 10.860313347573417 3.823510667616272 8.295662540386015
Sc 5.916146559791825 7.998942107138419 13.249944313827763
Sc 6.7441493239813655 9.975805249679432 10.885678227682865
Sc 11.899694617819852 3.8079087125242204 5.226989040865141
Sc 6.91575291516961 5.252404455946908 12.742433199082416
Sc 8.630574596409168 5.083299847334106 10.048642153184566
Sc 12.76228960514808 5.897472180974833 7.393230262055303
Sc 9.516631188980913 9.268704715479387 9.500277889620241
Sc 12.057184232257761 8.735988230447393 7.690833241477704
Sc 11.34031797825085 6.741168658592525 10.087955848350253
Sc 8.637584978495175 7.632290960666472 11.846130174698713
