52
Energy = -273.90661162 eV
Sc 10.477982854504404 11.282941610995827 4.187518320658292
Sc 7.83158476633771 13.147606637806009 4.713729205004355
Sc 8.356227932144051 11.743125268351614 2.0317904172280423
Sc 11.450704293754725 8.49699709375811 4.1428147912456295
Sc 9.736501340858585 8.660242285847248 6.5846064442357175
Sc 6.568556315045841 11.544442273021168 7.713282851972997
Sc 9.220439800205838 8.783184168729752 2.213933581847034
Sc 9.506055953687685 11.674499017778535 6.930520811021397
Sc 5.529779846017391 12.468404194707512 2.454279041385375
Sc 5.123774529632825 11.743191844610998 5.120105134529887
Sc 11.385978016008321 8.10664157831351 8.990365865466906
Sc 6.687913585757064 8.616479108864048 7.263755851011524
Sc 3.9596478767252763 7.217882580773505 1.9604933194636454
Sc 3.50772817780678 9.98005130862633 3.4267582561171404
Sc 5.008032333882129 9.234246115320515 9.77102446265414
Sc 9.691161603952668 5.174807472999841 6.375124248785842
Sc 7.008283241528757 6.423627538588689 2.008489608848454
Sc 10.614217649082638 5.739523531359739 3.4785251528288343
Sc 8.629950656355453 6.781942926535416 8.703130457259988
Sc 3.8154424451577573 9.6982508670835 6.649694430624222
Sc 2.6843408446704844 6.826988831865841 4.903936372493538
Sc 3.0929368729268885 3.354174647727125 11.014384795963988
Sc 6.172963318430894 9.512986917299934 1.8599317551370256
Sc 4.811619209338307 8.136033293097308 12.813581483610271
Sc 5.186581383076033 4.955141192148467 12.582587516487699
Sc 5.020440830089237 4.872956324365011 3.6450806776628193
Sc 7.308431283853687 9.532360990043763 11.970024611352192
Sc 3.1178258526844136 6.578454358975563 10.79745543062268
Sc 8.70922145286007 9.757849974755084 9.29985012857538
Sc 2.0239537219481445 4.760050611819709 8.464330046260578
Sc 7.645655905088524 10.211369970644082 4.609528038468103
Sc 7.4675718374494116 6.922157691869634 13.608368777530943
Sc 3.803177494844694 4.140791423284316 6.249606225919577
Sc 6.574646812554156 6.8949974253599 10.772227358015275
Sc 5.391273432708699 7.87336502681069 4.429413918310862
Sc 3.9604548772251116 6.990313491330635 7.658041276391731
Sc 4.953794572359513 4.782693293667378 9.277282251526374
Sc 6.514006711509868 5.550673524447611 6.369131166418055
Sc 9.630633445985318 7.395498765673961 11.496149535647506
Sc 4.305246856674868 2.0370374907266116 8.43459718866961
Sc 8.364770010567984 7.12244369260157 4.5624800653698
Sc 7.710060954572701 3.737256197585176 8.622820497171881
Sc 6.3109374391282875 2.399913526693212 6.054206255202771
Sc 12.275368551929278 10.000579195451216 6.642588301555795
Sc 8.03571444919356 4.078872431932717 4.111214657555449
Sc 8.384156683551005 4.52343982803816 11.587484205782934
Sc 10.691733581352235 4.771685264266991 9.24066349482195
Sc 6.18251286031517 2.3526378341120715 10.949575850773105
Sc 9.372424319945138 2.1437580906569043 6.778216880547606
Sc 12.195458110135144 6.75662584526977 6.452879789304202
Sc 7.194349615120191 0.7168236064462202 8.417219380798231
Sc 9.35235521938813 1.8694840934502452 10.076563855161403
