54
Energy = -284.04467167 eV
Sc 11.503532285957712 6.399930567950708 9.735700128213006
Sc 12.806516893528398 4.027461740065039 7.987499638165397
Sc 11.66135247137995 4.061962741375728 5.216600872353072
Sc 11.713482612478126 7.241860555937179 6.56374264820809
Sc 11.823776629412903 9.36544432315193 9.29597606842866
Sc 9.598283067045424 8.42865679290471 11.387324658241734
Sc 10.338422455838609 3.0888326491820552 9.963844814314328
Sc 7.365790057189794 10.391711145500569 12.193964015165637
Sc 9.19357299452604 11.070579098519065 9.77012941150318
Sc 10.134532579801109 10.588179972285666 6.778947370643348
Sc 8.728306454841112 6.7816121301246515 5.703007410095391
Sc 8.396260078202355 5.691058631431144 10.284668643124906
Sc 10.350353545145015 5.724142634201161 3.336204714250671
Sc 10.16944777220309 4.942508259399602 7.615835782921972
Sc 10.49987805019867 1.9444851614001848 6.9706534893815215
Sc 7.343261661896084 12.030295089247325 7.4135018547980485
Sc 9.681634967689842 2.164617220197586 3.575556912690916
Sc 9.922534071909041 9.06343512978858 4.141959923368916
Sc 8.36663943237473 3.947180511173528 5.070182678547087
Sc 9.319957500478237 8.141429705841787 8.410723250222315
Sc 6.631220361324436 9.456867386117551 9.234990012645394
Sc 4.449948013460729 10.075415584646878 11.244961810168158
Sc 6.412155696549384 7.577320321376845 11.607198575676286
Sc 8.315122227181684 0.8696788338567837 8.997024410219668
Sc 6.22717982469691 12.336186720548007 10.288553614731587
Sc 8.318174292766685 11.78404109280129 4.490111287481256
Sc 6.3404967183540855 6.400590263556899 7.807159831106432
Sc 7.636881667870512 3.6415268052732452 8.163378178706996
Sc 7.384916585444429 9.393217971676277 6.022314861042347
Sc 7.295113569676168 2.7403376326617153 11.039842623790523
Sc 6.572356293408959 2.094293977584253 3.4593157906123175
Sc 7.566995422353748 4.54294418625553 2.19783210311009
Sc 5.343761242688276 4.782939827010128 10.13518904842086
Sc 6.631006236744484 9.613034884959474 3.0989763989604904
Sc 5.193143767022717 11.275264615923632 5.184393907137261
Sc 4.291832160804507 10.94737437608509 8.180291141675033
Sc 6.010789520040238 6.588246900081621 4.323763115101028
Sc 8.225341607517386 7.378153731124829 2.3774074687845856
Sc 7.538747572454424 1.165026320796406 6.110869859356797
Sc 3.925409688735663 7.679999233331377 9.444626354931327
Sc 5.330919055058719 2.015429870308397 8.562548596912732
Sc 4.467077909545105 8.383858248037107 6.4985317310396296
Sc 3.677211175485451 8.765280198093208 3.6381465745348422
Sc 4.536398873534731 4.413200686602439 2.7511069458411033
Sc 5.423849498387269 3.832148622243169 5.821585088075041
Sc 5.291033208041648 7.06704796800976 1.4491560508868941
Sc 3.496751388874082 4.9826749860477015 7.868791962186783
Sc 2.0320488510610835 10.263519396132747 6.130366341157004
Sc 1.591198588902835 9.815145634043185 9.11530739786546
Sc 3.019438875094858 6.011964400683484 4.992331896881126
Sc 2.3312052699480046 6.525344512600166 2.0908079871747183
Sc 1.467968320445748 7.4852012599815545 7.378247059236215
Sc 0.7012876912324186 8.06935563826035 4.528730569043586
Sc 12.806516893528398 9.43926097224255 7.017285211860107
