50
Energy = -264.38134812 eV
Sc 13.11646992689141 8.93376365593113 8.275219631616316
Sc 12.1774991008103 7.228921734680544 6.135287811007404
Sc 13.237594117546736 5.921358638219275 8.914985227699958
Sc 11.313003353946959 10.293468415997852 6.086719201903922
Sc 9.827061065481145 8.167403885086795 3.6203661237058675
Sc 12.409195086041837 7.900379000649423 11.006319533281127
Sc 8.740017617900554 4.324813833411776 2.660871641818815
Sc 10.219530286007691 5.442377052934927 4.929082354845639
Sc 8.602675250881054 10.692609445547788 4.685087531166032
Sc 10.476113100460928 10.11789231443309 9.068277462910096
Sc 10.830956549162734 4.346648635361367 7.662656325506479
Sc 10.574691568395979 7.09182756498943 8.761847290304454
Sc 9.169460181196646 8.231352835739017 6.493962668511154
Sc 7.8988843224863965 6.918076887691198 1.2426231224119724
Sc 8.851273400934643 2.8468084804061156 5.7045237915261175
Sc 8.710672481081494 11.891990493503512 7.339174657905027
Sc 10.739531852264786 5.240578166080304 10.888765451909913
Sc 6.644014194742337 9.424014655089712 2.920284149876218
Sc 7.243091438549664 6.658441665875857 4.033582180722562
Sc 6.27052030080339 3.890258923158715 4.55822671773176
Sc 6.032595074888707 4.61773167291028 1.701453503608947
Sc 7.925676986657609 5.376503075479297 6.869955661803771
Sc 9.403897300379533 8.28672297335891 11.357622006842208
Sc 5.856359129614436 11.803735290269431 5.100571387979631
Sc 7.487891945407475 9.330345329748333 8.846956204489638
Sc 4.625774376335418 7.190276949174191 2.180165955790704
Sc 6.661098475731863 8.63025964647002 11.845615779338846
Sc 6.44441234483154 2.280322604961374 7.628930925993195
Sc 6.194057412003563 9.085071625310924 5.997933017376074
Sc 8.449866758969966 3.6594471239006396 9.542095128399655
Sc 3.669155899555138 9.349902647574094 4.25229760349573
Sc 7.828943916350172 11.378809217367465 10.630738375409255
Sc 5.911917885594879 11.73911120446739 8.076612151879349
Sc 7.432843237576936 6.5078838836312 9.60770551586535
Sc 4.322541805273504 6.544016512907288 5.084743122835477
Sc 4.982202534364726 4.6667921713202105 7.315572786572726
Sc 4.124052880582112 2.1772944202464046 5.499743259844553
Sc 7.661772957128381 5.642618976882867 12.200993426910632
Sc 3.42954025654354 4.338922846608769 3.2544049034446463
Sc 4.701700276528707 7.65006999725511 8.268018614765607
Sc 1.8106788134305465 6.887775506096517 3.6747612364272038
Sc 5.475736211788524 4.106596172420671 10.194709212891578
Sc 3.391060137481154 2.4805641981875595 8.350089110303628
Sc 3.5043386921739756 10.276676438374208 7.238353649961454
Sc 4.728478800434065 10.059513021694544 10.188298089666661
Sc 2.1816735478138263 4.5125915236070755 6.062988170356509
Sc 4.457580148207028 6.870787816736348 11.135111376969268
Sc 2.02638505338322 7.64426076065478 6.679599478673646
Sc 2.636979882885454 5.505500596117102 9.041627900772234
Sc 2.1847417224827628 8.545182664023361 9.656326641872486
