52
Energy = -273.37409651 eV
Sc 7.670562182926066 6.046424316242304 0.6956228754279272
Sc 10.328358914466483 5.757935755656359 2.08300949321524
Sc 8.991387262441945 8.539350727713298 1.777059376795557
Sc 8.006403489970245 3.4116157616110385 2.4528723825716265
Sc 12.534646583352895 6.357602179579163 4.791679806305514
Sc 11.935606542014641 8.873230739020354 6.380856154766142
Sc 5.887240102623036 8.300097704628897 1.9661185263077725
Sc 9.853317584602493 7.747205187372684 4.531504132183367
Sc 4.966444124766295 5.318325104700923 2.04039640267379
Sc 12.598973502325867 4.177106739262251 6.8652906668747065
Sc 7.617158423224643 6.01861310182305 3.6610544333635207
Sc 10.208763029913841 4.197591301695805 4.701662882038539
Sc 13.166271593922389 6.924217028149232 8.28582635194601
Sc 8.05172690944444 2.1011547011466405 5.406502108228963
Sc 5.639971169497337 3.580250237771234 4.38226296519367
Sc 7.290494133810325 9.774160596197268 4.157050953310965
Sc 9.3424557209167 10.291981700224957 6.342302996434298
Sc 10.51350929584908 6.263908869621626 7.134004552533142
Sc 9.973335093248524 2.8846750578347495 7.734709460814336
Sc 4.249644246031325 9.980748270069748 4.510081882562318
Sc 11.621707612574722 9.999624510860457 9.045073985390065
Sc 4.899854151393559 4.948474722194389 6.819054197810243
Sc 2.9236814510131066 7.695274514231624 2.6702735688200168
Sc 4.9734401423495385 7.156829497117682 4.720916691265338
Sc 11.985465723562877 4.484362395183615 9.737019070976523
Sc 2.813042322658431 5.178561815738225 4.444274871528136
Sc 7.453606982146218 7.720096392378429 6.493183914133244
Sc 7.9016095009507765 4.766968274653717 6.593565707894888
Sc 9.199274862979822 8.409793094948315 8.836228800913286
Sc 2.024343835409698 8.037591068421433 5.5675353788980075
Sc 8.494138514679422 11.57510476216768 8.955135836506422
Sc 6.837981674823415 2.9927498953604226 8.63217352036815
Sc 8.999824301840283 5.1403110088760275 9.612654212346833
Sc 6.183842698316509 10.390589657079426 7.068931763597683
Sc 11.271356503543076 7.327526309390398 10.650756477554202
Sc 4.052118104315789 3.8781291656033168 9.461479183739137
Sc 9.727522329098706 9.92669634009184 11.43187357364321
Sc 4.106737238901638 7.970029093515554 7.748374209574172
Sc 2.0839743474025125 5.621133392030077 7.5744995008285745
Sc 2.986225151773391 10.661958892559444 7.378564778764712
Sc 6.186962132307511 6.301215730389908 9.221452749497157
Sc 6.492841273973073 9.41039983847252 10.18156924414124
Sc 8.269414076578157 7.008062361746759 11.828352427786617
Sc 6.210119760069028 4.609639506642772 11.45939440258561
Sc 5.191463060096312 12.023894517473664 9.54228637580134
Sc 1.186101838104496 8.334969688717663 8.525423535004968
Sc 7.462838555730292 12.036408207806097 11.680845440370142
Sc 3.3857617365222348 9.534595101161761 10.244190207458042
Sc 3.084065227778524 6.487386333048862 10.322970661016258
Sc 7.367072305231069 9.424923486844099 13.296947271613101
Sc 5.175651244483961 7.576266575604158 12.180709846547414
Sc 4.907657751585606 10.835144323042744 12.460627386920732
