55
Energy = -292.34727197 eV
Sc 3.120364036475607 3.111815074969072 0.17118073706101153
Sc 7.883222458039544 0.8451550524002283 3.935057067598718
Sc 4.737131926920515 0.7409903205192122 4.83982006822727
Sc 4.073524866781277 4.455436602955486 2.6398550724874985
Sc 1.3237283991189102 7.800460278265362 2.0009278509293957
Sc 5.485403835736181 7.775045064893949 0.31638611145261925
Sc 3.069486212150254 6.131079047344988 0.25597815192659173
Sc 12.289203862218823 5.477057506271196 6.972989253211768
Sc 5.4182541608727455 3.8155206265219457 7.9653731342917675
Sc 4.158358345507455 7.50074759962744 3.0153865512023104
Sc 8.046066175927463 5.029939450576114 7.173304632553014
Sc 6.697850316391927 1.1522184386911634 7.222532549120033
Sc 1.085669886632478 4.753031780869626 2.070760702821795
Sc 2.8133634580912332 3.2119694723156993 9.94667717364464
Sc 1.027888297942423 2.887313867003036 7.705146896151698
Sc 12.018750370198156 6.137422564366254 4.168978075030464
Sc 7.7668181256997535 8.604233180663872 5.523158435726389
Sc 10.164896747270534 5.416742721117207 1.8683267883041506
Sc 2.2282195006722874 6.037401889633414 4.747297083569918
Sc 0.5436645841761754 8.197653210040304 7.4350346483965595
Sc 2.4003797948050565 1.945452139096748 2.969484460517679
Sc 5.7129923718901585 9.483894989811372 7.776116261122324
Sc 5.849752584214871 4.720713011400589 0.15523771232075248
Sc 11.092112861491985 4.477502706802789 6.58445403175774
Sc 9.148502056856826 5.9866323804292625 4.653423527216187
Sc 9.988943888990097 8.219679082206792 3.02927402332312
Sc 3.6659651946327405 9.916343930423976 1.6649545818204838
Sc 5.534680097241945 6.501061049605627 5.715681711591048
Sc 2.8291516789101467 5.5307519929562945 7.873131425269478
Sc 10.248440762491798 5.465908402277225 9.283481456361764
Sc 9.285669948326332 2.1119169789808443 6.427052076429531
Sc 0.33448777140149033 3.504898968743934 4.778334070859679
Sc 4.054856777147172 5.50195742586684 10.986669986142774
Sc 3.010716682522858 8.230254944100837 9.574120248687997
Sc 3.32147415713683 3.2566874955775833 5.613455796845652
Sc 8.091933711068446 3.2467848502876553 1.7238120325947677
Sc 12.018750370198156 7.067780544924956 4.447593775928608
Sc 6.889703977659795 6.0023371911682615 2.7672837056967943
Sc 10.704176608662088 7.440866757788323 6.636178936220433
Sc 1.6404220432521475 0.7145284031143201 5.6683697162764535
Sc 8.46347552520034 2.8693613791151966 9.164130441936893
Sc 3.703421161424702 1.2129693085460078 7.88655200360854
Sc 5.6830936770544875 2.555046688506082 10.451952104350244
Sc 6.9597450058816115 9.071804735981951 2.4747901515583863
Sc 4.988315663598004 9.78525511675205 4.701156661162408
Sc 1.870215962639562 9.356363236000002 4.326544996661729
Sc 7.364286218712907 5.251456564992836 10.413771010155243
Sc 3.289723705348118 8.28222698867628 6.644234072955532
Sc 8.304224775856179 7.1033191385486605 0.43448928692846156
Sc 5.489465815973127 6.804679330525871 8.802049658608135
Sc 5.4467601271687265 1.9220612907173769 2.036616590530226
Sc 10.102952608101488 3.256261175875084 3.9321710291621295
Sc 6.76271086791906 3.337190860606658 4.718193807941986
Sc 8.291863551896961 7.691530069133786 8.428468282546346
Sc 0.930464497481421 5.736096142092458 9.925408401883443
