53
Energy = -281.60559866 eV
Sc 7.7495233355230155 11.913145511678046 5.748245261138519
Sc 6.153674514461425 8.388093503910042 1.7367982702373002
Sc 6.554995738097023 5.725265707926367 9.145931020831211
Sc 4.451394561569676 1.8128764661381196 5.801880611517795
Sc 2.5625125621422695 9.448926953643966 6.472212667641973
Sc 9.854227805695581 4.854845271648013 9.84481834542567
Sc 7.86600334912694 5.754179119784023 11.952525933822312
Sc 7.262693192250279 1.7970785242730778 7.070096893222811
Sc 5.098903894180448 7.28891596371777 11.669920752203403
Sc 5.357646803375252 10.768533897308743 11.157858379461912
Sc 6.000628903520358 8.749813034756666 9.29420899316721
Sc 10.32252614320393 9.916346183554761 6.269677292215
Sc 2.998874106733657 8.570009370848878 9.659152764420512
Sc 2.7978893901436 4.335290314476503 6.72552658250443
Sc 10.662431651735872 7.085770920919734 4.525321017160244
Sc 9.57962347484699 2.4398101991842527 5.223090749734475
Sc 4.606148542259132 12.16434777341487 5.617355353298115
Sc 8.170228537800261 5.559238587522538 4.520487180529249
Sc 9.507632137517817 12.70907509716816 8.190281845483641
Sc 8.095248011414693 8.966780229541817 4.191119131602146
Sc 3.6933184642475587 6.723619478532898 1.8568126691093418
Sc 7.7492983917342215 2.9485565028839082 9.885052919189569
Sc 4.879695966836003 2.936268739825558 8.665001200133858
Sc 6.879950522181579 2.7407507245333194 3.9779281907507733
Sc 10.543211803190847 2.4371565800462327 8.184907308767514
Sc 8.121444585592696 7.52909781594765 6.826768474366084
Sc 3.363510648074706 5.501178258061772 9.643280938517275
Sc 5.810660133949433 4.402136165432891 6.2703573270929445
Sc 5.448588790308027 6.9708083265985685 4.261065226592214
Sc 10.94351150416643 10.203894120544643 9.247096526772246
Sc 12.656184212759733 7.848200784541134 9.887171320883795
Sc 4.218627920761715 7.0316179688769385 7.2731273915851755
Sc 11.010821614439173 7.052121343741234 7.591073133427025
Sc 11.478701526947136 4.483998548258647 5.940859134380345
Sc 8.760910950748157 4.520743385438922 7.271991458455959
Sc 9.100216933662056 7.729376124972004 9.859077322878708
Sc 6.573731673711297 5.240627892455991 1.9466761992570258
Sc 5.707608481604119 9.56945160146469 6.085262335808507
Sc 11.079914600915403 6.367320089762335 11.827152788368
Sc 6.458219297801687 12.601586374067415 8.586908839971194
Sc 9.012958382333725 7.121874162323637 1.9709124167255323
Sc 7.57771877704204 8.875513618515683 12.175604742829348
Sc 8.10661163417014 10.25649829269431 8.232210267449902
Sc 12.606791320810697 4.899853458485054 9.133485112606111
Sc 2.431186719096283 6.813701853068066 4.777553862046088
Sc 4.114749079282076 4.226496460066099 3.7517713970235804
Sc 6.233590421626933 11.11658465371304 3.237036595139334
Sc 1.2851600809191035 6.843693101680853 7.767063676285364
Sc 8.553188475675201 11.409951959910574 10.882686193972004
Sc 4.046756230742027 11.060921990954103 8.410308275927415
Sc 3.78406702780116 9.43440799558234 3.5675351457226645
Sc 10.725936832557663 9.332147772117136 12.037756684925052
Sc 9.941190667900656 4.313578442424145 2.8069290484418135
