53
Energy = -279.59554032 eV
Sc 5.9938617388068325 6.8660334339422935 13.124389968720115
Sc 7.632277646796456 2.2843119678902197 9.983727913761857
Sc 4.395560231323111 3.611230400827394 10.789939044461825
Sc 6.678868564187166 5.272463195720535 10.66527799163911
Sc 3.625196936466335 6.808765483681507 11.233043722121119
Sc 9.124617489546411 6.740052568404081 11.702227909439479
Sc 9.1979913613508 5.080152963934404 9.097872201918113
Sc 8.006821663391234 9.191764279396795 13.003875169755371
Sc 11.600102425433708 7.1198356315300275 9.291896828722484
Sc 4.8834804100187155 1.3003971076555767 8.781672305329291
Sc 4.999141309659421 9.761324375089265 12.247403487125633
Sc 10.791392741099497 9.270678966875511 11.602336593916455
Sc 7.20531763858956 1.063142123027184 7.042948993028366
Sc 6.306557398959419 3.78656024799939 8.061159696049158
Sc 9.113535682850284 3.373699171764683 6.635159291487622
Sc 6.474232509454681 8.156858377559722 10.51687670682284
Sc 4.599089264931852 6.144682543746945 8.573078829553744
Sc 2.9705278342733923 3.669607805645942 8.129206609910401
Sc 3.382165717012811 9.269496763761563 9.523835239890149
Sc 11.487930778661076 10.368909396630713 8.803630207546941
Sc 12.078778812610283 4.701685113250788 6.926987826886543
Sc 12.650187784638032 7.982536509536523 6.593781089568695
Sc 8.48564632137699 11.045935461659715 10.699106675047815
Sc 9.155561856539414 8.687099043053715 9.144681718685932
Sc 7.2273897435241645 7.144117208311334 7.583275482778501
Sc 4.832788324813564 2.541928983841027 5.743100175603846
Sc 9.97566933683631 6.395079440378978 6.583888538220446
Sc 6.266283018723736 10.343190027729824 8.551176759279121
Sc 3.7689534466497343 5.427672805433396 5.755648464586193
Sc 10.03447665598614 9.390680606632051 6.316024682033938
Sc 8.73766555375657 11.675012178778777 7.564121151838795
Sc 1.8694895460669287 6.919341978558713 7.986653692040391
Sc 6.84557091690839 5.161490820970048 5.3380109478526485
Sc 11.949667801199553 6.336002565831618 4.250512898705432
Sc 10.277503176635815 4.017857191360591 3.997670537045739
Sc 4.2700040814338 8.6244202537726 6.789020765042722
Sc 7.468781248143249 2.4406868766694396 4.184100921991209
Sc 7.990237129448704 4.773505312732239 2.354414122084361
Sc 7.181746137769292 9.451901786564152 5.536168051078043
Sc 3.8023138575644837 11.723485762930654 7.565470704073168
Sc 8.781491367769886 7.2312842364902 4.064984848563983
Sc 5.09953633014927 4.6975284027925195 3.0104751804520316
Sc 1.570634732267112 9.876729409426462 6.911296193914959
Sc 11.381598468647972 9.151068467028107 3.726131679940135
Sc 2.1822650800222476 7.826053623352791 4.751324185195106
Sc 9.026928183156155 11.50812793462622 4.344398387840323
Sc 6.180230328985394 12.153786618499543 5.664611260009737
Sc 10.241051055694596 6.751442672916556 1.6608938516244298
Sc 5.274630739923246 7.608465302902835 4.068560199980518
Sc 3.7134991969276547 10.578534383150881 4.688118525668015
Sc 6.855722370099537 7.348770680683118 1.55430956248185
Sc 8.841532583205465 9.4840792172572 2.236163035696724
Sc 6.1975985946439645 10.438491384067255 2.870327174008555
