6
Energy = -25.19019474 eV
Sc 11.52147110609599 10.860474299053546 11.569683955812291
Sc 9.359113367083312 12.557195023061444 11.188785686433222
Sc 8.946303605748664 9.590973179051351 10.88695273063535
Sc 10.380088329963627 10.973930445390868 8.844322052696088
Sc 11.431696091777937 8.392781704429431 9.830237114761218
Sc 9.051704358158178 8.465779447245087 8.220242428014636
