6
Energy = -21.83777662 eV
Sc 4.375138638222427 6.718901968325437 6.352138582256664
Sc 5.000285614789492 5.52119802419616 8.457682909346387
Sc 6.929744374842415 7.997368244290834 6.115167149103872
Sc 7.655521950374573 6.601751549614095 8.480673638964769
Sc 9.58535022818301 9.082725918767515 6.136893920813635
Sc 10.248649163220469 7.786130935279183 8.17364154434518
