6
Energy = -25.10953126 eV
Sc 10.413219320514584 10.407387067881535 12.36854581247472
Sc 11.145524720691048 12.71777462125336 10.868054523276033
Sc 12.869494832829 10.3248275830196 10.947191760034885
Sc 10.104744459424111 8.387149820917802 10.402911234135404
Sc 10.911689730650169 10.666490390603 8.80584515152527
Sc 8.460195953891837 10.857310220869854 10.35383811925152
