6
Energy = -23.69462847 eV
Sc 9.032884081554148 5.622479459390722 7.603035008708346
Sc 8.71687328763897 8.240433568565992 8.759305740020649
Sc 7.688505875831325 7.718787097263228 6.064499838371973
Sc 6.104141475033225 9.216511058438275 8.027772096454141
Sc 6.632091556100983 4.9878691637029045 6.134316231464162
Sc 4.8218955355184265 7.210311464316332 6.407462896658053
