7
Energy = -28.24546052 eV
Sc 7.088734732905405 9.58010169770963 12.223505601818642
Sc 11.57965087457667 8.479301759585141 8.51032151641958
Sc 9.252129958298935 9.640320444472042 9.95771081310349
Sc 6.879107739215357 7.926838109187306 10.006252841723187
Sc 11.765557338737773 11.16194051087249 9.543287897006822
Sc 8.752166047008322 7.926452570656416 7.6453812667500225
Sc 10.061561272881718 10.614593635089244 7.265749073579857
