7
Energy = -27.16037516 eV
Sc 9.433750722631977 8.488872737159754 8.332197941950627
Sc 11.445903511836422 10.193866451007624 8.978945898869162
Sc 8.903653668126207 6.428066840284701 6.648523520633863
Sc 8.25605606599613 10.32689492091524 10.04061797217491
Sc 11.678707245644285 7.817714042205289 6.985383323574194
Sc 6.715953012671712 8.045800196185947 8.652951519723661
Sc 5.445306860552288 9.820462114049915 10.566884272679673
