7
Energy = -30.35062281 eV
Sc 8.632791748790556 9.256722206943454 7.754598578662339
Sc 6.840221515384598 7.156890673668803 9.010313027065434
Sc 5.755690258379342 9.187051503527838 7.050012946367284
Sc 6.021602323077892 6.24541390467069 6.391445484466609
Sc 7.777950426140039 8.325250588300037 5.075981732290755
Sc 7.039784469770476 4.302338990900978 8.31794236506492
Sc 8.825461794548303 6.314542284376311 7.08876422783892
