7
Energy = -27.7454741 eV
Sc 7.8841801339023 5.559849599402204 8.693711204684899
Sc 6.410401637006708 8.110123012164408 8.694501299999999
Sc 4.936623140111118 5.559849599402204 8.693711204684899
Sc 4.936623140111118 7.260953674611334 4.12709206932852
Sc 6.410401637006708 6.410401637006708 6.410401637006708
Sc 7.8841801339023 7.260953674611334 4.12709206932852
Sc 6.410401637006708 4.7106802618490065 4.126301974013416
