7
Energy = -30.19577651 eV
Sc 9.60257433955904 5.431364755023999 6.092601921007436
Sc 8.117695669920137 6.144908038175868 8.419039912249279
Sc 7.204719823364572 8.98040783616974 8.967102902218766
Sc 5.174819576807369 6.812634261662552 8.331164059828955
Sc 5.810671757319084 8.914828591083642 6.424342984825666
Sc 8.773921557840126 8.174959574639537 6.481053870666945
Sc 6.802560936302951 6.088261230417496 5.857242573890369
