7
Energy = -29.21671429 eV
Sc 3.739249474115484 5.7079603300299855 5.526547635019289
Sc 5.758526746958371 7.284164679435497 4.378682324467402
Sc 5.54743485939847 3.684699693611246 6.135872247858229
Sc 7.642081611001158 5.1694210267147005 5.01399782156766
Sc 5.047151066965973 7.509391682439618 7.237419020188152
Sc 7.898795183814468 7.812883211416293 6.397184116256936
Sc 6.930111573799852 5.394830079430393 7.873647350695881
