7
Energy = -29.8686578 eV
Sc 7.455282453117221 7.084508196421571 3.6725926602866945
Sc 6.180028356249098 4.653430474465497 4.673019724300651
Sc 4.9215409915032335 7.370827825761528 5.097828765199386
Sc 7.194625429378257 6.499950858223064 6.633080204992758
Sc 7.063190375974219 3.540906103554314 7.223044467235221
Sc 4.68098662126989 5.241607348283541 7.22744305915819
Sc 4.963599389021185 8.06802280980335 7.932244735340336
