7
Energy = -29.31692886 eV
Sc 8.155060046520827 8.725517171605249 4.6486579819245275
Sc 7.8019205438760295 9.435538617920749 7.375195238502043
Sc 5.679479683565476 7.974950674136633 5.852051038513818
Sc 8.079691162899355 6.589492198840225 6.760795240697458
Sc 7.540602747203597 7.449294689277834 9.49436535253563
Sc 5.480854344863547 5.940688954780813 7.932798554713946
Sc 7.756637674310942 4.644942854295183 9.028242067460479
