8
Energy = -32.8145711 eV
Sc 8.379001631106636 13.01967884261483 7.263724377382789
Sc 7.755620796473244 8.96832130279862 10.418048439679218
Sc 9.264204182356385 10.584955792891048 8.21717403853693
Sc 10.69709203970466 8.663233715253664 10.128610913026012
Sc 11.462123972787737 8.903353897818457 7.319151368484271
Sc 8.799565792596722 7.5463635491126215 8.075546891951594
Sc 6.259168587806356 6.740624455864991 9.522183952338846
Sc 8.871133468358828 6.33597579866721 10.73514577272832
