8
Energy = -35.15092256 eV
Sc 7.761148035841835 7.5440365518620744 5.4793648541549125
Sc 7.057848460911577 9.617463472642333 7.614794245742457
Sc 5.40781463436243 7.094190405838775 7.101896444885435
Sc 7.118414582974573 7.5097103408946255 9.608600709901006
Sc 6.193736362153713 5.199656381133172 4.965752481925994
Sc 8.697115929794126 9.867356530978865 10.068202803622189
Sc 7.805027964696511 5.4224933926949435 7.464896304964578
Sc 9.476738391374992 7.925118568030301 7.9822808286722156
