8
Energy = -34.61743157 eV
Sc 8.72747816313492 5.9791134718386685 6.085383447205243
Sc 10.058329566369814 8.549031585710038 5.337003758347621
Sc 4.1746087196770585 5.396913456142631 8.86694026879278
Sc 7.861853017054318 8.380848111941306 7.450694068509535
Sc 5.775181182090486 6.320641681544437 6.4446396075723085
Sc 7.112882491270651 5.91810942508161 8.974798280986233
Sc 5.073392356097273 8.04174670258483 8.72466770514618
Sc 7.3989861244085 8.13618536019671 4.548193671107789
