8
Energy = -34.51412448 eV
Sc 5.71552698343901 7.571298397311431 7.861544064778976
Sc 4.146318086651878 8.83427724621761 5.811618965769931
Sc 8.279669003754949 5.312720756349633 6.5678109310732555
Sc 8.339842643002772 5.143212983945002 3.7071533061035353
Sc 5.69914236166952 4.661597388332577 7.7397819901192015
Sc 6.050989656108971 3.8229150991466176 4.972540099748381
Sc 3.596369096385861 5.976645182056201 6.204120057377467
Sc 6.184419783288643 6.689610560942268 5.147708199330724
