8
Energy = -35.22611332 eV
Sc 11.84067365582015 7.918626328151205 9.548006588187022
Sc 10.944086807606766 9.342699301079442 7.132621334483048
Sc 9.180795792045103 7.4237611369229235 8.411828095997057
Sc 9.452836711318705 7.678067136613266 11.37689720178553
Sc 6.9886815607401 8.819967281225221 9.95123647554881
Sc 9.652177374184932 10.066873597677374 9.681066416190548
Sc 7.872582170825699 9.945269682444698 7.31531338020514
Sc 7.004876397194599 11.633379403154416 9.509577494076554
