8
Energy = -35.58667069
Sc 4.75824301595337 7.026872964888359 6.5648985189743065
Sc 7.624154415180425 7.493138083094074 6.848342886285718
Sc 4.127689159170001 4.243484434615743 7.121963873148053
Sc 6.935599722561777 4.678928130032544 6.506055002563337
Sc 5.97567700937411 5.9117258942243325 8.956823776673588
Sc 5.07796788820046 5.195197938116619 4.317741946013879
Sc 8.065307777178015 6.015529283577791 4.156558154311983
Sc 6.11667052293507 8.11643278200413 4.208925352583087
