8
Energy = -34.28161634 eV
Sc 4.574967909118943 5.028638600767296 8.4890569048846
Sc 7.073330064966244 6.631151662546589 4.613121141143965
Sc 6.550184597350807 9.112259601105318 5.93603870327275
Sc 5.934896276735888 4.271984094207771 6.090165437350217
Sc 4.4388272327412315 5.40605844313958 3.6880968320091663
Sc 4.535700201646153 6.9042706476702795 6.151852628839479
Sc 6.930788286896142 6.652701258178969 7.600987744818458
Sc 8.90243540295464 4.934065664793888 6.371810580091174
