8
Energy = -34.87887453 eV
Sc 8.860898100692914 6.087836638091935 5.133362140217425
Sc 9.73355908064579 7.801929784542036 7.176640837661888
Sc 6.090776514845552 5.299194091730923 4.974311183508591
Sc 7.256905638843937 5.904653003982192 7.821129082988116
Sc 7.880294339041159 8.73212047447013 9.046304746214958
Sc 4.241640588778421 6.232219688719996 6.8558324525359575
Sc 6.720385918745735 8.12050140435112 6.187109336831722
Sc 5.1198708718216395 7.95076230028046 8.88469393669854
