9
Energy = -40.16263549 eV
Sc 8.869828858755215 7.131428767675954 4.434663010571817
Sc 6.481012328057308 8.436793586042803 5.5583840172223296
Sc 8.477786527786444 7.577254421829669 7.62639490472166
Sc 7.537204924886446 5.141144933596676 6.1479275696475915
Sc 7.6734293670760065 7.84100547600521 10.536972511794257
Sc 6.188588626949265 6.1399359173788515 3.6943192300331185
Sc 5.710494328747673 8.376057355960508 8.490975752170177
Sc 4.825868534546043 6.198347461235559 6.462736973417333
Sc 6.577265378159411 5.6779396648001015 8.974221517579972
