9
Energy = -40.47876948 eV
Sc 6.771517484682823 6.031559767030797 4.759500558019853
Sc 7.525247119819309 3.4001039035426563 5.459454755854208
Sc 7.522676159272653 8.66369138877457 5.458610285469123
Sc 8.542196405930971 6.032551411564625 6.943193081166273
Sc 5.845076449370788 7.527646629194287 7.446267249460298
Sc 5.846757511295911 4.536859175234269 7.445514054243407
Sc 4.4756660211902055 7.722017850301859 4.87299513010556
Sc 4.477591710131624 4.33807407624951 4.872835350123202
Sc 3.2757994823953305 6.030024142197051 7.024157879647817
