9
Energy = -40.35407876 eV
Sc 14.299310355408943 11.95395754317924 11.300793139045311
Sc 11.350028279970038 12.433008281350965 10.983261836332627
Sc 9.475900653208543 10.33832788444088 11.893242990882587
Sc 9.87735233927623 10.921813348218468 8.922148734938832
Sc 7.606036702884955 9.447406356213394 9.900099879433073
Sc 7.948106505231105 12.381244340708108 10.51715858597827
Sc 12.453338936642389 9.858592531106744 12.11089816638918
Sc 10.605675129032969 8.353425674061892 10.094731347475063
Sc 12.833804316943953 10.40126690831724 9.331653194729292
