9
Energy = -40.0726076 eV
Sc 4.084240920853285 5.974660716960338 5.968708235553343
Sc 6.516893408190699 6.771918969779397 7.537440806316239
Sc 5.2249196040090045 4.370530521404067 8.410187161554877
Sc 5.24214439491256 7.590567223521001 3.5019501605013623
Sc 6.494551282727377 5.182891198804023 4.432946009904733
Sc 7.859167451867343 7.614391522283341 5.132287591198328
Sc 7.850677556954821 4.32252324930013 6.818533090867586
Sc 5.2367114756391215 8.88755378018498 6.096187615296596
Sc 5.230368360747169 3.0246367016459477 5.841434166054271
