9
Energy = -40.25241106 eV
Sc 7.7034811750676 7.4263594593675295 10.282203355683832
Sc 6.124059424658206 9.666720606085809 8.989398389016237
Sc 5.893247688377988 5.59175440598615 8.690230881328423
Sc 9.128539117538022 9.292001627436095 8.297415452715583
Sc 9.336058826875469 7.673384125869018 5.6704002497591866
Sc 7.265471846835168 9.907761860584047 5.930675919384823
Sc 7.024131314543512 5.674818394985097 5.618612442691588
Sc 8.92521797977785 5.723448763665795 8.032901927745051
Sc 7.117554875762757 7.666152090205439 7.465431467027417
