9
Energy = -39.53240043 eV
Sc 6.236897690866433 7.10544319012859 4.738170046299946
Sc 8.885841101853295 5.915014823210845 4.489760001516484
Sc 3.8539369980298988 4.988893255780115 4.398759078772336
Sc 8.771264034658516 8.616283216624812 5.412852459421951
Sc 6.473273624086709 4.262496629833521 5.620430306324434
Sc 3.7293640594621493 3.2760754209995837 6.7853732998906375
Sc 1.715644647823255 5.26462335634554 6.365675729073303
Sc 4.560424800757862 6.058923468242517 7.02247112424296
Sc 7.747969809033885 6.486863405406615 7.141124721029942
