13
Energy = -44.88074761 eV
Se 9.838253666818353 3.9751215273961074 5.2434747539593864
Se 7.475533485561395 3.5725552229574573 5.170870891802985
Se 10.307255952298956 5.8534890218878495 3.920181883652429
Se 6.8021028451400065 3.2111451596093605 7.392504044131467
Se 10.37403845891157 7.8136906495400655 5.251649957707542
Se 5.777320251699283 5.082811927946815 8.441723695020638
Se 3.4252533901864393 4.8820798618634065 8.194599583018192
Se 8.248426664361258 8.744053632580947 4.916991301283432
Se 6.962580201219685 7.545901843055874 6.546187858455652
Se 2.647866266854488 6.397722524308756 6.575099880043923
Se 6.132474651924854 9.151207152197244 8.061279820406838
Se 2.396436568989406 8.429355221925832 7.770250545119176
Se 4.121101319484753 9.84950997818102 7.0238295088490705
