14
Energy = -47.36879115 eV
Se 9.784172318986926 6.297455201528496 5.90923309220795
Se 7.426667237979748 8.163142332211228 5.203022386566399
Se 7.441362667921536 8.935739591062664 8.45211203920972
Se 9.896870588889685 5.746262789070247 3.7529009993947713
Se 3.95084228088864 8.771780952422153 7.248792851977699
Se 6.292933114443698 7.8131885878564935 9.979581461241132
Se 7.524668134168234 7.294106274261847 3.1711359231375864
Se 3.7579601789530637 8.178992783647228 9.459366920244276
Se 3.3804612759760193 6.861752841074435 5.980573441950998
Se 5.722710221694208 5.387876539167316 3.421585553403324
Se 8.19066458551334 4.599987541936751 9.048507170989222
Se 6.00573594903131 5.398403541509757 9.318090090976021
Se 5.395460741125013 5.543059554337312 5.660896321391405
Se 8.610919553833348 4.299945603082292 6.776447101477925
