19
Energy = -64.56312013 eV
Se 11.452172302351457 9.102014513799137 8.004358631340644
Se 9.159901782559741 7.122285775303047 9.530280434698593
Se 8.337547449751447 9.327417099029175 9.938087223676753
Se 10.659338748719819 7.918901295529381 6.299062648486798
Se 8.639692181740928 6.5448794478623 7.381939948359022
Se 6.2649220345469026 9.18420348141266 11.049529652200375
Se 4.626712228243962 9.71822928528462 9.42228026027794
Se 6.700404151061171 4.14542017775998 8.196521023708083
Se 7.027376021962227 7.152247020833948 2.9136962222524017
Se 8.129546242867937 5.311465058418551 4.0076820284468955
Se 9.285379658785871 9.49018045370708 4.740597053495158
Se 5.876280044646124 2.416690364969384 5.586561695581717
Se 3.148238646835249 7.9049857964951125 9.077727942161141
Se 4.503507556724782 4.484482607813415 8.272403706962889
Se 6.824728851635435 3.410571680838051 3.5923717810976505
Se 3.8109869258552127 6.633398838134383 7.231385898119367
Se 3.773783195353891 3.1427609849978957 5.986137142998733
Se 5.683918368500643 8.255821618324365 4.384507895331964
Se 7.230881404706199 9.871215772428197 5.563450427859337
