12
Energy = -40.36846711 eV
Se 3.4814889591006097 8.353930693793851 8.420485048621288
Se 6.142712411875728 8.913030692228215 5.728527977939317
Se 6.383632290262536 9.64373587836629 7.836206118106676
Se 3.695249757779584 7.742270904678341 6.295499862539011
Se 4.478977838893871 5.385620238799741 6.509586895987295
Se 9.31524197750171 7.575608208194594 9.065435456127787
Se 7.021232851173632 7.705594430329143 9.17240613974679
Se 5.409915936592455 4.881281540826686 4.4782741472072365
Se 9.035696511967172 6.592367493300259 4.586110269026561
Se 9.972213801922726 5.916564143804632 7.311131825874094
Se 7.903304922436605 4.678316793330183 4.594408472549335
Se 8.705541256164237 4.096612870215389 7.426925705546548
