13
Energy = -44.89301874 eV
Se 8.941068807365259 5.206787124340328 9.099269267351346
Se 9.967554670401455 8.123988392270219 6.785022413919138
Se 8.300901755117282 7.28971458071495 8.157801903302412
Se 8.212283553279136 3.562962840564467 7.563912837658763
Se 9.634859757262161 7.019161288703023 4.63575122321416
Se 5.96523679349752 2.96045052233443 7.9206540266978225
Se 7.369957488755515 6.555689435786413 4.5089331145253935
Se 4.706153148598418 4.031342458945965 6.2080991444207605
Se 6.211622827055922 8.370951626093495 3.5047812737063126
Se 5.375147673529398 9.691067903241457 5.275697620367905
Se 2.982144761430199 5.296159581701192 7.198885063929762
Se 3.5898589732621864 7.504299996372401 7.767141235342694
Se 3.2456543396632895 8.889868798149987 5.876495424781289
