17
Energy = -56.6670882 eV
Se 10.956109285003185 4.544604520555884 5.7847006759730935
Se 11.539284664933287 6.809486780264467 5.376720543768298
Se 10.234603240782173 5.714985574313071 10.414474543587792
Se 9.49366035444357 3.8969197783357554 4.0381816184606105
Se 7.516279984195643 3.120474447652601 5.045800915263007
Se 9.697724934442457 8.174252256844722 5.7394055734081775
Se 8.736572639754604 6.249273956289086 8.871283834253955
Se 9.463275811782724 8.717222213472443 8.155744176802774
Se 7.691249860764896 10.073667357432006 8.021272299799284
Se 5.662257603657425 7.5034320103549925 7.683982531271002
Se 5.6845852745453715 4.652396992394239 5.056041242336642
Se 3.83152711206646 8.076847530240988 8.900894168593958
Se 3.1890003663819098 8.832425045702381 5.234931926347882
Se 5.2462583931178 5.087257768027172 7.30544796303704
Se 2.256750574594157 9.204167360837209 7.219790363999444
Se 1.9018483774532828 6.619653200873029 4.576411710210434
Se 0.5324765953546101 6.389565295402787 6.288058588791033
