10
Energy = -33.2987732 eV
Se 4.770742310899519 7.131368922692346 5.352890850101569
Se 8.31142928386357 9.035382915513107 5.281671320170672
Se 9.773353468660723 6.288956761266876 7.356255653275767
Se 5.860805688502505 9.363180047658787 6.135321369883906
Se 6.397201763550137 5.501605706659435 5.528523586403511
Se 9.39979895505305 8.582858472870218 7.253211588165573
Se 6.224820833773919 4.4386185071597914 7.563911134826661
Se 6.0128514278027625 9.392279559586857 8.339913857961461
Se 8.12226183555337 5.425760796237194 9.110280304607347
Se 7.3958571551965555 7.109111033211391 10.347143057459785
