13
Energy = -43.34257006 eV
Se 9.0685248983444 5.182235140468326 9.615061255778823
Se 10.075603607552733 8.504424807062133 9.188715351083102
Se 7.203475492568313 6.085390649453709 8.851948895439046
Se 10.544091698694212 6.573339830830071 7.4814185490623855
Se 7.8197200619691465 8.639574862961494 9.174884992625866
Se 6.861717226863992 4.081690324628209 6.912503464577344
Se 8.707610391452194 9.193028422659731 5.5103709757827986
Se 8.793211596115729 6.696604302402133 6.0607273369045505
Se 5.251035805270061 4.860897694210144 5.452706902138051
Se 3.608528336262536 5.882932510029332 6.872838504362803
Se 5.072110629313886 9.517790718136826 6.818806105164037
Se 6.5183578868403185 9.408370066481963 4.8725582531321265
Se 3.3704235854533438 8.086410954053111 6.061667137010366
