12
Energy = -39.75395247 eV
Se 9.261185988856683 7.275579378986411 8.374738083490344
Se 5.284629597245287 6.674805947786103 9.73098585548375
Se 9.894420572493813 6.272680673431937 6.3574220723619765
Se 8.190132833621954 6.571816715087287 4.7575155418647155
Se 7.999156249344182 5.400782301481639 9.586458806500724
Se 8.24400227198345 8.918365315656029 4.35992719510698
Se 7.874078483816939 9.764249440883802 8.168672788103374
Se 6.080865305928858 9.578419549664785 4.875573503405149
Se 7.426827248297696 3.9568246169387984 8.023502147065704
Se 4.779270417636551 6.770789708020734 6.066450436984959
Se 4.687446032830844 5.398569450416719 7.960791500184216
Se 5.902719407122221 9.06030246896902 7.313780092336472
