18
Energy = -60.59077881 eV
Se 11.262217697671339 5.9337648282566695 9.433822909697922
Se 8.868425897694683 3.1715932578250126 9.172990728762246
Se 10.282549878672528 6.24470062064315 6.984461279362478
Se 8.276751199058106 3.604831291435246 5.314860995874168
Se 10.664453561758872 7.961661978679428 10.205012529806243
Se 8.10428920493846 4.5958472698046515 7.649282086739393
Se 6.125946523798228 3.5767358646013925 4.543591213743354
Se 9.639161772104481 8.355082142786165 7.024653367381631
Se 8.265311560691394 7.6926209212260535 10.692312432295378
Se 5.819109265359492 5.840347239140781 3.5983742897280155
Se 7.690607872011134 9.90503071056107 11.046533552093026
Se 7.612261935386153 11.20832340801786 9.02355710080192
Se 3.5877386908080777 6.10709096489661 3.5861200946091034
Se 5.2435809874490635 7.031643425582313 6.849714325692706
Se 5.92984181215346 9.750504422469799 5.907953875914256
Se 5.5417846162997275 11.057520050654652 7.993125699211312
Se 3.251335564277768 7.21842544677816 5.9428692983014075
Se 3.9607613006131612 9.961233088978073 4.907635556355973
