15
Energy = -50.24828809 eV
Se 6.840071812474155 6.282456417106131 1.7898076294344416
Se 8.231874766546404 7.932823417209143 3.6299695675878767
Se 7.174903644917845 4.43453563704508 3.06301124565017
Se 5.903697089936373 8.397510514515062 3.997865700274062
Se 9.042991388397901 6.251738442605959 4.951651545142662
Se 5.544818095167183 4.384117006683743 4.752113709471232
Se 5.815316696848678 10.076486395391418 5.69573834540182
Se 4.28590829904361 9.353992150553168 7.313819877098212
Se 7.107701240166649 5.4578111235481614 6.595039552904581
Se 5.447367360047038 8.140346890145796 9.041737840945832
Se 5.424299893976243 4.379646551998919 8.095724310499763
Se 8.943368576592176 5.969637476302614 8.535215730294963
Se 4.29490172113908 6.0838228377493655 9.239827357416221
Se 6.432023476336438 6.252986659226364 11.359628042568957
Se 7.75142741832179 4.842759959830233 10.179521025220854
