12
Energy = -40.04123489 eV
Se 7.674987884878648 4.843946476795917 4.860677022244328
Se 8.418669191342998 9.536578063350236 7.083243194657799
Se 5.112421519631046 2.2848134780846174 4.834734892588683
Se 7.956962158598907 7.205915900256195 7.806207530425475
Se 6.715558706819139 2.9857057129098195 6.198838848082139
Se 8.020098250146066 10.700954279256013 8.937524194991179
Se 6.312092425349475 9.944600705216747 5.550951270637375
Se 5.513691534914598 4.279438734123332 8.098269276906036
Se 5.478073977672501 7.953323107531603 4.832317473584268
Se 3.7509716160294153 5.072760543917436 6.827212407421106
Se 9.169632637647917 5.787330207259238 6.39122023995761
Se 3.880023260355115 7.407815954684971 6.581986811889528
