12
Energy = -40.66586722 eV
Se 4.46578673764166 6.787422779921494 5.9632545216565775
Se 5.4080144496487605 6.388065483274537 9.606367053933958
Se 3.3944110624801875 5.403006962092262 7.3457077137948925
Se 8.562762481688194 10.057817067303699 7.5167965046734855
Se 6.480593594298977 7.166982873724899 7.834523079233709
Se 6.317541850930727 9.662559001887564 7.489402601019146
Se 9.26300499682091 9.554870512755977 5.178083025123073
Se 6.717324800379956 3.5632040532976625 7.077780909072724
Se 4.4519745066347935 3.203749739606654 6.870024010702361
Se 9.043797300668443 5.816306606968831 5.037782868438155
Se 7.871362311310441 7.92390387821282 4.417851187974331
Se 7.59770246100101 4.0381093403666135 4.846807670258257
