18
Energy = -58.93879551 eV
Se 4.036708657734716 4.566466354304108 7.207504099010908
Se 4.223017739427703 6.429076883949463 5.947020239975018
Se 6.404056425145638 3.6115565673743104 6.876759786405431
Se 5.84990888061193 3.519807793058436 4.362823260529485
Se 4.9669307786485986 5.576091364383809 3.7319687774995773
Se 5.609981643579117 8.06800368584615 8.382969222562787
Se 8.30125847329267 5.173703035264757 7.064321602414687
Se 5.842385574162577 9.083407748964863 4.650651978186802
Se 9.3920330245059 5.627463822728445 5.083794256855813
Se 7.128940578952023 3.647814731714314 9.532829496014122
Se 6.556026571965305 11.06565123559702 3.5757460654315785
Se 9.160127235381522 8.060039667216751 4.6003604896720125
Se 7.421194656644113 6.978971203723341 11.202179757569443
Se 9.100880074294942 9.055484707730926 6.633884535353306
Se 6.529689735898075 9.60353697248181 7.033474214065775
Se 5.820921496502878 5.190049754541616 10.639498107756845
Se 8.77617382513077 10.954114866724844 3.146390545855964
Se 7.837635925510084 6.851451466549822 13.395024652485876
