17
Energy = -57.15124918 eV
Se 6.115515095931619 7.799864491553208 3.2923268508343333
Se 9.988303753824004 8.157643547485478 6.378033765298496
Se 2.7489485123067414 6.426755090570932 2.6085139757899674
Se 8.367434797902433 7.017357617267564 3.2020475950066056
Se 2.261557755038961 4.77152135402675 4.017782871149107
Se 6.527331232083776 7.090319660666892 6.972014941548011
Se 5.952753824644612 8.801199628126241 5.417416139369562
Se 8.10737060889786 4.685944137427873 2.9519844377937643
Se 10.995698793181468 6.207899715819474 6.8487261935845565
Se 0.35562808339395796 3.999307602146689 7.1276462086663255
Se 9.364564245589106 4.742337663246662 7.915571818465031
Se 9.042768534348589 3.066854193088161 6.322710374684478
Se 0.8061710217278222 5.757543299437614 5.781004856164816
Se 7.238895665847654 3.7311011579550035 4.921004589995274
Se 4.9130621646980766 5.428025862372933 6.90660993538649
Se 3.1527795380551185 6.150378901816687 8.476864002796631
Se 2.1756966503780566 4.164736289495013 8.930918024069141
