16
Energy = -53.95291387 eV
Se 4.2799694488036595 3.3973327233282333 1.273537206911307
Se 1.9709051189448883 3.577197829260307 2.3139627916440983
Se 6.647087642153998 6.465806229117858 1.2965621864430006
Se 4.521801249105864 5.637149943562268 0.6937831239557277
Se 4.3791937755657155 1.7500637656743563 5.195275751317158
Se 1.4969638544412698 5.708313132886238 2.6257621253870966
Se 6.610337783261476 3.824945782779171 4.9334258400491855
Se 6.727930822677123 7.215372742048721 3.5583688819164863
Se 2.27451597738811 2.4729843536421043 4.970426447273907
Se 8.182852056243645 5.7097665777353495 4.552518609873028
Se 3.2665203091778494 6.266947061648254 5.922868031007312
Se 1.6334911491717177 4.605218088619806 6.0307306603031945
Se 3.882899992822592 6.535188368120021 8.206717189811766
Se 6.146695285295183 5.989711229061526 8.549354213463335
Se 7.52673472300779 2.9431588448867103 6.873022544740284
Se 6.198176899895185 3.6469194155851463 8.74976048385923
