19
Energy = -64.43038947 eV
Se 6.644157838859694 7.372084593058206 2.2818669952701227
Se 7.093587092222139 5.512526844250764 0.8535045541124138
Se 7.087921575301997 3.7141126821047066 2.366019483687207
Se 8.361216158788842 7.438978103209448 3.8750662428886717
Se 3.0868400201950013 7.500542538421447 4.290863330010391
Se 2.393343171460332 5.509587809509212 3.3285167528519164
Se 5.3206792230569615 8.76864516236759 6.018737993207954
Se 4.900694630895281 2.8135955543731117 2.5415114600114053
Se 8.017865359446445 2.428924357709976 5.491237849288284
Se 7.473796006623345 6.372699053065017 5.822261045890913
Se 8.764096414971778 4.460838518056331 6.39842701541598
Se 4.314226235327205 8.10420746094223 7.914637065374383
Se 5.81243902424377 1.9828284244210685 6.356539546068698
Se 5.584312607196007 6.415497009860249 9.170106479395654
Se 3.758270562446412 3.8048432507704906 4.344826798635823
Se 1.7588429197648214 7.238567316031248 6.4531293912515295
Se 0.9411513293862631 5.1918316816935794 6.349366297238095
Se 5.9265644884166235 2.585632141963122 8.630092379886028
Se 4.433187980517604 4.344273010284409 9.079425259817715
