19
Energy = -63.91444574 eV
Se 10.19057303910399 6.298930091262348 9.274460793638067
Se 7.892537043204706 3.30223063983785 8.338665210282986
Se 11.416228823381203 8.024731706290233 8.325932592191696
Se 9.763663013419375 4.528026730978716 7.664807143717312
Se 6.889793983012555 8.329708196753963 9.823841765190963
Se 10.15196557108889 10.062080004119752 8.051862384394573
Se 6.1126569039757825 3.0502240059503976 6.712465015685235
Se 9.065006865609481 8.41510944793389 3.4032635394091355
Se 10.571253974645138 10.853225161071872 5.876840819598717
Se 6.6585677250210855 8.825110505380868 7.645774402468147
Se 8.6492074550339 10.40905984346309 4.578555789759124
Se 9.07211873568293 6.807204701411934 5.174423750097266
Se 4.051285727694755 3.1474341787361286 7.744225984924797
Se 4.319292867051701 7.965455154650176 7.807361576698658
Se 6.933262701500117 6.82107574877886 6.068522704512134
Se 2.208491581749981 4.6670040169532125 6.793665715268088
Se 3.149532766841167 7.977330224732344 5.707318583242757
Se 3.5491553440198746 5.914934124826451 4.84678083320202
Se 1.6824255993021637 6.3808631741169295 8.116471182057834
