19
Energy = -64.06556028 eV
Se 9.627313807010344 10.928952801277513 4.146701514164702
Se 8.461891969978664 11.380608616334785 8.428754716778336
Se 9.809684343765747 9.420596189661662 9.125487449364028
Se 10.136427785344871 8.765768832131096 3.836001006911832
Se 7.598638078651083 8.52623417415553 3.6708918753288247
Se 7.048852284020796 10.489454898118588 6.83795283993852
Se 9.354925535320582 7.7779916344062805 7.576268416697456
Se 10.998454480629073 7.658693052125358 5.894869630009094
Se 7.762377225523866 3.7164802238883037 7.738004094867844
Se 6.194873517668027 6.696298193328285 3.2883572277552275
Se 5.078173441877621 9.547513001981725 7.813796064760672
Se 5.709932750095048 7.3310873690176415 8.342253504238517
Se 6.372844370098465 2.491584401482512 9.03533964896851
Se 5.137953984870094 6.251990681279835 5.35484216963994
Se 5.488722827194247 7.25982954934385 10.752943898509583
Se 4.221499242919077 2.8097210800951817 6.652849144325683
Se 5.895395522277957 3.9000336407492275 5.689446426235883
Se 5.932103417277002 3.607885947731755 11.139427741987603
Se 4.284812721725222 5.261515363811195 10.90080563387587
