12
Energy = -39.37788698 eV
Se 5.762590478951384 8.859195107500668 7.49971705529543
Se 8.88775776175023 3.324894694292619 5.396091390315564
Se 5.5220422280899495 3.7376728563106743 5.899325879415435
Se 8.430567419099898 5.285889605353302 4.445270543185667
Se 6.328013877210751 6.4279797144266855 8.766856887349997
Se 3.6048485818066625 4.341706017203584 6.974778930169274
Se 8.739831222756798 10.506651800570381 6.789569123556847
Se 7.810625508487721 8.844674404369137 5.615791841766401
Se 5.918079568272898 5.419963534546046 4.257180558534334
Se 3.6198647152753494 8.459199828336045 7.167723946466218
Se 9.138037206497412 6.90809894221281 6.20969560392653
Se 4.1947068178148985 5.841038880891721 8.934963626032125
