12
Energy = -39.08004437 eV
Se 10.34941050202588 7.0446399724491195 6.711279209748208
Se 8.26586469713447 3.9877915248429874 9.865903448014343
Se 8.92351801259056 6.495063546743054 5.0002513690135935
Se 9.415315764901527 9.066024063050186 7.651593213437815
Se 7.062784560520364 8.651914224364965 7.534683027325571
Se 7.311187219460074 4.848829757300208 5.931558333128827
Se 6.565645172800166 4.97676807039849 8.840090982212626
Se 6.459639333509057 7.326919867016018 9.433003224778233
Se 5.454353502402812 5.225007666174783 4.677930478338853
Se 4.710226720815691 9.097131856940589 5.892061507036365
Se 3.6107478591729705 7.097486422826397 5.546899707722781
Se 2.4966120904373144 7.003710089893849 3.608107128055679
