10
Energy = -32.90550912 eV
Se 5.860140481179148 4.37736439530936 10.419912427337204
Se 5.177042709860929 5.495954784772582 3.816777061966472
Se 7.742564325289954 8.14677477046473 4.437692325396893
Se 4.685030994287275 6.262452587903316 10.64414062203469
Se 5.8020416681980045 5.580375679919974 5.981790139822194
Se 4.161255160703628 7.09732065852981 7.025755002441667
Se 9.725094408245068 6.640918310179728 4.478549757336378
Se 6.477910823943666 7.406016952568162 2.713893983233129
Se 5.315592151746337 7.85298248667238 8.867597153411825
Se 10.066252489471973 6.152764586605485 6.626816739944938
