16
Energy = -54.3694805 eV
Se 10.328165950564403 9.762297321924828 8.360234410654817
Se 10.973355631724676 7.022128195453312 5.593451102390761
Se 10.406421868025106 9.299934304153693 6.074073156311546
Se 8.076893930258278 9.365937104450088 9.052846731652977
Se 8.823856854330156 4.4454907932287835 8.145136868396005
Se 6.802225938104499 10.720366956271018 7.622176034261795
Se 9.005018569614554 5.779498757667215 5.560517477793158
Se 6.059739083551393 9.112071900088157 6.056400480892975
Se 5.361739232600626 4.835340309755594 9.802153527335744
Se 6.707020760053778 3.7201402195342657 7.980798173892063
Se 7.5856916522658 6.305775824382024 3.5042547796570713
Se 6.291521579570155 4.4517994884658725 4.012425777139116
Se 3.403596011101266 5.679668159870864 8.892017888181762
Se 3.6073964599698156 8.057554616985007 8.800622214640114
Se 5.239683174324647 4.850240211794411 6.034722425423925
Se 3.7665039895403423 8.838707360068165 6.598166804350663
