12
Energy = -40.56663759 eV
Se 7.853038844050946 7.94887383775464 7.42508208307509
Se 4.089295432976414 8.315715600283095 7.643905947527283
Se 6.118087989197293 3.2141764947597675 9.298596265096053
Se 4.866409749255679 7.965081890906902 3.8406717539860358
Se 7.138391251779343 7.888258589676399 3.1702666063323917
Se 5.280161620150849 5.3052851667585 8.865532844754062
Se 9.165921298353183 5.4538516782949875 5.330767799772487
Se 7.8467894480110445 5.653178213639688 3.3979960676613845
Se 7.5385072562020214 2.9827358135964066 7.434354037485148
Se 6.1898064859499655 8.363989368705631 8.929382095531459
Se 7.293017969123137 5.444854817999781 6.963067489219851
Se 4.600553794217675 9.443979666891899 5.680358148826032
