16
Energy = -53.47096758 eV
Se 5.265864737779732 6.547070460056235 10.416349487046558
Se 2.4516143069195113 5.406040365794513 8.107635308440674
Se 4.630317456310748 4.894542650178639 8.789256567081402
Se 5.532951004098248 8.524352448552015 9.341036252867186
Se 2.7253880851132957 6.745180225678256 6.143501512230447
Se 8.554352473460119 6.186850134539543 8.994917741399911
Se 2.9880812039911153 5.2611377259073615 4.363881237746524
Se 8.009002631169462 8.260120107700581 8.504428175830032
Se 4.5822257756922635 4.892957366066066 1.306442497938996
Se 7.669519524746107 8.01567107365138 5.82144846426338
Se 5.515100429087868 5.369352026506112 4.992217502979447
Se 5.095241861765304 2.8365929852800016 2.148191273345494
Se 8.164706082044132 5.8198538461399 5.683674847998297
Se 6.752642180872463 6.074322438611557 1.7984338706832794
Se 6.2918438516214445 3.326760574574341 4.25211808681945
Se 8.219966622252029 4.464915102030839 2.130781039863613
