15
Energy = -50.67188296 eV
Se 8.567241763944356 6.879670075698284 3.368219055265617
Se 5.904621199928398 7.160611338663979 3.534461189982725
Se 8.806698912637913 5.3700492777922735 5.035324573594026
Se 5.457762194468409 5.763132929957837 5.173899284776419
Se 5.481247387868651 9.527029725047498 4.688545111511822
Se 9.043912546919517 6.798920044661249 6.989201871881548
Se 5.288208743336543 8.890508960600568 6.833126641201409
Se 7.241658079475198 6.0573447174825334 8.311349032030183
Se 9.593517143538106 9.780379866894243 8.556162741103915
Se 7.037012645425441 10.360910377347594 8.109956960913582
Se 8.249319327103207 4.739981628078157 9.998053420978643
Se 9.498547376650464 9.65505033849609 10.842944740510951
Se 6.189471343425169 10.340575978908793 10.15781702277646
Se 8.369669049362754 6.173314580208222 11.870157782647707
Se 10.277381527725208 7.508789401971924 11.53704981263471
