17
Energy = -57.54703064 eV
Se 9.940703223122165 9.819682803131961 8.687340417458373
Se 7.896359038717531 8.958229041662836 10.140548898674847
Se 9.442535321698916 8.798432463006488 6.739696100438746
Se 9.082325481490084 6.720890650024519 11.10344698307599
Se 8.195239169642129 10.488443311810462 5.472504637328685
Se 9.426656196378339 4.792923253695261 7.840157773049507
Se 6.590963648761888 9.454326161692437 4.169294583696098
Se 6.620060088209314 8.041795416282133 8.600952282099856
Se 8.242116881182534 5.4526941663404305 5.973757863983463
Se 5.135629071763246 3.1039521233905734 6.5277103301521535
Se 4.394844027730108 9.559370624776815 5.144174821649355
Se 7.9867559721229835 5.267494239170825 9.789706978223215
Se 7.035804838638782 3.5736453773901826 4.847512229306494
Se 4.942789908479269 5.0599495648229285 7.72985376769623
Se 3.53552453295713 7.3783104821510666 4.916951825410084
Se 6.369610040298364 4.810286079910039 3.1171610925573288
Se 3.0759831488190743 6.34767963040449 6.980144844656138
