11
Energy = -37.36597778 eV
Se 8.016931027040943 8.619874130848833 4.8518733471718765
Se 7.174481247296325 6.595696940753164 4.70151987025755
Se 4.376190564520648 7.982429022985874 5.19160823939074
Se 8.937246788423135 8.590782774854302 7.3741243614091525
Se 5.520090353660093 9.893541440003965 5.304808970172462
Se 4.281409797963102 7.124950399687546 7.503270362326064
Se 9.068542403496208 4.697527187890147 7.633261084415653
Se 7.806884803971289 6.79002555857789 8.088731440031546
Se 5.67493084918908 3.5954036878146796 6.458794820542959
Se 3.821124372595882 4.866708237000507 7.267685282526183
Se 7.263743138339362 3.3801055475942636 8.23177664892726
