12
Energy = -40.18298813 eV
Se 8.857090121389755 4.230587974587112 5.679555898611618
Se 4.953382388383096 5.61620009503082 8.71775914817161
Se 9.232999447628508 7.947626578642064 6.502899736654086
Se 5.797107514228318 5.559051998205823 3.639341228623
Se 3.465163434881756 7.3755596730036155 7.70502349298778
Se 7.714696338931146 6.532576836937056 2.8059807571684465
Se 8.851289976795364 6.552742161369864 8.292395798079202
Se 4.264084407947361 7.336722902810081 3.988558062913692
Se 4.735399884445291 8.389351885514342 6.055661760465257
Se 9.430381970130586 6.096989000740979 4.6427522987889205
Se 6.86059353999345 7.148414243213401 9.364930347421264
Se 3.828560893405956 5.204926568105857 10.595891388276437
