19
Energy = -65.09622741 eV
Se 10.59833333614524 5.0054537817299805 5.3290547995183735
Se 10.565706376520223 5.335720033197262 7.676286503533615
Se 8.545932385828138 5.8923439746518556 4.5713366558866335
Se 8.740406064409363 9.031324326634438 6.570708748342005
Se 9.934875435321121 3.362257519218006 8.779600357281378
Se 6.88029146993723 8.076554001781494 7.507096600273553
Se 6.619388368709152 1.6798429857861628 8.119052652930124
Se 5.56161374724469 2.3656650591663313 6.120313876115965
Se 7.620261530043574 3.467856320759991 9.286056160409707
Se 3.342153928948649 2.8077593641192453 6.767946524456216
Se 3.283694201909176 8.169124698690112 8.013197312378562
Se 8.8670933908573 8.195720135185944 4.3051545419773545
Se 4.8827064768412365 9.61848882119526 7.4228774629773175
Se 2.8980085636568202 5.792397603202983 2.9714245389767915
Se 3.1498891344516844 5.206431811840047 6.740190540286226
Se 5.331698914518624 8.650982192271902 3.4958903006280124
Se 4.940198131252526 10.362607786546889 4.990973710596866
Se 1.64892225430867 5.608125317133565 4.9660855927310354
Se 3.2291399174762696 8.065833602472921 2.506991977712919
