10
Energy = -32.81982208 eV
Se 9.147581941823473 5.869809964512768 6.105663401704781
Se 7.819214439097515 5.8605767370985795 7.872463078930852
Se 7.416911609875837 8.277375793863627 8.395227943662528
Se 7.553105573016085 9.303972240321627 6.2877062959302625
Se 6.146412710518403 6.383471068480546 4.455365148948588
Se 5.193826408755234 5.627848016673189 6.7066144176790035
Se 5.443549317686187 9.920562599025425 5.592246914755644
Se 6.86770668155328 2.3714346059339593 7.741890815015285
Se 4.510205623939764 7.966498830254225 4.369467650412208
Se 4.899467420951003 3.4164318710528327 7.471336060177633
