16
Energy = -52.8289647 eV
Se 7.091790386113904 6.289992998671977 4.025970088677339
Se 6.653410780162483 3.7024293205126564 7.996230963302329
Se 9.65676052497516 8.542049571541527 5.74331518621107
Se 2.843334037496644 4.551856243485514 4.773176538412727
Se 1.5491955473007761 6.317266818614976 3.9683219183971725
Se 4.076986863996696 6.299672310846303 6.247613629677051
Se 7.578129661121599 3.2438078803713233 5.719043600242189
Se 7.572103537442148 9.375535299189917 5.7220406092616924
Se 4.397641581121594 4.136814319717467 7.676728633688063
Se 4.398734012909369 8.442597291847797 7.692205171025062
Se 2.872264404165278 8.063284452255015 4.778028129334658
Se 9.668112729422536 4.059264196529969 5.744352808467012
Se 7.412659378695772 6.309433291824684 8.529308657502213
Se 6.649910421599274 8.91677245336318 8.003173025221837
Se 9.157009853342094 6.294251158898226 9.926977630234477
Se 9.272830554115929 6.305846683050978 4.304387684326478
