19
Energy = -64.50883435 eV
Se 11.125350855149684 6.84412090295367 7.88441362777678
Se 9.80903774828634 6.395118943865257 9.7811582305944
Se 7.55150225958253 7.4601437771814165 9.645021453705255
Se 8.178654927984539 3.544685812288117 5.362938522687183
Se 11.620863016205549 4.837643902086363 6.904866094355258
Se 9.495317567929964 7.0181414939211475 4.563324729520568
Se 6.091809950394596 6.423844575391236 8.331973526952677
Se 6.599473031133112 5.166555917623503 5.249281523701842
Se 10.292103782577747 4.9613139954019125 4.679705133452916
Se 8.300222235285428 9.508164131864408 8.023071075402035
Se 2.7071365904010682 4.295295733411615 6.580172071955654
Se 6.964268005677431 8.841427158482187 6.330604415700173
Se 5.537133726728654 5.052616183877465 3.066233445090111
Se 3.2676785520147433 9.371760743890135 7.6715102488789
Se 4.979589334702112 10.26478026950999 6.378882564997575
Se 4.1611021327801705 3.1700949264386007 3.3701195046352708
Se 2.1210322457624815 3.8378019379598327 4.287579579241674
Se 1.294196181513668 6.084344662290226 7.137877359215765
Se 1.8515027848177559 8.158370295961484 6.174508391034672
