13
Energy = -43.93315612 eV
Se 3.8708531043513696 5.059809589751102 6.166211240073952
Se 4.954433569895581 3.3284090795012102 7.404860720764341
Se 5.049936801863771 4.918369233033115 4.115525028252747
Se 5.743305024033657 4.409383523409381 9.28152635314947
Se 6.208998000022411 8.211808194406863 8.679436525369933
Se 4.8661281490981985 8.720125512164019 6.9602243596806685
Se 7.5356531982289985 5.968145068193745 8.430599049187903
Se 7.362429460807893 5.139591421687015 4.38557790881636
Se 6.518227888308314 10.067183440702557 5.459997073123758
Se 8.860493557380543 6.355117830539378 10.177410904307832
Se 8.325059230095036 7.303848737040718 3.8596006647177696
Se 8.405635156137887 9.915710360076122 6.626093115473287
Se 9.602504838976595 7.88367023064799 5.655304707321956
