16
Energy = -54.23583482 eV
Se 6.055452860572988 5.606496017203634 9.660567124129653
Se 2.947274757702224 3.427667583326589 7.821904657294124
Se 5.341972616799992 2.996313456311151 8.371066845852994
Se 7.004203108625041 6.123664882957353 7.723326955166629
Se 2.6711104256070994 5.678569332203765 7.4861992774363415
Se 9.354078769218866 5.225746480353112 7.630887851359419
Se 6.543624280256434 3.495633521605544 6.553772667817843
Se 2.760015055182734 5.837241866554152 5.045853677994134
Se 10.85851649200828 8.026809789068722 5.769689232659256
Se 3.332209429446915 7.996504680051677 4.46546024915874
Se 10.76288297742739 6.845867376668287 8.259853868327607
Se 5.680447573090582 8.27925117339321 3.9635289414039416
Se 9.79623683165176 10.21789746027654 6.498825028687412
Se 9.32776465076824 6.785000965813278 4.775221328220567
Se 7.65173608502203 9.636862787402965 7.077284801871063
Se 6.267139959564042 10.181638234167629 5.1888744832551765
