10
Energy = -33.04552506 eV
Se 7.44913003782212 3.5405395261083275 7.458860469791049
Se 5.885787087573484 3.626834407464336 9.044402207290771
Se 6.501987264071431 4.936351579252827 5.602981523763908
Se 8.234232380592895 5.164282319925276 4.16899218922184
Se 9.501328362393611 7.142871012526572 5.206556356753912
Se 8.322739738541527 7.601793599720415 7.067664656690596
Se 4.096295757583747 7.345766976009402 4.912074714590109
Se 3.392060732240267 7.4673367151748025 7.007309791383912
Se 6.615007220518492 9.325044347024184 6.498138812791965
Se 5.126929362017989 8.974677460150104 8.158517221077636
