19
Energy = -64.21783712 eV
Se 8.00624991905133 8.146899616249838 3.811312964950688
Se 4.570083758229939 2.8001589319341353 1.711613606277011
Se 6.468150666730883 8.850866124689599 5.49983388135089
Se 6.106644630550384 1.7881524197046001 4.494857318717238
Se 8.114522691173429 3.065583354769152 4.087792396315317
Se 7.679983248855455 7.659244473529552 7.207783715881173
Se 9.451819645123908 7.050749852737065 5.254080514457545
Se 3.6895309798001454 6.2570061401261805 2.939862087529296
Se 3.276546625468034 3.8006889294606974 3.2003911585588423
Se 9.416715015605181 2.660367101865683 5.986737176267669
Se 4.541223156055394 3.0712766303399928 5.494162165678439
Se 1.6177119136178602 7.099846166227894 3.5795610982310753
Se 1.855423824553173 8.138786730967901 5.705469828764506
Se 5.673963002370077 8.580649940166083 8.571939030218298
Se 9.665783672986425 4.706353403108635 7.224997840025799
Se 7.728841791099382 5.251769111224669 8.36888766099158
Se 1.412020559685668 6.550029528186 7.3881657688876565
Se 4.70745621609474 6.649577541952976 9.464349815184134
Se 3.5061028250174675 5.521149604269103 7.759684068510797
