13
Energy = -43.79151055 eV
Se 10.382724177230216 6.422971489141471 8.668734041463912
Se 10.783337265894776 6.193146419685709 5.785028402395618
Se 9.146605445696139 8.24482588666966 8.459191762505212
Se 8.814085688146628 4.51252605295992 9.244520639448643
Se 4.890624685507677 8.436841569280936 8.778588044704534
Se 9.423041051942427 7.927113883897733 5.454693671259143
Se 7.275017186458247 6.797375923792083 4.95257877594198
Se 7.057616420161142 4.690048408423081 7.811179266976858
Se 5.9257126061282115 8.241438662325006 3.7586922304064103
Se 5.018643029696393 5.806033143413981 8.856997891871757
Se 5.042094942168298 9.796301891655334 5.343332197838788
Se 3.6296389833696985 8.67011496113618 6.887864847894629
Se 3.65303930848895 5.244161385176629 7.194205383192398
