10
Energy = -33.47790761 eV
Se 7.659974451549425 8.058232796334904 4.898117923783906
Se 4.0635324337556336 6.745179279049234 5.0816261857419605
Se 5.4859285586963535 4.97745012266571 4.756477179475037
Se 5.702522982229211 8.731772399342645 5.69997449707587
Se 8.919341018867222 5.806353483094493 6.199799716768967
Se 7.834581326366814 4.824884530347162 7.8690651989423825
Se 5.678643657581373 3.7919765127620972 6.710229959107022
Se 6.268394153438457 9.594712308827186 8.146685241050756
Se 8.275789561042986 8.596623351657392 8.632635595607457
Se 7.894089189083091 6.655612548529605 9.788185835056963
