17
Energy = -57.66206223 eV
Se 3.2558708223827715 7.672161955908641 9.14844818500581
Se 4.508096526308721 10.034638252033133 5.896027073544459
Se 3.7103902562142674 6.269002881071692 7.351133695747238
Se 5.30823737349584 8.786109902359795 9.45458581975928
Se 5.092882121511648 10.705848041267656 8.012919242841477
Se 6.459576129538033 4.877181880640284 9.741598622158511
Se 4.540308460597035 4.0586968915105945 8.173923712766921
Se 7.691404043278348 5.864469398884119 8.094569159041038
Se 9.083623557742431 9.129123407618396 7.3576840078644175
Se 5.573477872964161 3.5279205281577712 6.27477508970309
Se 6.513157646704982 9.207451930397099 4.730444026405636
Se 8.223824570660334 10.513922413886942 5.529712361427565
Se 9.151242107515202 4.148899728696295 7.099159165995662
Se 9.196599320263418 6.405712550987629 4.868307375919313
Se 11.288137271018044 8.798091392005396 6.948645554057587
Se 11.263386400769523 4.753179138071547 7.535590243704469
Se 11.297273502235264 6.645893600597558 5.490181214780667
