18
Energy = -59.5914085 eV
Se 8.764725826724517 5.742171956606599 2.3982513943514605
Se 10.178078287823624 7.553519600584521 3.8878338538609327
Se 10.882319870743503 5.136096592807132 4.881140295606871
Se 7.33544324693372 5.08788588731825 3.9609487701465067
Se 6.93855569956508 9.138438991976768 3.413613534457779
Se 8.6379253659349 8.432554147712864 5.341536144114335
Se 8.981129768855974 4.605399408556465 5.895024905596078
Se 10.165206400368065 8.020480086453002 7.494981964887231
Se 5.003601781870743 8.976144289085859 4.695590445172161
Se 4.294246858624583 6.771657584579993 4.791833777197469
Se 8.434327625304308 7.682433073487962 9.016161680266688
Se 2.7890428898020083 7.800561398190225 8.834983671453392
Se 5.487939168665468 6.082663709551022 7.042345059180275
Se 2.204844459712149 5.661288548667582 8.926460581688941
Se 4.1895954404128 7.931323734945777 11.081463633675245
Se 7.567098217056353 5.553825978053627 8.86491148167069
Se 4.075838930417213 4.415664715136581 7.673104904929194
Se 4.024623450835855 5.849022753940096 11.784415052721103
