10
Energy = -33.09921682 eV
Se 9.2352487118839 6.746586621531962 8.853164541665565
Se 4.235303733382568 5.3259123320504855 5.034192625426678
Se 7.126969335597013 3.446527961130692 6.674967542429848
Se 8.682005201339695 8.78521774078889 9.553281497919444
Se 3.8877667195557883 9.021473424544405 4.980385231418285
Se 5.647679255018257 5.156027017974166 7.005005285387773
Se 3.091808063838501 8.157293468696645 6.854742577384989
Se 9.240592610758123 4.557882466655703 5.8880566067123565
Se 4.967867884470366 7.063647572479509 3.7598628382314665
Se 8.88633645259071 6.741009362583412 6.397919221858922
