16
Energy = -52.92440363 eV
Se 8.738932090858244 3.2943905689767194 4.4090935232021495
Se 9.470826065399601 3.1185035640375984 7.533101139107992
Se 6.761626772962483 3.8624128540888965 5.186596077072761
Se 7.3522335372901155 3.675934659268048 7.776030450340085
Se 10.129830495867772 5.269701672625743 5.869462808950017
Se 6.876054235986962 7.151305683772831 3.8674095762314185
Se 8.18691828208637 6.941896488948719 9.184488236474802
Se 8.394640059019906 6.5816147429171865 6.358835520995675
Se 4.028371128538662 5.502078043884171 7.300128428696412
Se 6.075478549460715 10.775300799867656 5.070177150407256
Se 6.265829792564276 8.09962215003053 8.825964481648803
Se 3.187772240863337 6.790052538323802 5.579487321164526
Se 5.38601124075765 8.234906083652145 5.19440305503567
Se 5.54699926143197 11.463957259298642 7.201920842324416
Se 7.001514706540287 10.637269208301745 8.786017032141853
Se 4.102310501530072 6.616476713090217 9.313693546955966
