16
Energy = -54.12694593 eV
Se 2.6469123032693704 9.809203369620086 6.2673391294622025
Se 7.652708382842804 8.798396816798531 4.09597343929353
Se 7.533796935879736 10.0519910514911 6.188116900098476
Se 2.792249884986132 7.593514504997865 6.321505466622291
Se 4.150800719452113 6.929192587953979 3.8949149358156485
Se 3.7620741110368363 4.766900941324823 3.4755612677466123
Se 6.582686295687963 6.810751259980361 4.475463570281113
Se 5.024869687189712 3.6072357739006504 6.703616358051467
Se 4.423594191968328 7.0919858172455585 8.108249359207514
Se 6.938745360083512 2.449694334871781 7.493044109561488
Se 7.691643286520965 8.437558894229989 7.845941778441499
Se 4.025724074286504 4.831668138177073 8.486026876883084
Se 9.946686182880883 8.056077144301666 8.493065332984248
Se 8.89103904052162 3.1767128450432542 6.394631358583499
Se 10.824392288610674 6.418291226354366 7.041771312365273
Se 10.399121612051944 4.256067698923988 7.875509237020467
