14
Energy = -47.2605734 eV
Se 5.929786269727032 6.358226194135671 2.4983102434703173
Se 3.8619759108577516 5.870822666592037 3.8498634879655533
Se 6.278955117754488 8.614927629409133 2.8063719418513475
Se 4.352559656334906 3.1354057669758753 3.7135285734757955
Se 8.800387412377177 7.262498594018682 5.30637110160616
Se 6.247540155028858 2.441643945756391 4.6354373733035
Se 1.9955248579370026 5.9807284825632046 2.657369598165977
Se 2.53694907251524 2.562199283013465 5.467055179571118
Se 7.150715092613761 8.877346799223067 5.045355877675909
Se 7.643754246109051 5.262323250295553 5.928953218258646
Se 4.738894716495832 5.974212707811356 8.00803351340439
Se 3.904155898906533 2.218664023756184 7.263028878609406
Se 3.6745437155321268 4.053014790421466 8.80611509979216
Se 7.0696140566487955 5.573342044866195 8.19956209168815
