18
Energy = -60.51903375 eV
Se 6.973000382321163 0.6992670023860154 6.659360833514345
Se 7.613749744936859 0.6369470160349071 4.3903546400335385
Se 5.344709160592327 3.683854177287083 7.846127610745669
Se 4.819297374697056 1.6801476591523017 6.726716469455002
Se 7.79459610122783 5.447286261157686 7.562005858530885
Se 8.313698656752427 2.7816932223020974 3.6988829839480433
Se 6.490859440974906 3.500166969733661 2.362897823632909
Se 4.396131695053322 9.400392680773598 8.35636511949431
Se 3.4941204393695164 4.615383079135603 4.556275425444518
Se 5.346959645466003 5.342755436398824 3.2748147191942416
Se 6.100817958550394 6.899981630776918 8.070710250622902
Se 8.896308832459 6.941976211662745 5.819459112137882
Se 6.816334573223087 10.455374469600505 6.592347621152901
Se 3.1929629872447287 9.689533155961536 6.4763549592510605
Se 7.203155109439323 8.345290280104901 5.257925630667046
Se 4.0209867517683255 5.622387386726082 6.755161260773176
Se 5.301273423455064 11.108902440408915 5.088063863637909
Se 3.16075702891788 7.60397553830697 5.259138879974721
