10
Energy = -32.77706655 eV
Se 6.828176652271117 4.619045461710744 8.239800988083246
Se 6.147511790142236 8.10515139268225 7.371623437778501
Se 4.301825019655295 9.231585953388203 6.141265488757174
Se 9.561908423344226 4.951263324099737 5.845155493896548
Se 7.601662147009016 3.884880962669423 5.966050472018012
Se 4.951730413389881 3.559513806620714 8.773024980703362
Se 6.414720044079355 6.372020286576323 4.392057173449932
Se 8.43983552243695 7.2004261056782966 4.588475844682933
Se 2.558529533526295 8.135744870388827 6.985963307762272
Se 8.128867573253919 8.87513495529348 6.6313499319764455
