17
Energy = -56.49696737 eV
Se 9.366998192997901 8.226466203377536 3.4701717004540305
Se 10.03290972153817 8.923469601505438 5.851879710290069
Se 9.115406381988299 3.589202681307766 6.511278866240603
Se 6.907179880070974 10.544628087489105 3.0638223916836624
Se 7.598661644191663 6.90285854405401 3.754220767965142
Se 8.614734185871798 7.815194597436296 7.216231407715057
Se 7.190406621884541 4.53441258754628 7.080420103789855
Se 5.7104312182471775 8.741297489465095 3.4767069889996964
Se 4.0649893846348775 4.660996470098589 4.834385200108653
Se 7.0977456277418245 4.0973904077219725 9.587488093812063
Se 6.8398821461504395 9.454162391685456 7.717753915321045
Se 4.920768464990553 8.296777154891823 8.261292176109254
Se 5.07113659457194 3.1645012182519867 6.386551392618736
Se 2.65218096531928 6.024679663360149 6.182486233569959
Se 4.558880150855899 1.6633541970880703 8.722956663510297
Se 4.865214314977879 3.556593956989942 9.983216051511143
Se 3.4914038495344197 8.198791462535947 6.31398721643139
