15
Energy = -49.58447811 eV
Se 5.793745113875738 7.39072747917519 3.1866764491458817
Se 8.378780308386952 7.918709897804418 2.497938290641706
Se 6.35090367756685 10.1907877616771 3.6944756368433116
Se 6.0236449518158315 6.649759697760005 5.308213435227252
Se 8.398370890867337 4.952973695506653 4.8370632970250655
Se 9.206400963478934 7.971942226549261 4.541178245802577
Se 7.585148941368853 9.831943430882626 5.486320106776056
Se 4.2655321599634295 3.7967148415440177 6.485592290883011
Se 6.199937374237174 2.4337639540180644 6.494634103112739
Se 4.355075449979129 8.08682145559134 6.833219876267699
Se 7.97656322148903 3.962184672414668 6.876930198330761
Se 5.560915918308513 7.280829612832102 8.604426175841253
Se 3.2742885585615302 3.8105614432413586 8.573786458270673
Se 6.440837917018896 4.610198374307511 10.850363366465261
Se 4.534027110241265 5.4562540138551325 10.073354626525818
