14
Energy = -48.17593648 eV
Se 7.50683691784323 6.240945145526596 3.5753412663541666
Se 5.256222349841014 6.429368843950717 3.045298205608934
Se 6.008669704956352 10.056800798667227 5.96406016755759
Se 5.704436239237849 2.7929002951103197 3.0732071245405588
Se 4.14209231116938 4.400362566145799 3.752582277982089
Se 8.197516634733732 9.259714400734463 5.701785816006936
Se 7.899394045318052 6.917772638427969 5.819230502084986
Se 7.430260417710004 3.307584514142799 6.513674469883453
Se 6.297693044242409 8.24358965147578 9.270631991127965
Se 5.740386984388406 10.312321984902914 8.321808495701788
Se 6.419904079009912 1.7295096612627192 5.0696188912165185
Se 4.366070994189735 5.3302326202309125 7.555773423217487
Se 5.778300331995307 3.516827696698332 8.182284734518955
Se 4.4202332340891495 6.793074812942929 9.392967369921987
