13
Energy = -44.85145308 eV
Se 9.48961981796774 3.9360432852460514 6.919500530375299
Se 9.056883573219164 7.132512704228258 8.837206332314715
Se 9.408617764938615 6.287873429864863 6.671174483943277
Se 7.257446102215603 3.1563816176399664 6.95835072810721
Se 6.686469238453844 7.347089692855573 9.03595754649481
Se 6.603917107944672 2.2114514450363325 4.902485062356048
Se 6.143773395280996 9.614698912478284 9.321078095960507
Se 5.014611843705458 6.54212849011077 5.8623493595097305
Se 5.838234911110384 3.9284052649050336 3.457925835367634
Se 6.04918641409026 10.784086565054816 7.266040132382972
Se 4.889279234930938 8.572159907930649 4.568181204147201
Se 3.9780975821828357 4.883359503052428 4.563991141923769
Se 4.083863013961321 10.103809181598644 6.135759547118184
