13
Energy = -44.93038648 eV
Se 3.1243839870534966 5.168723549251404 4.81585992544136
Se 4.144272012128548 3.9377497881526953 6.544764176599833
Se 3.5117017129073314 8.873982731219119 5.529010161506918
Se 5.5994100453050555 2.4064319935619816 5.492468903824902
Se 4.5013027021360354 7.042147724606293 4.4088731072165315
Se 4.452245889582033 9.187210106309017 7.6532736443669895
Se 6.25673008097 10.712238458798572 7.224871448773783
Se 7.587558453501683 3.5773031866301053 5.0054029302013525
Se 8.582174410403155 5.092995766540247 8.365344909321696
Se 9.021237047355308 3.331135696501603 6.861856530414896
Se 8.236660133359623 9.914747357135052 8.125297783924362
Se 9.30962004344664 8.453158164190782 6.53126742186136
Se 10.172703481851592 6.802175477103628 7.941709056546978
