13
Energy = -42.9955759 eV
Se 8.398781228344749 3.877553601495421 7.512510100039688
Se 7.811538079206085 3.0852037217002004 5.520915128931245
Se 6.639173777431105 6.782803974988386 3.6558073809958995
Se 7.679069623517671 6.326419585856967 7.726751629368933
Se 8.47481092177249 6.75343454864883 5.093306438854289
Se 6.802999200068145 3.32975319200413 9.3330317498352
Se 4.751875735552878 6.222504832256807 4.92899820267456
Se 8.27324526298601 9.17928772056501 6.0523905584367625
Se 4.6893039806149615 8.005289981604083 6.564177695920775
Se 6.659716607341333 5.7154028120762685 10.010134806604361
Se 4.602011073041095 6.589798648216868 9.80256368040874
Se 6.931208416694035 10.276000897457518 4.631006384845277
Se 4.548630147482335 9.978170458160696 5.400334535462178
