10
Energy = -32.90870799 eV
Se 7.298706553908753 7.001277140525753 8.037099714756483
Se 7.485426323541922 6.860420230976366 10.47692188114352
Se 4.070082872137208 7.6072733161155695 4.42688058661183
Se 7.816863846622277 7.206844531855898 4.769391093049136
Se 4.102609409249319 8.409616747201277 6.633690014190027
Se 8.627028348676586 3.6482074852345288 3.3856759715763025
Se 6.920309944955522 4.798053406695059 11.134077109385094
Se 7.520380075450471 4.783287965148533 4.958534697016826
Se 6.148939131909067 8.132675396937572 3.402715580301836
Se 4.99533961988306 6.53802990564392 7.76069947830327
