14
Energy = -47.49750532 eV
Se 5.590222702692401 9.605758203555036 7.948653977404561
Se 4.3639318864795165 8.39750979336923 9.508604348485376
Se 5.75878781691983 8.030708945226571 11.37808079977918
Se 7.198474164404735 8.200361478160636 6.209319373912744
Se 8.923247868421253 6.380396373901231 6.639641888207265
Se 6.3999870938734515 5.7583028259027005 11.317732836967544
Se 8.153749003144531 4.823391428524594 8.15942334488793
Se 8.414338911201664 8.414194206173805 3.7750760931889356
Se 5.152760809128756 6.933661081888841 6.036238670536689
Se 7.13087999176743 7.561729128618123 2.067691757300374
Se 5.7029219719117 4.736708050868383 5.43721387259059
Se 8.556779289928652 5.517042153648 10.3968622222247
Se 7.388197685833297 5.196615879257632 2.111508376327759
Se 5.359450521678746 4.537194010067916 3.0951215097333282
