13
Energy = -44.91951389 eV
Se 8.026039939705933 5.324264531569806 2.770886706231258
Se 9.281836928762873 4.1061372594147265 6.218893812362338
Se 8.102430783740724 7.639894726178477 3.056090520173137
Se 8.749803375809575 5.694065806684024 7.878081842405511
Se 7.425836965086209 4.183592621642599 4.756872546429316
Se 5.83102875428269 8.397626669779529 3.238818014440905
Se 6.322718620649612 9.072937352813778 7.040352043488083
Se 7.716288825154666 4.491164813584115 9.630965058120621
Se 6.05493027838197 10.036212306728274 4.895404830790008
Se 4.242727934114319 9.047180510818608 8.154840989805479
Se 5.4850868594865245 3.9862921931747834 9.047261665984353
Se 4.002180791184127 5.640902340734238 9.848626740065686
Se 3.280474100556128 6.901113023792536 7.984289386618512
