15
Energy = -51.01371758 eV
Se 3.6343806931491383 7.366514957815934 3.0873492832364815
Se 4.580984272942134 4.9059315369276035 2.31499104504203
Se 6.754851283210784 5.354784864045266 2.6216328016083343
Se 5.524145076754367 8.232678276407025 3.807945615497246
Se 2.2922135919232374 6.911246452532867 5.343394374206978
Se 7.288682326949837 4.56954443726132 4.884157086404955
Se 3.951537705678612 7.1977317063201065 6.8396195160143085
Se 9.207835499416674 5.750497758751751 5.391645359203091
Se 4.35663922911914 4.795674191278922 7.373987663330366
Se 8.727436182907123 8.035431493017054 5.891397131727897
Se 7.7369878554412965 4.467463080760673 9.20614483448994
Se 7.556855965521137 8.287898714026321 7.93897785894219
Se 5.308572939242651 4.637314335497702 9.452476846268627
Se 9.137769954906574 8.054111313238739 9.628640724889316
Se 8.487118820145236 5.9791882794270945 10.763651256446849
