19
Energy = -64.19583074 eV
Se 10.667448767579982 9.44970648605858 4.304732940016876
Se 9.173297316839232 7.906000552779272 8.077690430301367
Se 10.231448658182474 5.702306941211101 7.388862819422112
Se 9.216714457748541 8.160936148140834 3.214657443091344
Se 7.238469861973777 9.18602937353425 4.3369774845802
Se 8.635468086583668 4.771288705846471 6.089425014721049
Se 7.017988571707469 7.579705881455222 7.397644431251986
Se 9.273429366294245 5.383756877449018 3.7053650550949744
Se 4.9718455754147275 3.4245710020217603 4.986444465294309
Se 7.583967186493965 4.762340353580092 2.391738158966385
Se 6.0186491349685705 6.162695582751789 9.128982847024766
Se 5.100506058249836 8.562021675586779 3.667870294443652
Se 4.480560010062098 2.6369364065414125 7.235825413250555
Se 4.082046993635949 7.27010182527014 5.407995661811462
Se 3.5036987569963705 5.1492778782487605 4.497931375758596
Se 2.1642477459175113 2.8962384865035657 7.434696078765672
Se 4.11235999940952 7.261673719253331 9.876420879599168
Se 2.3092895567059255 6.633447266653697 8.462222126668253
Se 1.8112548022958168 4.426830930618476 9.19107924931512
