15
Energy = -49.7451778 eV
Se 7.460460333440246 5.569253776862465 4.644393759323275
Se 6.05778430916126 5.019463803928565 6.5458053074681075
Se 3.9952272879063973 10.280914412557218 5.068850072671884
Se 6.1131070572260615 9.570845537120928 5.1616298918590875
Se 3.9057988581241907 5.727912926956696 6.065492654028874
Se 8.93245461726168 7.329632006402868 5.1101719483915415
Se 10.956979212103752 6.305490884873402 5.804166195766481
Se 3.3859709437224668 7.608050528782457 7.6088527590987525
Se 8.3433017389466 10.181972393509888 8.677020571367242
Se 6.407792115922149 10.391222992142213 7.603280284286405
Se 11.295720774748098 6.784810634208537 8.086327523137893
Se 10.580428037119999 4.996679221002344 9.42063294754983
Se 6.85836005655361 4.261284569936 9.416793602032614
Se 5.307648079697975 8.260385152437701 8.59802476660675
Se 8.397595859438422 5.710710440651443 10.187186997784032
