10
Energy = -33.98041339 eV
Se 5.678565742522237 7.53561797937948 4.415696799101299
Se 7.635424927851266 8.454234767756894 4.921151492632842
Se 4.2479345140855695 8.062985219472022 6.5710204815899305
Se 5.653767686785327 4.944646727021637 4.431153479314189
Se 7.801629960133481 3.694454130342296 7.174620954497711
Se 8.704076334888471 5.833542818609803 6.7188872729504086
Se 5.529129646821461 4.129512643881778 6.5716734760829665
Se 5.815608489541201 9.20816325264145 7.741500528906165
Se 8.86398051044987 7.111425459426159 8.709968892804891
Se 6.665677235858618 7.621212050406097 9.340121671057094
