11
Energy = -36.38573142 eV
Se 4.102013449570003 6.184857177189683 7.001321772059798
Se 5.971213107256614 6.894062317194218 8.216118331313963
Se 6.497394494800114 2.2568578342272594 10.120977389575552
Se 5.272597510028931 6.811374872630182 2.1483175462692676
Se 4.977918315411409 4.488766529092043 5.5011350722677115
Se 5.790760447815752 1.7689094792092959 8.058359981928021
Se 5.864471181870856 9.784600725287863 4.348064725334554
Se 7.675854845724013 7.445146540143623 6.692042677128962
Se 7.557039763215249 9.69550800899597 5.960827910566276
Se 6.742826596162072 3.4565129318927226 6.550979795023037
Se 6.757302405479384 8.446618024020264 2.5262886755397416
