10
Energy = -34.283398 eV
Se 9.726490401802439 6.683586829128834 7.876597483068014
Se 6.0104192032189765 7.2554348657722425 8.510953828060275
Se 5.950665740974192 8.43591126450389 4.852274778236865
Se 5.278345648602404 4.907268413613935 8.459474905794206
Se 4.903134997967644 4.778788425964341 4.695588851383422
Se 4.6808323406578465 6.864730678795085 3.6234003893447353
Se 7.978290888677508 7.195217128849741 9.627857122007969
Se 8.538255541313976 6.033754101841564 6.036565635929694
Se 8.205971764512373 7.886393664317188 4.532588176221839
Se 3.706316566832009 4.937637721772414 6.76342192451235
