10
Energy = -32.82035562 eV
Se 6.415260603832485 6.7957722583035 2.859059662875617
Se 7.90343928678294 8.02874940859379 4.007058672213432
Se 6.708835221297944 8.01884148236168 6.32436442022227
Se 8.689699559035319 7.8586190609952595 7.640352081784289
Se 9.02586559850621 5.525055086548413 7.643672266955522
Se 4.299241007456269 6.686432380843969 4.890997721264833
Se 5.100273383731064 7.568843502230874 8.385510183829513
Se 7.157840582282706 4.633394422198407 8.859239985718224
Se 5.687144139497328 3.8926208103662447 7.292850386128113
Se 4.004016927930374 5.983287897910095 7.088510929360416
