11
Energy = -37.46845912 eV
Se 9.969672591780649 7.093108142329387 6.431746620049535
Se 8.493269076016656 8.6995095023072 7.884217237322574
Se 7.9084950534617295 5.254566717266526 3.747760103838613
Se 8.935712569841538 7.317053737567709 4.411925992499236
Se 6.759928076422773 9.182438556665655 6.618738848811792
Se 5.583358150060655 5.530967293901618 3.5554932315803716
Se 7.485106781836313 7.3073206802390605 9.875861579553888
Se 4.406998115667175 5.302542524304403 8.84174622396133
Se 5.266257545540037 7.473041556974384 9.413093369863756
Se 3.347299711714772 5.4276785581306735 6.75309731889676
Se 4.504166049868205 4.152139605347882 5.139370145872663
