14
Energy = -47.16957669 eV
Se 5.7006619150770454 4.309483799160094 8.96654754360915
Se 9.188478191276298 6.078070148940062 8.789776382580024
Se 5.980109590956306 3.0855510969623583 4.588000549228441
Se 7.75888292991421 4.281181381051105 5.226840408418676
Se 7.002337083587547 6.133474711823141 9.68591881428735
Se 3.566443060515232 4.199287962172143 5.577534028932884
Se 3.768960471069148 5.044776079362669 7.785174672224888
Se 4.177791480593164 5.864482316765888 3.9509020753350916
Se 4.4209698178352355 8.928222945137689 5.96808456629365
Se 9.530481169757298 7.2252446188826545 5.20819882592554
Se 9.442092084827356 7.996273350175637 7.43754536091511
Se 2.9529525010466418 7.8437850863391105 4.434857410439433
Se 7.25058511911205 6.831397547701583 4.645951548780663
Se 6.3728929277378406 9.318860934446604 4.822174067115261
