15
Energy = -51.9046771 eV
Se 5.091617535994007 3.8207578734434318 1.9946076865278757
Se 7.005852372467222 5.1287519084755475 2.539085009293218
Se 6.546930718157833 7.42237259725513 2.224730043201243
Se 4.041937046338782 3.046926952456649 3.946917302937241
Se 3.5090829640311156 8.552490468748893 4.075721834765867
Se 2.740243527303468 6.470755090821574 4.830949023647531
Se 5.859380203602676 8.378491496266426 4.273724558416917
Se 5.301406202315749 1.1470405709305287 4.604560056989819
Se 7.3488872398757366 5.302595336441853 6.002477924090076
Se 2.005178357335936 6.736093431460012 7.078353835785188
Se 6.303916863676917 1.7815709620811289 6.639635083977414
Se 7.257038440122155 6.136169767773155 8.218800818834193
Se 8.202044284244609 3.0978160881646226 6.153563310492785
Se 3.766760101814149 7.462960175005568 8.435920861550397
Se 5.133611356580597 5.6290944945367265 9.094839863351481
