11
Energy = -37.35992999 eV
Se 5.5295652249370635 9.472367738957082 8.043176727366236
Se 4.1745600187189655 7.937963196012139 4.709366024847448
Se 8.221657817941919 5.278454945870557 8.396888204110061
Se 4.448549149456596 5.080154701538508 7.195843846932903
Se 4.626833894471889 5.025602521887842 4.978815486741525
Se 8.490501315699165 5.823726146672518 4.713671129252038
Se 9.638663265265285 4.873614819262948 6.565144218217095
Se 8.651463365154564 7.485842459009825 9.10138550539089
Se 6.84481238088745 4.308289376688601 4.120354567396435
Se 7.692868669654999 8.900342326653513 7.453195396650454
Se 3.870695076668886 8.003811946302731 6.91232907195116
