19
Energy = -64.2274923 eV
Se 8.372407611158495 7.6709484394204255 2.521151910362258
Se 7.064484034977197 8.474098307634545 4.528384941199889
Se 10.130182498597588 10.320670990628505 4.807506375652836
Se 10.497603550356748 8.359783769583416 3.5893567962934285
Se 8.244314665076521 5.233450695500862 2.900291609427561
Se 3.6234769459450664 6.692193361531164 4.097307196564678
Se 9.860927815022194 9.74666707339768 7.092206104299208
Se 7.586433414274126 9.258897418178199 7.4693119800874
Se 7.112218036668267 4.7879886206300855 4.86066682877729
Se 4.834165317611101 8.753987206171496 3.9791844618530137
Se 4.675441779286147 3.8431680988740506 6.303488300505775
Se 3.3881283631253027 5.928919220294373 6.303792694532677
Se 7.4832542505677075 6.825208211349325 7.732945651500017
Se 6.493086134213084 3.7578221448815956 7.641892254165904
Se 7.7590457437945295 6.618191134525812 10.06169410063962
Se 4.4326788240090575 2.999263065618406 9.904199499824069
Se 2.7145915783898764 3.620726985666654 8.583101736696465
Se 5.5135661673188485 6.692788902001525 10.86170393469341
Se 4.972833073673416 4.589920533737081 11.676872284952259
