16
Energy = -53.89260802 eV
Se 7.42289806742977 9.220120950241935 3.448955826791244
Se 5.026425919760297 9.219162284984604 3.880962370406853
Se 7.757279330405029 8.069209928084193 1.4503330018115645
Se 4.5959552900598375 8.099330002208058 5.789751899352083
Se 5.505432401286919 8.06721412825901 8.938413808975927
Se 7.839046627018757 5.750506539304515 1.9985123205508204
Se 5.79031252714163 8.570308272376476 11.3444055795142
Se 7.236433812723281 7.138908536706123 12.273164069126812
Se 8.664548585824631 5.80198719887109 5.564476025545469
Se 3.5158562113588863 6.840600937465705 9.013931232181351
Se 3.425872491667341 3.492174375032998 7.251260435277346
Se 9.689978023000693 5.564863995035573 3.435974754858069
Se 8.464332959476822 3.6675133532494124 6.511895575712599
Se 4.172164763359915 4.558211804970058 9.208214914875605
Se 4.849608412396679 4.0426994048176965 5.44511145398695
Se 6.690810088596219 2.59703969650986 5.334232932990624
