18
Energy = -61.2973502 eV
Se 8.995073645703746 5.954681084611412 10.085167258930971
Se 7.487487786353517 3.7476955686651934 7.490894429059467
Se 8.333127727135096 7.862519128388185 7.33388440373918
Se 8.119162769666525 7.6178347391889245 3.633736046246224
Se 7.096055573376507 6.876494367859491 10.70115077551703
Se 6.887649108167852 3.308600307118504 9.782917969766002
Se 6.521383593843671 9.410490011581587 3.2371257434768808
Se 6.591219847289905 8.508107232709117 8.619706210481496
Se 6.489495639897917 2.1129510838329613 6.117903719490434
Se 4.431175390460099 8.503126255443357 3.5134143042990393
Se 5.365687943339306 4.891407346890732 10.30776676121375
Se 4.142876528841908 2.466943932975735 6.075098915426229
Se 5.092230738108075 5.050656748564442 1.5877491630098817
Se 7.417185403374098 6.4841318122816345 5.522644871071301
Se 3.615912894255767 7.423116464841341 1.4234079951186354
Se 3.5929682129692364 4.458400819793921 4.995986464465109
Se 1.7141904752317143 6.6459472612814565 2.25684084846563
Se 3.420711079758097 3.969247523955199 2.615815710463933
