10
Energy = -33.06691105 eV
Se 9.106191639963214 6.187261885831739 4.238934423741425
Se 7.12376361781878 7.1289244237924425 4.38213997673337
Se 7.80155903049273 3.92191748741231 5.983162718184559
Se 5.881900900012233 4.968146326425981 5.724529715482538
Se 6.742389210316551 9.145932159575768 6.438674715973948
Se 4.336473611264913 9.336159107275833 6.848668218846208
Se 7.549039752592518 8.314400646994173 8.47715509179118
Se 6.836569630306204 6.062924677565964 8.833720657993382
Se 8.598636790845239 4.719341912082111 8.312612727251544
Se 3.741849704610506 7.933365261266686 8.478775642224601
