16
Energy = -53.78924222 eV
Se 7.159292576466887 11.311279953389032 5.891359109882632
Se 6.376034776342732 1.1169337657696117 7.778990339579036
Se 6.844481904897397 5.851602266727319 8.771961516423152
Se 4.647909236250964 5.150643364697947 8.067091338394768
Se 6.421133399931826 1.3372342838410605 4.010324418271806
Se 8.189296133569133 2.276636810940706 8.759649024837326
Se 8.28227219328868 4.375364062986676 7.677351258068835
Se 4.871074685993222 4.715184613344781 5.785305062419176
Se 8.114640405047092 2.5472634963629806 3.1835338618912967
Se 6.635455852138374 7.776566859817512 4.483026489913812
Se 2.217907324311264 9.829026481588345 3.9968913273200686
Se 4.496102954595495 6.7054917136372465 4.575602425256947
Se 6.605415906467659 9.322942870707712 6.162980358894004
Se 5.4992657854125 11.311279953389032 5.0145408869023695
Se 4.640724268373454 10.45993117333554 3.139088753668454
Se 2.284063656510646 10.566309480755812 6.071280693486152
