21
Energy = -71.80243661 eV
Se 5.655286518640245 7.261405236242989 12.451055241649346
Se 4.72364845758508 5.095678922418231 12.719028101195166
Se 4.578335663627576 9.611708498096025 2.9459565801194114
Se 6.485211624748674 7.710160471259263 6.32657237568132
Se 4.63954237367915 4.123807306812092 10.574792671690219
Se 3.3004355268397494 6.889545145850601 8.331969203588786
Se 6.435408632593981 10.515986260845484 4.013519268046452
Se 7.89771077436219 7.07283615713134 11.77572851978932
Se 2.746998511819476 4.866829660793976 9.328790956953245
Se 5.023420335099695 7.2366614890477114 3.0416946846682973
Se 7.631009362421832 6.984412636736138 9.401233896804595
Se 8.07510480048466 10.754761345103352 2.276688362108379
Se 3.5319264245815303 6.242137912314501 4.447491940715633
Se 8.501855091569471 8.68131081991105 1.332700782297764
Se 7.740329738614733 4.652351723461284 8.987123818065145
Se 4.968154252062056 6.102506907381877 6.638901858659004
Se 7.972197676403679 4.667468674033052 4.192715674922483
Se 10.168026278057605 7.532039539881281 2.6607863424474014
Se 9.748830921284744 4.402675288746543 7.717611048753096
Se 9.498498603177072 5.300435857684782 2.485335714733617
Se 9.053341353060599 3.2813270842060196 5.77295766412375
