25
Energy = -84.88373782 eV
Se 7.0141785909424055 4.808539046880059 0.8851764067687045
Se 4.034513273654646 7.074507998030154 1.9873329453228412
Se 8.404050458544942 6.282786348618274 2.1734493686893335
Se 1.9600631142429659 7.8286189332693965 2.810881748017519
Se 3.2095310799194445 1.8896084723480573 3.458691091067154
Se 3.6289102873279497 4.221196967086791 2.9763466083617547
Se 7.300133186690907 8.367038474852132 2.1976534069097644
Se 5.890263119980269 3.4259043992331333 2.378510882750598
Se 9.548909012152798 6.588611450451831 5.789883831730225
Se 1.0406487723169173 6.234643821780717 4.200227395203494
Se 5.536640211080833 8.118551828434557 3.770146147802156
Se 3.3111550554473217 1.5254020591092328 5.774868063533919
Se 8.416652906480136 4.728194519110589 5.085752138640158
Se 7.7938194368996 7.798411891991042 7.21485972641354
Se 2.355218381435815 4.32144257177172 6.542403041913885
Se 1.9303716671206372 6.821574991288988 6.576400477624047
Se 6.78137876890009 9.421132597166677 5.9652286754042105
Se 5.695023422725184 2.005032976965558 6.324812297725468
Se 6.12764236750534 5.972769045820977 7.72031429447526
Se 3.940362943976486 7.915998031732981 6.449294279118404
Se 8.578600775049496 3.236081745489318 7.03701942702543
Se 2.3427243087767446 3.880318808110636 8.84185655163525
Se 5.410172143070395 1.748004090661858 8.616533852068317
Se 4.6683478638664555 3.8915452895042417 9.383875901508693
Se 7.966524816240029 4.779919604636959 8.72431740463642
