27
Energy = -91.53057629 eV
Se 8.517620535102427 6.814833776344671 6.460794631267416
Se 6.80564439580375 8.083370835631776 7.153689898767392
Se 8.752501645378223 4.750212911091888 7.9451495607068985
Se 9.120727436884039 4.773401070079062 3.1787948236159633
Se 9.248967391495842 2.48576070381539 3.874311746117294
Se 7.461531416296639 5.843782544959296 4.398838774859755
Se 6.271412518373489 6.896010969004196 1.5545386742624518
Se 4.45554368995027 2.819124946690753 10.243858182046273
Se 3.9957606940864894 6.96311005066364 5.013757516509266
Se 6.6177103246975255 3.9200088490443856 8.172796599306537
Se 4.526121801508001 8.454727298099892 2.966856874013734
Se 7.10810651253603 0.6668684814675376 1.22088136967848
Se 4.865194952466167 1.041874165517278 0.6416584471648556
Se 5.781588065560496 4.762928712757178 10.243858182046273
Se 7.2425676445953 1.3712758362166129 3.5115034259825553
Se 4.4796372979575745 6.640818601572291 9.710679019851689
Se 3.450918726901996 4.620820220161025 0.2753454547604295
Se 4.849974940841591 6.527966682478694 10.945076595168223
Se 3.31808821141035 3.5142236938293885 3.7961391633121497
Se 2.3036893028663408 5.654619905891073 4.187144818844547
Se 2.752963589828118 8.281974391528477 1.6712064904686001
Se 3.5878258580735447 2.79706393995926 6.041075898128251
Se 1.1018356187050176 5.783280970426115 8.08820735531169
Se 2.1952064811799397 6.109865704917987 10.12269742738176
Se 10.090900415546736 4.525398084714563 5.824772418418168
Se 1.6492659036001303 1.796675189239869 6.7968495473531565
Se 7.635758545548714E-4 3.591477915677217 7.58018999196989
