24
Energy = -81.01876325 eV
Se 9.885231904627881 6.156518036214941 3.2020784120087615
Se 8.108190202311294 5.708474008668574 1.7276890633542665
Se 10.709007846604868 4.0951986115406225 4.046922963679893
Se 6.180267834675422 6.682354851876401 2.7189642764349475
Se 7.85982701894524 8.900221472168584 5.129706638812293
Se 9.341422179371563 3.3321688143822956 5.770056520647697
Se 8.644556790271702 10.51496355768761 6.4958607152574865
Se 4.1237480752843485 4.854502825322464 5.594436043181347
Se 5.029936815562683 9.007362450924301 5.194088963077212
Se 4.487318643384063 5.115311934540034 3.272550232363633
Se 10.105851612053232 4.527656625990833 7.7719042650592955
Se 9.256428908737405 9.186468452273024 8.582578485577702
Se 5.286316857545 11.309578758516263 5.898374157192084
Se 3.08286454197007 11.974378544782855 6.232741635654208
Se 8.000070640383507 7.322459228961596 8.39290632449514
Se 2.7104321734243757 8.587309667936614 6.0437422600610144
Se 6.230649861841918 2.2883781311748974 7.598041402881523
Se 9.22521484979893 3.3263794684796433 9.44363184589372
Se 4.440926572699382 2.550277687471032 6.088310680995457
Se 2.5769309148235346 10.17666965072628 7.733115430611481
Se 5.996831044008943 7.891558562466675 9.774871844925531
Se 5.085973962158664 2.4300525335337677 9.701666812975066
Se 4.613870512221714 6.100590990415872 9.447255531129983
Se 5.759484081987797 4.377485615066567 10.763404547360617
