29
Energy = -99.97656025 eV
Se 1.8582926527235937 2.7208166477194404 4.209034710930437
Se 2.2456213342844427 4.854135193367762 3.327963369683094
Se 7.700995078952722 6.614697434091375 1.9974156888305326
Se 3.186481923313721 2.2413198732721695 6.148523673691038
Se 3.4302148641781063 9.256772762573252 4.435795648208071
Se 0.8608994968489114 6.484258926545928 4.3927425805133025
Se 6.551644947029096 3.916439449449143 6.305230413491649
Se 6.565421609130696 5.577322521092083 12.603209962144895
Se 6.569970702529936 9.682053127859087 6.459111065027086
Se 4.0111674001999855 8.055879633759968 2.5215562151634585
Se 6.9242303427466405 3.3258289223142525 12.000841238514482
Se 7.392301454372902 11.860765686132362 5.992498285121691
Se 8.523396384223721 11.799493858212353 3.9365719137278674
Se 6.570635648022369 6.794990270935073 10.57538542432577
Se 7.763614167056181 9.070376925271642 8.412689479088096
Se 2.3017260789336857 7.620234174466226 5.8298552729859185
Se 9.907250079950904 8.285463461327517 7.820822854584148
Se 4.346488611391985 7.023296815066154 9.794653541102576
Se 10.551948575456231 10.638101040079471 4.374240922565214
Se 10.583998606611523 8.864049218480876 2.84260938350792
Se 5.590938502031014 6.316155563988021 2.9989500461886642
Se 4.870921823821833 5.512587543440533 6.3252685039890455
Se 9.853748571866712 6.038643037958176 7.063040763238884
Se 11.00845157767912 4.674793629217335 8.63276660837903
Se 3.8092714702955948 5.162563568802155 8.459196322609154
Se 9.422515604938384 6.936854960434152 3.6011828625679803
Se 9.244186658203457 3.028092962885223 11.717122605414994
Se 5.373296034980452 1.9005513791983348 5.480334392463742
Se 9.687955931962078 2.878704850244874 9.394437281880812
