23
Energy = -78.77347922 eV
Se 5.785231225784643 11.260150040069783 5.292604254384223
Se 5.598455712579905 9.8913314599142 7.175094279242568
Se 7.456275373973532 8.397734220283525 7.230454007141811
Se 6.712573753615882 10.605005095625517 1.8143207672216075
Se 4.87178530404135 10.369997329267694 3.2684917517187664
Se 6.22458524395095 6.349411649529095 7.467710637771851
Se 1.538823361188878 4.3893474914517165 6.48528026671892
Se 2.4757472262087425 6.164481580424208 5.323888440598627
Se 7.699496280876485 6.482294058294196 4.32554011773975
Se 7.205927922392741 5.322578939854762 9.337315386170852
Se 9.075470061654679 7.756692356980333 2.878607002619008
Se 7.575470254614929 8.49385366300662 1.215577528323581
Se 3.6193537745503317 3.991567262549481 2.365357937701205
Se 5.666729576314653 4.852746185998484 1.5635879860470512
Se 2.1793753582906326 5.743819202809987 2.995273707690113
Se 4.066698952006736 3.32996105370963 9.408010311670209
Se 3.435264044847343 0.9244117901900911 6.585497588464669
Se 3.696381498540371 3.124035485795196 6.571786363137001
Se 8.603610182233197 3.6396731152831445 8.4708037559341
Se 4.158896578142103 1.1272308248699277 9.600076937047566
Se 7.361766541773395 4.442190602235943 3.1573988232281587
Se 7.193551001667356 1.9441659224754846 7.560419022743217
Se 6.567536365646301 0.48965157051247044 9.24536754040496
