27
Energy = -91.95170136 eV
Se 8.236382554128438 5.254512426700644 1.8294277519989512
Se 7.371637949584751 3.436312088118253 0.9039842958869823
Se 7.316247601923578 7.123031344004194 0.40840378722538295
Se 8.173656731023799 7.131060038228212 6.880493311601193
Se 9.616493996470162 8.470478968038742 5.664915451680659
Se 6.449073060997882 5.693437811953899 3.839454269960653
Se 5.233637088450399 0.6032478237914666 5.009975404804681
Se 5.899875712371109 2.374357846639702 8.916648517229346
Se 5.087481005799508 3.9625978338743604 3.320767059643652
Se 8.236897530209353 9.06221908438047 1.2058896046709244
Se 3.1104333544625704 0.8280951790964565 3.7471358560667465
Se 7.7718589543633225 8.360634137455659 8.950519473291893
Se 7.166547894109504 6.568663489177957 10.29360435684547
Se 6.8740060224219794 9.635611924505193 3.134497484868603
Se 8.416542088182535 10.332164338006276 4.718583877366154
Se 3.9129140553004267 4.534154758572088 1.2917048831464064
Se 3.9740068373996102 1.0808855503983426 8.545787673980929
Se 4.703936769267235 10.332164338006274 6.928350037693274
Se 4.984486929733791 5.939814463989006 9.56761487902065
Se 1.086225507103638 2.740502814998393 6.542358405945861
Se 1.4898530993269063 0.6583398092408241 5.362026497629822
Se 5.471352143137223 4.432640182613705 7.8232934596655355
Se 2.1970235339617363 6.113480139784171 1.73536560342284
Se 1.8161684602848573 6.166142379160223 5.2784905777585385
Se 9.963281739354336 3.487633285531159 5.712053292298564
Se 10.660514733920133 5.687613300368127 4.547156701878153
Se 0.14083516022119044 5.134335384683778 2.0036305711366644
