20
Energy = -69.06042937 eV
Se 6.630193945522933 3.801576752270931 0.15093516532875648
Se 4.710832388697468 2.999741890729728 1.25462094311787
Se 8.197682079959971 4.409943567104178 1.8169591916922394
Se 3.1194870350847546 4.753665247342126 1.4045391571430337
Se 8.380549088648262 6.752136408608456 1.8485281951424397
Se 6.4316005757983765 7.5854384649385995 2.9125241086666422
Se 3.057739764697277 5.572548341935606 3.6055364616513605
Se 1.4635985176621948 4.1509633279082 4.656068782444922
Se 3.7932861130165425 1.162852590060114 5.414514282347812
Se 5.9491703392324835 2.06177589312773 5.007152082379907
Se 3.078246312342558 7.211707621186397 7.992745731596036
Se 4.34203378347544 8.991306899299252 8.968185869071391
Se 6.398486229488308 6.7681417653867815 5.122794409043463
Se 2.6179877571470676 2.9849285272674533 6.343347488238513
Se 5.520610917723882 9.792131295262626 7.102544855680841
Se 7.340693065103695 8.35872134117246 6.613643483458953
Se 7.051410831344881 2.1497423430211553 7.083588349678629
Se 3.376451052008052 5.335884634650891 9.368547647302242
Se 6.9568514926213405 4.432836302130425 7.74726151362996
Se 5.676577245049619 4.817445321221689 9.679450817009585
