20
Energy = -69.14340318 eV
Se 6.140253648402695 6.337214490363607 1.039227358796468
Se 7.271024821933669 4.511320054251316 2.071286266438081
Se 4.574735490023629 7.059262883137023 2.6062312447684772
Se 4.350837901344785 3.733635443559208 3.7863727060114325
Se 4.905326042212952 1.4437690094881204 3.471648062663058
Se 2.052541305950781 3.770808043121451 4.355189445035515
Se 8.966716915180303 5.482190153344484 3.396119866207602
Se 5.929716665008052 8.61531504769601 3.8882592582709843
Se 4.614233627366339 10.474787823469626 4.2831629825730175
Se 5.126258581575311 0.5182761632469034 5.630864329884495
Se 4.731450354712312 9.302632589348438 7.848996980663685
Se 7.3231850522781 0.7323038527489232 6.425357286349949
Se 8.108288792922977 5.858301932228392 5.5668856938788664
Se 1.8619176799282604 3.3702118157794514 6.672526315962185
Se 3.2255762314736103 9.86949618705149 6.151641178703811
Se 8.997058766068507 4.141548754948058 6.942233669618786
Se 7.333865108398477 2.709157738017672 7.755586999751617
Se 5.167478698572644 6.9955272815551375 7.496264792926804
Se 1.708058293023445 5.43193432206596 7.811391290048503
Se 3.7528614963532454 5.783691887308173 8.942139744176771
