26
Energy = -88.43223428 eV
Se 5.355234844629855 3.038025014271553 2.9250624823236677
Se 6.6232762784244485 6.615557122851748 2.09713817691459
Se 7.108228826270558 7.975607136068889 5.972458920292265
Se 3.5268458828947833 2.67817127119612 7.994658174441378
Se 4.28354304453782 7.563371708116285 9.242719117936526
Se 8.622146065305623 9.554503690491806 11.714963857543754
Se 6.994337910935842 7.800623535753262 11.646345136281134
Se 11.192286440291976 7.4365124469326505 4.3763308165008645
Se 6.952616732784522 4.220323230461287 1.748506325072921
Se 9.420551880597618 7.743180516979215 6.403905167229675
Se 2.864459320368676 8.365623265567974 7.488351984412675
Se 3.416912215938084 6.430203982030069 4.214760763070812
Se 10.627447567184774 5.832633124688488 2.8603320756947554
Se 7.817700728744696 5.255903868754897 8.905855830386173
Se 4.519842126174816 3.7637733393966712 9.843729562955586
Se 9.7435412000096 5.6118095209863395 7.681611894346798
Se 6.113031009411814 3.2573055057033873 5.203212938415313
Se 3.2289035560474773 5.696024939902674 10.259567133953382
Se 8.359256653569469 10.906325725198787 8.081668413699676
Se 4.1522793695583635 4.127910433789372 6.21793261333517
Se 9.297855374209092 6.65511437481085 1.1899529502054864
Se 3.99924450596463 8.468389678673486 5.43549898076524
Se 8.178724460999469 5.826456294222023 11.21355422097377
Se 4.191107855599946 6.923657854961477 2.077819167789619
Se 9.601292869271877 9.527743905150873 9.593194247487098
Se 6.4227545758045705 9.737248270647601 7.581452845028182
