20
Energy = -67.29070282 eV
Se 3.5803206305313813 6.298818731864834 3.4102912559137857
Se 5.751078358421843 5.908025411297916 2.867193283836186
Se 6.63291842985154 8.386969865326076 2.9940101679345927
Se 4.883314815283469 9.490011314266143 3.735513441053893
Se 3.5778835151216852 6.447318451711362 5.821342718421125
Se 4.794167280540471 2.875697079804315 6.209585179298549
Se 6.778504474797116 3.987583140129276 6.504799981538901
Se 8.210803445034916 8.399172652382239 5.230038000712963
Se 2.9583130537490376 4.398194517323854 6.7250887231191205
Se 6.703130907909027 9.426971598318262 6.57517255218008
Se 10.540592806187625 10.412554749410877 7.514672030607478
Se 10.148508341437944 7.9118943050344726 7.977653272524237
Se 5.717115618379654 7.789446014244562 8.08706827814024
Se 11.729705596487072 11.114149623727796 9.241090638968863
Se 7.5401370130576195 3.6255505418161547 8.81521033912493
Se 11.205140653850071 7.743060059538757 9.996481574529145
Se 6.098681843370528 8.682991531071309 10.221172421622697
Se 9.507317384973533 4.700705145063902 8.770521488329791
Se 7.708099738521904 7.411039175665415 11.43269948470684
Se 9.646013713776206 8.701593713285092 11.582142788719183
