28
Energy = -95.27533514 eV
Se 8.629037523091036 9.662524009940665 2.0405271382454315
Se 9.806501109392865 7.820887433634631 2.6720389442152346
Se 7.785284739872072 10.479299978801393 5.648406604250221
Se 8.735363539432464 7.118906427259474 7.398529240713324
Se 6.800776736514252 10.041926054913207 3.55480278948926
Se 7.78068287886664 5.917703489794316 2.759799036093767
Se 1.3360924690568512 8.526068900852353 8.096164141046822
Se 7.098258540192957 8.812273253212703 7.166962671573772
Se 2.7486607546898694 8.278841139997132 6.260531571726559
Se 7.730791458787982 5.191930650381565 6.485915796434804
Se 8.816428504139655 4.652281556531173 4.454914202148177
Se 4.015498739929935 5.77923992048593 2.2761207203194505
Se 1.645612131973901 6.73707991785912 9.678114022702156
Se 5.860266474957028 1.3449451984895633 4.973650360142082
Se 3.4478488338598563 7.177726977138865 11.006037268519032
Se 3.589845939331443 1.680752336502009 11.006037268519032
Se 5.887807737207701 4.507453298633287 1.883363337125537
Se 1.5986008367604332 6.799104712635776 4.738017133015468
Se 2.9844689721900544 4.981379238829089 4.3565062293929016
Se 5.308765051991454 5.955156683651665 9.769859725221705
Se 4.207174065724715 4.827175888243957 8.145815636088178
Se 3.4781241164837806 2.745488412609767 9.2439395778379
Se 2.7584572910703975 2.2341941492497366 1.5815049133683456
Se 4.357015927724786 11.37636273806972 11.119053911392147
Se 5.354758230726157 11.73688031669617 3.1318238231355573
Se 3.060342597885951 1.3346140036562462 7.449823340159049
Se 5.10296293209822 0.22716623605237268 6.910268165536577
Se 3.0327562248611635 0.21656130596353848 2.619298635073999
