20
Energy = -67.01603378 eV
Se 3.2365695630569764 5.298675540689806 2.0207895950236177
Se 5.7330917501938155 4.962248782578772 1.325770816925215
Se 3.302690045448785 7.50547801118898 2.5905176025363703
Se 6.6814084675073 6.867995354906426 1.8619913821268188
Se 6.603120897655437 3.566151208924331 3.678191330842777
Se 3.142425963035513 7.90470681615282 4.957875170843784
Se 9.935272567517742 5.507800284843659 4.2294083995068705
Se 7.438841606643998 5.437365304369664 4.536426372194977
Se 5.259473742275151 8.39545427142018 5.829906836857369
Se 10.43548601715888 7.211993651233675 5.663036299966108
Se 10.62909400701644 6.1896683949797415 7.899334057408904
Se 5.759496742968252 6.555952858322258 7.332193948995208
Se 10.657418316462262 8.062128311386878 9.219976091119873
Se 7.942450699215632 7.867507118198228 9.371913302877159
Se 5.34496899380797 7.31407864114129 9.477135412185035
Se 9.105569607256294 7.158082671053377 12.935968912472083
Se 6.553481073233351 7.316854355613861 12.962435911923182
Se 7.985883991702163 9.823053708434289 10.594250785104393
Se 9.677258852076209 9.288904461459255 12.714117399735366
Se 6.312452181591492 9.502355338926323 12.5352154571782
