20
Energy = -69.00546349 eV
Se 4.982119285737764 6.2276591262325125 2.8828275206815985
Se 6.631676703167441 2.056300506032211 1.844024823925929
Se 3.197027923116779 7.69445533045307 2.569310695239201
Se 7.909742619847488 4.017492585114159 2.219356940190848
Se 4.50942469605935 2.29915445979628 2.8236419099431362
Se 6.629883007592852 7.5738498180871 4.029379509590678
Se 9.282857491151804 3.463286349013873 4.064912589780144
Se 2.121940140565236 7.629807287035939 4.696953011098382
Se 0.24308320012946746 6.216492768349735 4.630485677249095
Se 4.734209497138363 1.651557507079942 5.101956995964192
Se 5.389825355018134 8.752309091518404 5.635674577503667
Se 0.9872121216817409 3.960964904485312 4.744790092122125
Se 7.990997445340633 3.9499787895146907 5.960891140755002
Se 4.572661261802064 7.4271202754600765 7.440829114192514
Se 8.51736345194899 6.215538005055165 6.556563707403057
Se 4.397476290569475 3.6657033311892024 6.2722553363719085
Se 2.0734599318210147 3.573045549685183 6.790188073450066
Se 9.19047741954376 6.126635532084806 8.79134079934307
Se 5.880301132775491 7.879641068145973 9.371483162619759
Se 7.067515359626734 5.9282620503011385 9.882388657209917
