25
Energy = -85.22770559 eV
Se 3.80453443020876 5.424748051574813 1.7961766792035663
Se 5.111442641077497 4.023033645304269 3.182722703705503
Se 8.135161690141144 5.9247373135687535 2.6919149040641503
Se 6.637072376536569 7.361376115689137 3.81691652598956
Se 3.0588963224310834 7.205243378021534 3.1620606905235333
Se 4.106586674442082 0.38085561582957167 3.4868207225580163
Se 8.241396769714916 9.117569219456238 4.223455102639514
Se 3.3052239739679687 2.550305660658198 3.8587664574961607
Se 1.1250325734342739 6.376201519790554 4.248456864637305
Se 6.941673927673069 11.113724558198568 4.800970057899537
Se 9.193351636805506 4.559949901655852 4.332888963495204
Se 7.8111965185137615 2.7443639251468404 4.778820353531015
Se 4.0713154373085585 9.798091570619901 6.973494413884824
Se 4.421869189712675 11.113724558198568 5.617009564654773
Se 6.616236305680595 11.689987025566431 6.353906774683621
Se 6.158251897847415 10.777480387720935 6.991020754631077
Se 1.4190732132947963 6.414774428489058 6.60898157544117
Se 9.29583837346423 8.382429900397709 6.3752189150465215
Se 4.414337179900018 7.290074260087025 7.6115090653970885
Se 6.081037400331085 3.6582898086900735 6.611955534451327
Se 2.0427160201210124 4.329714255039194 7.553919085265905
Se 6.369599404573374 1.6934321067972227 7.947727975922726
Se 8.008491411695957 6.572912573142161 7.039477334304603
Se 6.491885280863549 7.422313164480406 8.694423049953711
Se 4.251846000413308 4.5834862000577825 8.355452580773205
