24
Energy = -81.10049715 eV
Se 6.3728076809133105 10.748386897322192 6.687649951106271
Se 9.09852041797555 5.931297515506254 3.098437302315442
Se 3.1837132122190503 10.273909324445167 4.686916801284249
Se 9.917225829523488 6.685060088535111 5.220566226831411
Se 4.343670305616492 11.161340758285467 7.613523510994769
Se 9.039370135211492 3.6018584082502225 3.2668793221143737
Se 3.1928192876934074 9.039461751425227 7.55729218629185
Se 11.847162046426728 5.487194163624451 5.7566379880084515
Se 5.352051720597505 10.05416221706121 4.254449420542082
Se 3.626001449652229 6.775441342821948 4.418782161101726
Se 5.867927696823414 7.607300657961835 4.479753006416759
Se 3.4245329568024285 5.455746814120596 2.6069377715087803
Se 6.650738890253147 7.608314941554754 9.069423633045872
Se 3.567177786286873 3.1456857711630697 4.2518600801640485
Se 2.0294554580583775 6.0983960600963485 8.296688647142322
Se 5.679161112408522 1.8503353752557308 3.8194635799290446
Se 6.868931614652406 5.677406230951029 7.676527555477295
Se 7.474868120082301 2.8233817936219467 4.902419829128832
Se 2.8058458528181967 7.734767417450288 9.667145793452214
Se 5.046847806079058 7.180281797894187 10.667997094305079
Se 3.615590947556019 4.245446324825824 6.191504846743931
Se 7.931135030252654 3.9540054330068615 8.87119074826409
Se 11.083574204796772 3.5223016051561853 6.853273158272269
Se 10.280507248836866 4.245221126855563 8.947958116428055
