20
Energy = -69.10947717 eV
Se 3.4205935027513528 6.464625723682619 0.5004157227375846
Se 5.345939111996939 5.114839883162988 0.30326370918696793
Se 1.7635979559366735 5.02516933424239 1.370211561276795
Se 8.291949857679663 6.548312192234436 2.3513719099984995
Se 7.655620202097938 8.497782390333343 3.5361217526792976
Se 3.8422569010695042 1.1481014675779373 4.898704844089301
Se 6.496068691682324 5.021052530834345 2.368030336388484
Se 6.212209356698372 1.394388163487931 5.201664808289448
Se 1.4586354285913201 5.697038584277651 3.611992149621663
Se 7.729244095172853 7.823294990399614 5.791391124603039
Se 5.437542425377217 7.369779063437005 6.290985918452041
Se 2.9329282390120404 2.9819469861324928 6.031772622304676
Se 6.402391876660764 1.7689720923362524 7.492330385071337
Se 6.070232442857329 4.139178026018112 7.562042925412354
Se 3.345308653919327 5.00850479895989 4.848394849608688
Se 4.8570565594493615 9.008985179098417 7.896527892787807
Se 8.16759980616362 5.032540128203197 8.220362391208356
Se 4.90687197793747 7.911659789327072 9.978811781548902
Se 7.797504094436859 5.553458049913724 10.49949693469775
Se 7.203752630033456 7.827674435865156 10.583410189561066
