25
Energy = -84.2072471 eV
Se 5.813019907958182 5.3235970906935535 0.03373983643412337
Se 4.338834155252931 6.905226661003917 0.8323497520639599
Se 7.054791613988421 6.8012828455657095 12.725483773907326
Se 6.216287350334591 4.906107329514274 3.4623170715481355
Se 7.99592980972407 10.119070649105625 2.725401908189356
Se 5.988717070818742 8.783233843973594 1.6056698584828393
Se 8.432231424805376 4.176689721390132 3.707422309720116
Se 7.921629822804706 7.979706724034372 0.4380131237610545
Se 9.57091163925919 5.6187538994888815 5.208940833509683
Se 3.8562249231600525 6.284128797457679 6.0696162201054396
Se 10.378602055073708 7.565577315048279 4.182652922294967
Se 8.702751685750155 9.192602412172848 4.7155788125651315
Se 4.92785512073274 8.407257966288192 6.291713573477345
Se 5.380128267251613 4.5608433879046 5.70602770943901
Se 8.066197793758949 4.201650336967514 8.896622540744492
Se 8.68009809073264 6.248237359614276 9.640138208056745
Se 6.575358329608068 8.365290669007203 7.986693649279033
Se 3.4884212382195647 5.545221171511433 9.187127139540614
Se 4.800924765459287 2.492669955237248 10.040809186582049
Se 7.129427426741454 2.8771424172955906 10.642048409215684
Se 5.7971575442562475 8.996893936087028 10.112451384596385
Se 5.955833338889198 6.950338185148952 11.413116561507211
Se 2.6016483968644497 5.306201941154699 11.21446703292732
Se 3.544756221669891 2.8994690454952865 11.872058250297217
Se 4.09554504604892 6.806089378002419 12.725483773907323
