29
Energy = -97.61550128 eV
Se 10.415831133412542 5.633797483143966 6.83806745485226
Se 11.654105517333235 6.826331990419573 10.021974366328076
Se 10.51829958450089 4.9740900394832 9.195321191675067
Se 7.287520763349102 3.6193045794678396 1.4594120676032876
Se 8.70416804615004 4.470345243306924 5.861249211656842
Se 10.1102173757503 8.333456748508105 11.038115270706133
Se 9.008086666684004 9.356911898979838 9.242105205561437
Se 7.913651103866519 0.7223119038696765 4.029113408670088
Se 7.2903812328095015 6.5280697899524505 2.532875818000762
Se 6.721161635402243 1.461191813126773 2.151124999074592
Se 4.387470938259145 0.5215296205239859 5.177277109426133
Se 6.431355247567431 1.2337069826253597 5.898312086725603
Se 6.642281441648107 5.859018100159045 6.198783029188562
Se 7.170231328678691 7.869467593088949 8.920508404542558
Se 5.310315649392155 4.570083352268341 7.604633288053453
Se 6.499344296660237 8.728359437052566 2.9723110762663447
Se 5.169640347021315 8.949530014610284 9.470845276364711
Se 3.494100341355464 2.444220331672996 3.8361577502389688
Se 4.9746430091775595 4.324538582214072 4.974289597113954
Se 4.201411142944774 8.581416801187991 5.72338676430838
Se 1.2469131229797354 2.755239784440204 4.6433508113437485
Se 5.283298175649461 5.176990668444938 2.384162015042043
Se 1.0461273912146416 4.103549210981838 6.556358559974571
Se 4.562603820619958 10.140908224713854 7.501713731073002
Se 4.470797050828303 8.679695408976716 1.7541523847285625
Se 0.594414004067017 6.284886937547118 5.7729886615276484
Se 3.5337778639541146 7.029950010788104 3.1442128574484536
Se 1.8505175490099393 8.304009670064968 6.597277699665624
Se 0.39580202660588903 9.509916901863091 5.3927749352612
