22
Energy = -74.82721856 eV
Se 9.067424352630606 5.204551298099098 5.976744551748035
Se 10.663386622430151 3.4553151010821455 3.017183731954524
Se 11.150144650502213 5.591997107394942 3.557041830155885
Se 9.006596673527948 3.127879278805005 5.199257879261406
Se 8.237994926231886 9.61792231891792 4.4444661528343765
Se 9.90417167731271 7.084842970424352 2.1040970894755158
Se 8.001455047910857 11.804013779239433 7.4971733824924565
Se 9.196939643502745 8.955513428935152 6.569395991304273
Se 7.175500909195025 2.8218838980468077 3.5500512062086216
Se 7.915499277654546 7.657281680923985 3.193469642643742
Se 5.022896847864203 4.600728486683653 7.372204630806691
Se 7.589501006636994 8.044869841010591 7.859798211935264
Se 3.984849684516173 3.461343574890573 5.5501186110467495
Se 4.5348673835986935 10.39073431116308 7.264585140591507
Se 2.881152052872019 6.897053164207198 10.8902017761816
Se 5.516945093509699 1.8038674319666348 4.842785785016273
Se 4.511599813006645 3.5273732621438794 9.321316893502049
Se 6.622127870773463 10.499152538173016 8.646650029741407
Se 1.466518075199255 5.2567604433399415 7.812140866864489
Se 2.1213626911932595 8.133872323185685 9.178804808080042
Se 3.8230837719297943 8.208742108959338 7.419317891268389
Se 2.1536996579106242 4.491241586213561 9.76390908850446
