25
Energy = -86.1601812 eV
Se 9.418359409714446 6.124339266465273 9.259845656217921
Se 10.262584933190663 6.353351977874868 7.055777131159544
Se 9.756481180292429 8.497770279391867 6.23199925454228
Se 5.66117992124913 8.78230781564794 8.700931561407133
Se 6.23314174885916 9.729871879127138 6.6114592213063625
Se 7.188477574976442 5.393880124130015 8.905930820800428
Se 7.577215211455606 8.300189911212149 5.311583113794991
Se 8.43861395256969 2.7161041611631003 6.608248293749289
Se 7.184526489410406 3.053101672760571 8.661755878542746
Se 7.815417103636529 4.337420181041322 5.129989951964034
Se 3.495937485590821 7.833071778296837 8.568025147434568
Se 3.696560063179835 5.495398693809058 8.826196149517902
Se 2.4483433379574087 1.9875002452226986 0.9372845492611388
Se 4.480569800973907 2.9276126563020375 0.1542351976766116
Se 4.126665621139067 5.163420135399997 9.259845656217923
Se 0.7289758621667219 5.85472326513572 2.824101343976729
Se 2.27645997942866 7.38832988364361 1.9052029687605447
Se 2.439260900934656 2.5756535783641845 3.235171232614702
Se 4.385166144510656 6.4191237174777935 1.5147870982943021
Se 5.907524776587925 1.2171008007327235 3.581549321632274
Se 3.6507946092683246 0.9537740189739417 4.438213005748208
Se 6.303274712824905 3.450394936573307 3.3373918559919744
Se 0.6383107378200531 6.134571247393805 5.1735951869528805
Se 1.480851340066463 4.173035683153914 6.180906778861068
Se 3.763685264520232 4.496330253030637 6.687818826656397
