21
Energy = -69.83342446 eV
Se 7.949488164997793 2.1061001155109893 5.184293191872112
Se 9.07160453318506 4.097652641272706 4.886928215919566
Se 7.76121193590079 3.7564290479340796 1.3589121201716468
Se 5.756778909550979 6.5323750859593375 3.2967241001109464
Se 5.997325629802371 5.131687642053437 1.0818148020619318
Se 9.992922662926338 6.96103156567873 7.141722011423824
Se 8.079829021132358 8.747821670657036 7.3512130727336995
Se 9.233091186230132 4.8273085220408625 7.245678508183456
Se 5.672622672367321 2.487915590099779 4.416476956878587
Se 10.921051145309315 10.306874749068331 9.09176375326058
Se 3.7113046337011633 7.411023099170418 2.5696424512900817
Se 8.772566117464562 9.935261192776352 9.454872247829822
Se 4.777087170309971 4.134682828310029 5.726997162962418
Se 1.9879432670343231 5.841584143884 3.0853652730713113
Se 5.0676816666819215 8.123049039906007 5.474006794780935
Se 4.141400968465415 2.9998253179059007 7.821285042293898
Se 3.9284553315289585 4.915294051281237 9.066917171713568
Se 6.0565972343353005 7.448298733824722 7.447869655709664
Se 0.7958025136617588 6.456851188166286 5.008682938698897
Se 0.988861113591114 4.6954258512866645 6.632267298739869
Se 1.5366508654185582 5.460861317144747 8.735562154250092
