25
Energy = -86.23938664 eV
Se 5.398645055884379 2.7891320247788816 10.065147860450956
Se 6.014585449134313 5.035229600043096 10.12219080848305
Se 7.837200846569126 5.192962792844977 1.5568033273111492
Se 4.2779125890874745 2.031482410726484 1.8751965577193104
Se 2.0160759392765497 2.775946771581693 1.9084338918377202
Se 7.378554165191821 7.279384251404717 2.5116458535386594
Se 2.8973552517600427 9.480958116727843 3.2196466850050793
Se 3.6201294566596793 7.259419533427558 2.924942858333252
Se 1.7968595188301157 4.1289832007599525 3.8148443927374838
Se 5.650747785498793 6.98108209346659 4.102528676268174
Se 6.408811971524817 2.630016912451296 4.462955942401752
Se 1.4511940394634533 2.557103879698997 5.564113737892302
Se 8.140881810797078 3.625488159687582 5.821948733283505
Se 2.175060707435042 9.473913912936764 5.478310038596796
Se 6.951532697662223 7.013743111749493 7.76604188682033
Se 5.065136796788836 5.594964598080775 7.93256712289121
Se 5.797425160582668 10.433098812785467 6.66766394680767
Se 3.398480618673124 2.6290120226511178 6.883699117630719
Se 5.068707580683355 1.2968718806004678 5.826793468141186
Se 8.870219235790332 1.8686053779158034 7.204269074317231
Se 6.330928258296505 9.138929668850812 8.58327496408744
Se 3.5329162202959203 11.054591320937211 6.589216471851863
Se 5.28187155235136 4.587059033180526 10.065147860450956
Se 8.39768145684881 2.5690694925815682 9.40200574862116
Se 6.050743114143115 2.3826082993589064 9.735285104200843
