21
Energy = -71.24306355 eV
Se 13.421505204076947 7.574361305149 7.180671922214506
Se 11.94974110926815 7.814669352707239 8.849108619768764
Se 8.074279449035718 4.543795588501045 4.258938168659941
Se 8.620243093781745 2.7409661881130685 5.700799844008355
Se 10.020464300483834 6.367629240617411 8.519105162837146
Se 6.852564763003664 2.6701570660762366 7.267444513076691
Se 5.566478103229626 0.8226306882083335 6.574142579850261
Se 5.769411212945024 7.297409042935274 2.8369996292524005
Se 4.564757381534179 5.4780952737144535 3.5316411028084667
Se 1.8184715566281398 1.3040083022578874 6.068246538350377
Se 3.9190101804465294 1.523496955572147 5.017607527285523
Se 4.6630233959482394 7.8531026578235 6.429898368589851
Se 8.802554925535468 7.335725178869202 6.759928546727563
Se 1.071875790227496 3.3303561884424777 7.014244726968857
Se 9.593980571082271 6.262911445488886 4.8020161592722514
Se 6.022557939855311 8.745018321704245 4.9042259020693315
Se 13.421505204076949 4.434821033532097 5.3236658315938215
Se 1.045973601142597 6.378851782360429 4.722742176704696
Se 2.526225541046672 9.315984323770888 5.9774632340335785
Se 2.3188631408412372 5.903498419643534 2.799371477655246
Se 3.2278256314875673 10.686976595957285 4.405980535233905
