24
Energy = -81.30134974 eV
Se 6.190565128743851 6.013704050577989 0.1295807765354374
Se 4.060684797259095 4.240837700763231 4.209913761566305
Se 6.504627003875069 6.634889766986653 2.390490777287461
Se 6.400717843400188 3.6663253258482915 0.040739921073913804
Se 6.928888653318636 10.614433226734782 7.20022109555856
Se 3.4300486638024985 9.687943462822782 7.158143453381403
Se 4.330569359729491 2.271016655623772 3.0543082786896507
Se 4.37778616911344 7.764126356530418 6.095643727084835
Se 8.733516684162987 6.005210266837435 2.892695520264406
Se 7.489483144359951 6.621745196096188 7.583196271154613
Se 8.852173328283701 8.225411996264576 8.848071676235664
Se 4.425224515883344 2.5629709433070156 0.5611373358023676
Se 2.708066789575688 6.119262742326333 5.927220733560683
Se 6.276325863277659 10.866987594702422 9.289339728901039
Se 6.4948691889579 1.135634279469481 3.7930362563525284
Se 3.9300748127527307 9.663905947460586 9.387325445052367
Se 8.668878159969424 4.195323661859721 4.397960202270323
Se 8.396479637661182 2.221748012386994 3.0702733798425106
Se 7.868408414437771 4.509028570584184 8.305499488500002
Se 2.5275573397386903 4.916887073989775 8.055688392253723
Se 4.996846401382048 6.426051695697159 9.883985883978399
Se 7.669756927282661 9.015710878886956 10.600178707895399
Se 3.9965585220039803 3.204953812576502 8.16476727994487
Se 5.707863657115696 4.332724950148978 9.857778130501893
