29
Energy = -97.23745466 eV
Se 10.117075167796497 5.516635757870251 9.009917538785627
Se 8.259931195532456 8.789160553364715 9.089134752938673
Se 8.255678573645755 4.217483860664988 8.199933361208366
Se 9.980787367634205 7.523433419139155 7.8873214469985795
Se 7.330414676734979 4.798510547868283 10.821532717275385
Se 8.63265232180342 10.892706810371592 8.134432925104955
Se 9.210612361170245 2.0019193287877273 5.234911906683016
Se 8.821332666308887 4.24142211505313 5.7862785900283535
Se 6.302022713161002 7.330548163883009 5.290079016997218
Se 7.8315903676681495 10.967062599878718 5.885593408014912
Se 5.12517457135064 4.163726702898455 10.955308740813841
Se 5.470062456657962 6.801627151122579 7.327112503288367
Se 4.77023372818776 2.0935696858740855 9.921977274234894
Se 7.185090175750965 1.4328314007400502 4.102106309093965
Se 6.438423069296207 4.922613622254677 3.6427070966152084
Se 4.934673526221477 9.034402776860025 8.722067709100308
Se 3.1804772955330396 6.10930613594999 6.6969245224178175
Se 2.701069636361229 9.34715614889964 8.681029132730254
Se 5.760327248494264 12.015760375912777 5.674039463620768
Se 4.034158520303308 2.6428854465807494 7.552220343555958
Se 7.949743180887803 6.988274670331666 11.108583395998329
Se 7.660699130179842 4.794229627572926 10.955308740813841
Se 2.939867422857783 0.8069811645530388 6.9657236872833
Se 2.523197752297363 4.596509961831691 8.285043450927972
Se 7.199542703754494 2.9591050329152297 2.3237762541616176
Se 4.101685869130247 10.282211148012639 5.322539642889377
Se 6.133711894792543 7.818997238559121 1.375754507760442
Se 2.3464201224534045 10.816552764893995 6.694007501666565
Se 5.039907328377259 5.88775656107705 1.9133396986820324
