20
Energy = -67.14238867 eV
Se 8.056241082821039 4.890648716533673 1.3986777636839687
Se 10.734966820417531 7.534061352275706 2.9897992406829696
Se 6.717529492580267 8.094773395650217 2.8979529317170947
Se 12.642185788221122 6.598809879887371 3.6152180464714068
Se 8.715255851643885 3.37906786518772 3.0691850110696497
Se 6.098877694893894 5.89985998031728 2.248843146499484
Se 9.721604967741802 4.625556160838203 4.846151963641109
Se 7.902569417461091 8.104388405821306 4.920267074245928
Se 12.006351362546276 4.431555125848327 4.746592596812677
Se 6.39431771821856 8.293130463700344 6.807015468277225
Se 7.01264097499056 6.43990860694077 8.094942737195408
Se 5.4201204089974695 4.694258046385323 7.6519750049944735
Se 3.625219864165571 8.747548443379504 8.693236510036751
Se 6.985442717396127 10.42375245926918 10.190050453651155
Se 4.637813302210865 3.936134545650303 9.722700922867402
Se 1.972714361127977 10.174114447613979 8.282213456350085
Se 4.918806136638697 9.837597183617932 10.758690939702344
Se 2.8310215384576414 5.309845389561474 10.385225137333773
Se 5.478533433490348 7.637809765970633 11.793222611817187
Se 3.602204858256544 6.421597557827906 12.362456775226882
