22
Energy = -75.26545755 eV
Se 11.066475446516797 6.912117156787389 6.394264171601019
Se 11.934453185090321 6.510688222367349 4.2370922935070086
Se 10.510191596835499 9.239421458556665 6.617003628275242
Se 8.660245437786484 4.74303688097459 3.2629242646356245
Se 9.226857366820923 6.611263641095531 9.449184014809
Se 10.081914345827592 6.565498446584923 2.759362064514603
Se 8.333212327542578 4.892769181445009 8.231654265563053
Se 8.469155957867907 9.494270153255675 5.566006067786725
Se 7.210338283684578 5.5515106633663285 4.911852776277681
Se 7.744871230593764 8.56927938728298 9.247951118314909
Se 6.8143154777006565 8.498747117063012 7.138337536995934
Se 6.889792152735116 3.830443154994828 9.93876177949732
Se 5.2785381827322535 8.853905149926417 4.369683545445928
Se 5.442040208478694 2.384122836116041 8.932703688110532
Se 2.296367612063637 8.296315651892408 8.125803232858019
Se 4.1534221369639495 7.155495311161037 9.096006944644085
Se 3.467237456174899 3.6602305042298475 8.230092963695416
Se 3.1547877840304817 5.185862877236139 9.94677058440495
Se 5.735114196032729 6.885115950841337 3.3917571750760818
Se 3.306640787115121 5.79135143251879 3.3760048322923
Se 1.3860089497635606 6.928216244348484 6.468383986602454
Se 2.152623779872119 7.533104257716057 4.26139784987989
