25
Energy = -85.85491686 eV
Se 6.731840166918158 4.644387135948142 0.8923568102638358
Se 4.810243000256479 6.889037646908968 2.9993007578496655
Se 5.332537976676194 3.4198967632594357 2.3606338979853345
Se 3.2045949546439836 5.0489092100048545 3.2879221621491848
Se 8.737843851761708 5.210386260436323 1.996690665420605
Se 3.8312307136301214 8.830731396027225 3.835742189659457
Se 8.628533756676992 7.488774564697919 2.705849861160289
Se 4.670722811434915 9.108359611614203 6.0442010049847985
Se 4.2511541647722515 3.470344015183924 5.0164373368819355
Se 7.911853476754817 3.2311624002961965 4.523035785764241
Se 1.2845070411871102 6.473435255202278 4.2378042225831205
Se 6.57377888039061 1.8492930814041473 6.033977224198043
Se 10.022135111025845 3.337453309001547 5.581187019817536
Se 10.627525453423385 4.825337795197527 3.637756679399711
Se 2.6953669756821474 2.9012425676362517 6.75131242444617
Se 2.898204888807308 8.511338725290194 7.476998101966783
Se 0.8851056475968485 1.8325242780683475 5.671648991866302
Se 8.131258309475438 7.627984296571861 5.00366462916187
Se 2.8012388200900054 6.142376639761333 7.4652583093845015
Se 6.927387341268715 2.800816906757882 8.180490645886529
Se 10.195890807952903 3.5675686605700836 5.587543661515197
Se 9.778715392573838 5.099173323078903 7.150055031922819
Se 6.393690214544937 5.09254505690451 8.234725314566692
Se 10.195890807952903 7.1547840452838996 6.069205163197788
Se 4.237747421873005 5.380452108002466 9.194517161075812
