28
Energy = -94.41660037 eV
Se 11.249465805841224 9.536961007265928 5.9530968906959
Se 12.144813795111808 5.198857766535537 8.116898256598967
Se 11.07076790992554 3.1731967799448237 8.553292618135913
Se 11.671129048548408 9.842789998829863 8.34321121645343
Se 13.357116750743035 8.44945083091293 8.862005088581588
Se 11.534717626060203 6.640770613813653 10.035892658432534
Se 8.92921844588474 3.3579112539934295 7.543183991643384
Se 4.952180275221669 6.205550925866736 1.7776741310700988
Se 9.703160455417235 7.8028019472077315 9.577836785784362
Se 7.632096513275 9.651103705004573 4.992367035191403
Se 5.905477309735278 5.658159644952425 3.7852712868741576
Se 7.1039295816463115 3.0765699137984024 1.5812861127871372
Se 7.612897331370054 4.6057521218203314 9.04585651866721
Se 9.397345041868423 8.183939936594912 5.542619605100147
Se 4.6332077411632335 3.8730649379456654 4.750628080432495
Se 2.933720519960471 4.1642414763330615 9.480604440259494
Se 3.5017556916156276 5.752494441975722 7.819790073883923
Se 5.9630937199819245 9.363328408276267 6.707913023524403
Se 5.977701666186849 4.447743161025781 0.2633025808164599
Se 6.450187980910195 3.1603290441600285 10.505889110501023
Se 4.2027378283617915 8.557310152272045 5.091863881549128
Se 6.644857964201484 11.413833594026165 8.267394554964541
Se 2.7551210306993594 4.862275256867888 5.759484129442367
Se 4.535479404751127 2.446325618020784 9.323641626271915
Se 2.51027337957848 9.916350523408976 6.203599716167188
Se 4.391383749837776 11.590508903420435 8.928878258265495
Se 3.592918515324673 9.474105451405677 8.950176789968124
Se 3.147139892914322 12.050023972252312 6.196389172160615
