20
Energy = -68.84043156 eV
Se 4.881075272168922 6.1879718364556995 0.7465015014550123
Se 6.331913483679675 5.62147080614521 8.549381130335794
Se 5.378947918886129 3.922302976201139 0.19538859101186618
Se 3.5320775513215152 6.129036261226688 5.8655657062917195
Se 2.5268558918442636 6.345518056446787 0.7986041132467312
Se 8.584590375645288 4.469881121953649 5.782225205862073
Se 6.206005775788688 3.0256565159530946 2.1755767862893296
Se 2.4807421888544408 4.7950513966878665 7.5372488365880965
Se 7.550686570794881 5.7305023414398955 3.9476913224507735
Se 4.151289837489121 2.959536536610457 3.502628949125901
Se 1.5915083090189053 5.400620989011072 2.741460453204796
Se 7.972053086967472 2.2431655844794456 5.7114220707647965
Se 1.7975662258222165 6.97022400536351 4.522768953384644
Se 5.816374306557221 2.029772789131766 6.745043530827348
Se 6.584240795336084 8.589241049466036 6.268625260054252
Se 8.274400666194216 7.788772566165048 4.791004812971589
Se 4.554680623645525 1.1671622826804386 4.935511861838413
Se 7.235054506136458 7.849203911395402 8.392031429091114
Se 2.671778433676103 6.176092310960844 9.41080212481783
Se 4.800868926328431 5.521527408380823 10.303228106542788
