26
Energy = -88.09667469 eV
Se 8.743677914607293 2.58892575405845 7.650827506720354
Se 7.342395656027888 0.8105354313472637 8.308785608610135
Se 9.464640240043186 3.869220580579994 9.497730322262683
Se 10.30865425477692 7.724705205841945 4.990527165115192
Se 4.272900635100186 1.9096519892647776 6.227884871511134
Se 12.664473493047327 4.871210395421168 4.5056855672392055
Se 5.122609292073482 1.652114110454928 8.400878399151765
Se 11.207806323631704 6.120364711992768 3.3691047146381257
Se 8.054564758589462 5.726756701913602 9.832164361819268
Se 5.070224150845813 4.226569712897596 6.074367931226098
Se 8.606777659049163 7.177260552971168 8.0168751770962
Se 1.6795638233130097 5.522092744244827 7.752249236927949
Se 10.611365503515584 9.791509824734845 3.937310562760673
Se 5.402920691579597 4.8228245353243695 3.88765880722795
Se 1.6808802849614681 2.0280709182093113 4.328034703017413
Se 1.4317500025270278 7.3048900496697176 6.354159799481427
Se 6.584755148505881 7.33979741926408 6.814366228678365
Se 0.04915110180493075 3.837273443821633 6.700360926102023
Se 12.664473493047325 4.835205674949099 4.871330796752118
Se 5.80215753152632 9.540034636927961 7.329435017549034
Se 3.392720688880501 7.655410518807212 4.981338652211795
Se 0.8412443090241424 3.6548501226742074 3.081439891741596
Se 3.4543931083529005 6.117375814922045 3.224860538849465
Se 7.472989060939474 11.807290192663386 4.5516940721166
Se 8.598393380598072 10.516343550971582 2.926908490673317
Se 5.56850507266482 10.571426449598292 5.229657897693705
