20
Energy = -66.12931819 eV
Se 5.244089605783044 4.884738558483646 11.81957961475968
Se 5.209106216665248 8.207786295741991 12.543543435898572
Se 7.427577133007644 5.22794167523743 12.235522496428272
Se 4.736103089083261 6.556773200858945 10.036477480406447
Se 7.360953746815842 7.743814907144748 12.475997983056605
Se 7.412467716401973 4.746061470104863 8.626609258122736
Se 6.710651915819452 7.307291506692541 9.036849704536042
Se 6.626171812053423 9.971058300005062 9.378319516508355
Se 9.612349817944901 5.022203383760988 8.060282799081
Se 8.558109270043037 9.491210655781925 8.202219015440212
Se 6.134862078414765 4.949188831632379 1.3233140956786282
Se 4.529702697229373 7.838580906072069 1.9934630609916064
Se 7.7949667334719654 6.402137579653074 1.3169016599709835
Se 4.966619817269426 6.072179461886005 3.7287228321073465
Se 6.590582629047268 8.622400451100594 1.5527268209538279
Se 8.516792425468484 4.231512677403883 4.434957842022601
Se 7.0214831783390865 6.4679114977581 4.805546527065498
Se 6.152314652634263 8.958131236224409 5.300937655124846
Se 9.702719331453219 5.743654498922594 5.715259462940699
Se 8.123804286161176 9.98685105864076 5.84419689201234
