26
Energy = -87.84702823 eV
Se 8.10771553550581 5.717994391341226 10.901225361599499
Se 6.31218996969924 4.632416187671265 9.963814904819186
Se 7.37057273452374 2.5508059000138834 8.903991429931514
Se 5.036624914629502 2.1090774809353543 7.825206293880455
Se 9.011773250743355 9.254787750764319 9.6878283775083
Se 9.286415105899781 6.937845886020669 9.041929028031136
Se 5.301850124405229 3.368130148902717 5.934599458371031
Se 4.5543606539782475 7.509266931872806 9.212751248497336
Se 11.534297101013616 6.973999754729016 7.503951507278745
Se 8.649473297318568 3.269433967257458 7.237955352477834
Se 5.594189046587296 6.959992609301597 5.531944331601794
Se 9.089277320468298 10.657321560447565 7.815585896477979
Se 5.815587887210708 1.9173222121585427 4.074077641631896
Se 10.911702276588914 5.5461935432616265 5.862561287277688
Se 8.046871933391328 2.106925770344608 3.441234537936167
Se 5.045959566794479 9.039168753594673 4.513168260917339
Se 6.98407087470924 11.357615568944952 6.957779955264069
Se 3.9027472779559376 6.605139420858676 7.131009253474813
Se 8.017817788822132 4.027056833372801 2.0021465008098605
Se 9.587751022545072 6.8096913442852705 4.230318744125179
Se 3.186993088387915 12.12678927043317 7.373541742596936
Se 6.926369813477789 10.41680780776808 4.774806700758416
Se 9.929600165741052 5.31514634597827 2.4595493103866124
Se 3.7842130164611048 11.275991849408681 9.688241810056578
Se 2.884140267715865 9.1684010680135 9.704743734198928
Se 2.0543672329628113 10.494093778272624 6.403173719756934
