22
Energy = -74.79943296 eV
Se 4.072662717426414 3.4300383254440434 3.223565660768618
Se 11.11557223455027 2.8605200577333694 4.110205708950383
Se 9.337671375036448 4.100509221784834 3.134830688501941
Se 4.785916453721358 7.034369191517748 2.615915751791535
Se 7.698990527614558 2.478153649856937 2.630974976631127
Se 5.959427203241508 2.3910488803589858 4.230565275241286
Se 6.876191948494259 9.637209018400496 6.203755533767888
Se 3.9413742116482933 9.045944419868695 3.0725672121230794
Se 7.717631192882862 7.5701327954069795 5.468756942654373
Se 11.374292662880327 3.575338815093225 6.3292672687807325
Se 3.6997795738673958 5.505764293628677 4.210272773015973
Se 10.00149041335392 2.2759465465225674 7.761669903863999
Se 7.855575007991609 3.1979392908822635 7.439595910383622
Se 4.603658751441647 9.263126744840063 6.874628499581633
Se 7.764066137451548 5.25707895079446 8.593758363337642
Se 0.7667571362505065 8.18274017120915 5.717883915871913
Se 0.8956617789677035 5.887026656175893 6.772108012236017
Se 9.01296233754644 6.771723559877458 7.27142310829665
Se 4.077534745688267 6.152618376653934 8.79489268226459
Se 1.5595059905214597 9.596191178503027 7.233601069791567
Se 4.774147594059221 8.362280379653248 9.078370859634825
Se 1.669421597607123 6.3081870065126315 8.884329643031714
