20
Energy = -69.05212788 eV
Se 4.838784710642358 6.161146508248726 1.3225535587856863
Se 6.866113682708053 4.978844488142896 1.2861524739395371
Se 6.577468546982364 2.6353048320316934 1.2977457761507811
Se 4.48156376308522 6.474982326352151 3.6682415489854505
Se 2.309127493479489 5.708003669656158 4.130628657728726
Se 7.879576695049371 7.442392444072141 3.7538020008112487
Se 6.0696508487063285 1.9884759310966882 3.522276955832135
Se 2.3150953069435265 3.334306393803859 4.18498316483054
Se 9.034664589706296 5.958445696735278 5.087518406540474
Se 7.146217946399795 9.22517759124581 5.3564425218966845
Se 7.572215853945124 4.337932547787153 6.078829358359663
Se 3.702916850975027 2.591452459689155 5.9250798981943404
Se 7.954283162506072 2.3339985160949284 4.897190957664314
Se 3.5944821394175785 7.484715012476694 7.334655271000798
Se 8.358367596621758 8.934892468226273 7.268965292677794
Se 2.3649810729377516 2.5288569333497892 7.889044986987946
Se 5.057128089199606 8.508921625622111 8.910886057659818
Se 2.1155181549681386 6.26756568131666 8.70221543692041
Se 7.087676965928571 7.390445653229717 8.636648589289456
Se 3.1970941053118787 4.237066796337033 9.269066661258481
