20
Energy = -69.1451419 eV
Se 4.5659806442444255 3.427391018151734 1.8170432440652664
Se 7.061812031228814 8.572697859847633 2.640918352009751
Se 6.327516101293955 1.9229041445371238 2.266274208092521
Se 5.068927903165506 7.489678988102263 1.956857884422474
Se 2.651179122871225 2.5476728761540777 2.858976869587617
Se 8.579865721275949 6.911723244364146 3.324048279436034
Se 7.775719334626525 2.9248959225946196 3.832597163869574
Se 3.4684287776567118 8.200838913099437 3.5390369717901353
Se 7.777536507322425 6.010479844440305 5.380771813351504
Se 2.814242209201508 3.1823226552848682 5.135341618430647
Se 1.7771447523363826 5.283121986711975 5.3852440379249815
Se 7.547778960639128 1.8890535769600971 5.988657307755043
Se 3.512726347544791 6.893527126668174 5.517247485276285
Se 6.982345135263008 3.4613274650123556 7.595048476878909
Se 6.097518669907524 8.835441519317545 7.188148438707965
Se 8.164914217717515 7.691874881740751 6.997664885283744
Se 4.621278963064445 3.0759533597105513 8.137071252009388
Se 5.1607420775418715 8.250777635798984 9.274886993290064
Se 3.469304645264795 6.623645580871743 9.033162060785138
Se 4.333832860618704 4.563466383416514 9.889797639817395
