21
Energy = -70.89904098 eV
Se 10.75753681606782 3.2898627598680616 8.579446188877869
Se 9.19098831952231 2.1034411655563616 9.881779480185388
Se 9.05114143986942 9.135740936064645 7.611097813441986
Se 10.245613011069054 3.391781398670688 6.2683913261453625
Se 9.624478061897333 5.640988905895957 5.8674748254061955
Se 7.422377986460205 3.557340699669254 10.496582829145868
Se 7.46414428143341 8.492729257649982 9.072840910059888
Se 6.229585643176212 6.269881290099595 8.538123339984432
Se 7.299160043419642 5.657548431649668 5.388786392081445
Se 9.126878475338769 6.8062309989198795 9.979508268984853
Se 8.39249764970407 5.361670841447392 11.681261783192191
Se 3.985410750601476 6.388330883789717 7.928043465017663
Se 7.173343901978181 7.513823919282903 2.1183968333604573
Se 3.824592354829795 5.6527624964268535 5.644530168987847
Se 3.816886985329669 10.264025871038745 7.145408823552974
Se 6.050828154328663 10.59200458550251 7.4434812905150425
Se 7.139081310843276 5.329208772567624 3.0354964032831733
Se 4.960829990529275 8.061251742613827 1.5935568258469528
Se 2.563892751538142 7.237064220709456 4.473684370628498
Se 3.064444706905765 11.083914639230223 5.1716012824731
Se 4.077458893284794 8.905694194809488 3.69711474614792
