21
Energy = -71.29386801 eV
Se 8.042244546373762 1.3386730586609588 3.030581076412712
Se 8.827872233603696 1.6521466911396199 5.221682379522723
Se 7.862841750522999 11.55827500110155 2.7280580762502886
Se 5.975084536684574 4.881925160386795 3.081918029677569
Se 7.318591632027601 7.741169285465528 5.0569728503195694
Se 5.461502332092153 12.528065260385079 0.2551922605824942
Se 6.878843773787225 1.5798531838661491 6.565569339374772
Se 5.876170632705771 10.91969769297795 3.659185911152618
Se 5.990856258684541 3.7601836720011903 6.6479748541233015
Se 5.818191737036689 7.220419211292487 3.279382417335601
Se 5.324236878130276 7.040532564883426 8.345400606617384
Se 4.252351579889063 11.531623484571844 1.8162465173268298
Se 4.576350289950118 3.9523411823000965 4.75072142665682
Se 6.105881912899491 8.698911292229806 6.8089724001834355
Se 2.1379574235059673 6.350729984628481 4.869185311741059
Se 1.939556190667107 5.624323835688084 7.079910694515702
Se 2.990866562401445 7.341924518973755 8.335937461516764
Se 2.8584799831323005 10.041098504260702 3.4662531897529503
Se 0.2476087292228861 9.359180507434589 6.127534184930917
Se 2.101215917332845 10.91969769297795 5.349884798930995
Se 0.20543807554660085 7.784428576759862 4.491848585527975
