20
Energy = -69.03356761 eV
Se 6.917787062959672 5.288428228020125 1.0686963750773932
Se 5.153044126531839 6.866535220945123 1.2962350364726773
Se 6.420840394680147 3.4259745113499886 2.4668196258691495
Se 3.088756512754864 4.80348079830322 4.07876968584532
Se 5.724059085703374 8.898606817041975 2.296220198831153
Se 8.37511218564407 2.890888983252103 3.6617479522041587
Se 1.6141472011046267 5.698954299544708 5.687008490305656
Se 2.4160226658240553 2.5439130607002114 3.8110505538499533
Se 4.225121882077371 1.2314557044510015 4.564181666042052
Se 4.6732692827228375 8.843047049675352 4.500498949056997
Se 8.408128523814666 3.9646749144002205 5.77657531071151
Se 5.819759116588417 10.31653629716136 5.812403795968223
Se 6.9773211392337355 6.933529128074978 6.916001703959424
Se 7.730739688674106 9.11313289070398 6.79332976911815
Se 4.171592498054022 1.0600953170358833 6.916487189853874
Se 2.3333240532934423 5.278290008812835 7.900932482881677
Se 5.32152849249041 2.959219194352202 7.737978302194235
Se 7.625105101475898 2.4914349179120925 7.443573703307384
Se 3.546353027380031 7.169418136635645 8.652047352271397
Se 5.802427499656252 6.566824062290641 8.96388139684346
