24
Energy = -80.79126355 eV
Se 9.647795214960615 8.412289759318151 6.7042563585929065
Se 9.9177981745688 6.307909286220763 5.681376837897573
Se 7.774250474266321 8.188301373232747 8.162699620986338
Se 9.437135874962538 6.452381439168257 3.3718601289041845
Se 8.100297933136169 9.787231487811912 3.5177448188380183
Se 5.924016572325862 9.385593107053284 7.4142985756169875
Se 7.796299402759782 4.418353511058393 8.502009086946204
Se 6.344384590472539 4.987494671398035 10.206216576325463
Se 8.069762872696062 2.047407983962482 8.553327871172812
Se 3.337182074067533 7.5185474517219 12.143143244435564
Se 4.64048115999882 7.786461888500684 6.116259070119801
Se 7.145049319477405 6.047906676556078 2.861782801943346
Se 6.7680624161351 3.754807587746793 2.9338169919680133
Se 3.1121834903667476 5.423674312706619 11.434095070530491
Se 7.707706758425857 1.2027318689970101 6.351685746811891
Se 4.149470787783337 5.429778878901684 9.002549095745257
Se 3.4142820696701026 9.11190971272718 4.672146149752071
Se 7.394531955868818 11.885077611799865 3.3191895165012837
Se 5.53776274345667 3.780325947090781 5.094388845580828
Se 5.686287495467435 0.15467783651828046 6.110782740064328
Se 4.996219331036651 11.762133702157037 2.5651067653775748
Se 4.592952488280512 9.513366980510776 2.590270069499594
Se 3.7345976784537323 3.6397175452377017 7.708008246500299
Se 4.24873811853518 1.9064437912967136 4.9892173523574295
