33
Energy = -112.35855439 eV
Se 9.999115257419309 5.973407620426574 3.0731483621551514
Se 1.051165433817887 9.35255038392732 5.129998941101004
Se 2.009620550737086 5.8378936047480945 9.457104236070752
Se 4.214245016162051 6.991809278301489 2.0013080175630247
Se 9.050814297455847 3.469433066206432 7.955300901330283
Se 10.345063600040032 3.7832693852269337 4.417588541395912
Se 2.562910247475804 3.832766999770721 6.205756760236802
Se 2.3639703227828495 6.432442182916435 7.2206810412537505
Se 5.045493498877042 9.440878672231173 11.832348750650212
Se 8.657004097723682 10.420797227635564 10.95775611164754
Se 6.714115633410313 2.913457587977716 0.6935899197411806
Se 9.922868620872029 8.776247525270973 9.778445097165584
Se 8.770669088625613 8.414020185340119 7.807722604091601
Se 4.158473537424975 5.771036554768771 10.479587592994395
Se 7.4616139569634985 1.6525501613942821 8.033130901819696
Se 8.466726455122698 2.46528985490469 4.010091240473438
Se 5.325758581778066 2.5285155554013135 8.263945172930134
Se 4.548924121892361 9.312103794674766 1.7326264508874851
Se 7.157495877267984 5.211644249973132 0.3685491879301573
Se 9.865665576029226 8.602324586281341 2.3964390953662913
Se 7.894374817075618 5.933597364707805 10.54038353973296
Se 9.57939629972854 4.13263129144365 10.087802763302175
Se 4.183490640082247 7.296617570541137 12.290361646022353
Se 4.725216034462669 10.104584696159126 3.9521995927022164
Se 7.144808193929035 6.60979025483441 8.535609803680341
Se 7.299863426656315 9.46482567040393 12.61935201378541
Se 9.839470748874025 9.045896193296096 4.634488184056668
Se 9.82626093179347 6.6701648238623354 5.3210970921675145
Se 8.619185060485167 1.9544237931740553 1.6815192730296011
Se 4.724169088428619 3.194599515375176 5.9860043213285605
Se 2.6542491780275626 11.03194518053942 4.568454230410974
Se 1.214149083734617 8.726608007512077 7.348003293586245
Se 6.395030716954286 6.1665526530113475 2.3951434374657254
