33
Energy = -111.2579537 eV
Se 8.08430916755393 3.520313781441892 10.258860140587586
Se 4.015910298389219 5.780704585858571 3.640660084880972
Se 11.764082950589742 1.8857435358848387 7.394102359370991
Se 10.972535221267265 10.345751257154202 7.244402927729444
Se 11.443218839835689 1.6773163582140596 9.751566455081361
Se 4.621344742681833 2.8974170976402784 7.5559537335623705
Se 7.626739532127825 5.749388955062955 2.3651209748065147
Se 5.7804481849249045 5.43726682537349 5.043848720705608
Se 12.928367465984278 3.910627006539303 7.213152584682145
Se 2.1583070915192364 6.050577859557449 7.172493444709387
Se 5.268003997303474 7.0075390795957855 11.18419031218024
Se 2.9291463543657366 8.8283141138192 4.23070764257926
Se 2.2743268231254885 3.741944324554609 7.083514315588449
Se 12.248889744306462 7.96834563695916 4.613434330546489
Se 10.4547208736762 3.6512598932480436 10.510400750566067
Se 5.369094330079391 8.664236888837067 1.3870854100992516
Se 10.999775708960213 9.92888342516265 4.904840690260475
Se 7.457108428732283 5.11583628312173 8.647733954743277
Se 11.152064403650884 5.47692301980977 7.157216982503761
Se 5.842817893915153 10.421694771864978 9.042134740195822
Se 7.194063446880972 7.162263935435109 9.838874541408602
Se 6.368194946236059 12.63285456600922 8.942451126236941
Se 10.828604596033808 6.090624191524732 4.901399781128958
Se 8.645437943945625 10.165389237921893 7.872733323982184
Se 5.905755725040924 3.1103620770741585 5.398588093490182
Se 2.169789932297313 11.126922375864508 4.659005516209918
Se 0.5903465216138696 10.89720431920856 6.2291010864546985
Se 3.106688787758609 8.827342911515334 1.8701547598358206
Se 4.249654505480343 0.707840356875425 7.703069802856188
Se 1.7997060901885076 6.622680270514778 9.469211123287225
Se 3.5002199444538653 8.131711161332243 10.056847380592421
Se 8.445154109281756 12.530282514822465 7.733219738977169
Se 5.653831693997084 6.164742835505653 1.455954976298599
