39
Energy = -104.56707536 eV
Se 5.441269098915012 7.233580779750972 2.039064187364793
Se 8.224265812464546 4.078513956261587 2.5796077519006544
Se 3.4625166690500953 7.620958320833222 3.4458898240579723
Se 6.232575489151662 5.2446982508748174 3.4203776948938964
Se 9.028965680473961 8.358235155060244 3.9818350873812345
Se 4.1371690191340775 3.9049943796656894 3.9682275487055394
Se 6.622746919376412 8.344020598385512 3.863291049833632
Se 9.461390762591678 5.920134366157415 3.6742136958394154
Se 2.04647386169264 5.463959536183248 3.7437687747417563
Se 6.977921145083442 11.496458481552716 5.855530555274106
Se 8.854590340973779 3.2921041629380468 4.910353322234688
Se 2.6586454152433348 9.897121904289893 4.206922955638185
Se 4.130339790228155 6.099908802791938 5.4500080795607655
Se 6.5686219020243986 5.7836828694174836 5.9350578881403315
Se 8.754800378032735 6.729968374259393 6.152657058794312
Se 1.407433622359542 6.120388913447386 6.178577463371441
Se 9.909174619831607 9.085348097146893 6.3170879004325435
Se 10.73169807597781 2.752698089950392 6.3618676424983285
Se 5.040903611568165 10.074444616974377 4.80439576928384
Se 5.733200112470436 8.003993309763135 6.432184050688518
Se 6.873170182049914 3.3249697967868572 6.377899199933044
Se 5.152150658655499 10.538684197358668 7.435953438147123
Se 4.519495301713178 3.4850311469337956 6.430938718728649
Se 10.859880990710108 5.107853328315613 5.722644819127901
Se 7.720449708321505 9.504821346745501 7.2614730296999594
Se 3.106290306052816 5.505533951227928 7.9431781668668675
Se 2.6427692102454103 8.32715747782107 6.156831594093855
Se 10.961191429366375 6.885332290750298 7.52666247271189
Se 7.841650365834868 3.4161299130256544 8.697341584415097
Se 6.9827685768630126 6.151451090650012 8.425084443523245
Se 4.006542432906093 7.835581568027525 8.2764874050636
Se 3.5664240636078026 3.235848483171118 8.694275604531542
Se 10.2095798256968 3.0634628229134058 8.888842674139365
Se 9.589925487673128 5.40280842244214 8.953963757782144
Se 7.142952570923562 8.514231257449554 9.412499303636825
Se 5.632339727339231 4.185338970485284 9.650527074751512
Se 8.461224252474612 6.798334073129143 10.822789233000254
Se 4.89253262160229 8.502870725125463 10.515748899392658
Se 5.910822260045136 6.2062084706620535 10.982802578544124
