36
Energy = -122.77654881 eV
Se 10.751207848779497 5.685727330075027 7.415985340764236
Se 9.647705404187352 2.034620688698673 5.206391221884287
Se 8.794116854990536 3.8799286861843982 10.297399667818173
Se 8.862600681814612 4.350756876352245 8.010653637431119
Se 10.568573168092897 9.369860283365815 8.096636528119342
Se 8.278398751206444 3.0096015789902886 3.751667100908468
Se 3.9402373300834337 3.7456643908946052 10.699682038568639
Se 7.437494748870116 5.395671810439799 11.543594887444925
Se 7.436456627978278 9.411717060916855 10.18904551377309
Se 9.741598586215156 4.982401714989003 3.1410538334768643
Se 10.072878951007924 7.708998756484865 6.446570571170326
Se 8.21530734645339 1.8768928511242255 1.438932338138899
Se 5.366389266260597 5.602748845271274 10.443428441629099
Se 8.686171347696472 10.654170684934204 8.576063784962502
Se 4.374473850996479 2.3173362655639766 8.85206883492098
Se 4.044135924663994 3.5514955811514377 6.872343405840543
Se 5.215147984802342 9.404942253309203 9.378034111763316
Se 0.5801818850646216 2.0441718227819465 5.897042803080723
Se 4.8809017130223475 7.761188776739462 7.770720344129431
Se 5.519273553998186 5.779871710122879 4.445200717575475
Se 1.7340273062108917 3.9884880578006783 6.574873802092395
Se 8.898831904001614 6.202509265375428 1.385526561199704
Se 6.397104703761488 0.5539994756273875 1.8792040571328366
Se 1.722187181104192 10.99378672644432 5.868388128687794
Se 4.27178465061235 11.174101287980925 6.166358277708061
Se 1.4867523459885386 8.836938831862604 5.263826624286398
Se 1.4481403040201921 0.33871969772597094 2.596429464990454
Se 4.349699995944947 5.614291764279364 2.5510882899157
Se 4.96277367577824 9.091190515329032 5.656220577843369
Se 0.10835646934712725 2.0242445795970476 3.58462809173109
Se 7.30976467212989 7.821736332026635 2.3083457049184046
Se 4.661002811335678 2.2704797421279648 1.697147168380485
Se 2.721510342652497 1.3135799001384758 0.845909741415012
Se 1.841388865951265 8.784969182150858 2.8120942615802114
Se 5.4656675513300526 7.489709103220651 1.0505677412481251
Se 1.9540955077744722 6.529906978915713 2.536290924592396
