30
Energy = -103.34218976 eV
Se 1.6823957525608138 2.7504556126206037 0.30964372980310234
Se 0.691584869599952 4.900488002102748 0.17483269481096111
Se 3.619803611926796 7.141995532627875 0.5615188435875427
Se 3.4191808098861474 9.382665263696005 0.8478789360374624
Se 1.8102137429768705 6.1180070695959845 1.8253255027671416
Se 7.088583985427007 6.756922043947292 2.7768839886963868
Se 0.12861026592069733 1.38728268873221 1.4444762425013244
Se 6.464159947345662 1.9446241094423693 3.5391283819957446
Se 8.924484084598092 7.7203587326281085 3.917523171427122
Se 9.306754310581406 4.037241002145447 5.134026343539556
Se 4.708757769818205 9.807243650869486 2.9811041105608984
Se 0.030252592534934473 1.9627037201841568 3.7234424671707855
Se 4.593552756578583 3.4362713658486506 3.7021714396052525
Se 7.736292609119185 2.168210682705152 5.4466702157757565
Se 5.136323094293226 7.702820840487232 3.76891608206512
Se 1.8607927721348339 0.9393018892474169 4.819279979625299
Se 3.2525253485467203 2.72703087769214 5.494556210368121
Se 6.1049065965843985 10.454933283935276 6.59979841780573
Se 8.464878559472233 7.337893573054632 6.21233211946867
Se 4.9139411287852575 6.1431997685081985 7.5881267674539545
Se 3.3946221595634642 7.929823896291628 7.3611997973145185
Se 10.790487917155955 3.1821244718620445 6.685716057535115
Se 8.216488713170364 9.518722177804166 7.101231532914146
Se 4.5627713135439265 9.78210771866367 8.25264985695925
Se 3.6551010908912516 3.1085934412017293 9.556600594443788
Se 5.467626808119014 1.8570287660688387 8.585367172601478
Se 4.654637488938337 5.215165392139594 9.765736220579617
Se 10.319114927614073 4.245371457790756 8.819785574108243
Se 8.036845812988672 4.362327451302205 9.210566977372983
Se 7.22614502559965 2.2409213830811416 10.055346437382415
