38
Energy = -117.1905509 eV
Se 5.623412622407905 0.8510938238566985 6.478934264541014
Se 6.304468656766631 3.133621770235875 0.42107585989504137
Se 1.159635758641776 5.580689507192623 8.95565556248336
Se 4.1806533201817535 7.006153622852401 3.245879105663106
Se 2.4213953066754064 8.914822679943727 1.248341510536018
Se 7.836792205933447 1.2653379702915377 6.053690618739893
Se 7.957976624240274 3.0421397533208046 2.331310515760829
Se 0.5823963775279544 0.8081536142399814 0.7744072240158086
Se 8.96567868687537 5.7809797139125445 1.0853805854289582
Se 3.1062021900090904 2.392914101272525 2.177627847184491
Se 3.237092449909263 4.54770913758255 3.717329253714385
Se 0.9088442714280629 2.1487686512634876 4.420058791408803
Se 2.74089445122089 9.45293188774275 6.363495554541535
Se 1.0357021244247002 4.124476483062121 1.1729234775555484
Se 9.406532576828283 5.554362838828821 4.339785943937283
Se 6.973690325596411 5.768847611874015 4.345674361778346
Se 6.603570898898658 3.8233021663131375 5.627954337808902
Se 1.7874184983263652 4.465937647568738 6.782854610622191
Se 3.949382629406689 1.9765917029114606 4.717514908513387
Se 5.883841793629539 0.5351106144414348 1.1458340059344199
Se 7.425287088763718 0.8984249008896616 3.371064965140776
Se 3.467676814669917 4.478169306915492 8.159523721214754
Se 1.7400190782224296 6.738319603298464 5.031145162384075
Se 8.833412463547926 3.7866509695584982 5.564694454674946
Se 4.583774748747573 5.0109973143071285 6.369788668560593
Se 1.9582089177132131 8.919652259122755 3.8015528169002044
Se 8.543227593478859 0.8170433096447204 3.6884780349893362
Se 0.8655975630346119 1.192150179561607 6.651824075818253
Se 3.6348191342259786 3.0332111338985444 7.42043231831927
Se 3.840531744591513 5.711383241963204 0.5132600920843454
Se 1.972066587475025 7.193593973880903 2.362111423317268
Se 8.674589733574892 2.9878180938534413 0.32264419221552537
Se 7.957976624240273 2.858570102498235 2.601078690840988
Se 3.9347841992663306 1.1208365853958968 8.997720514346227
Se 5.224671875359769 3.322706177304572 2.8814514647484453
Se 4.294239204949258 9.111289482427116 3.028528694950395
Se 6.158491765786744 5.675030891907166 1.1447395524409825
Se 1.719764635731633 2.075078472030427 8.789104114153185
