39
Energy = -129.45553642 eV
Se 5.860355896734243 7.3059002155023824 11.318545302340683
Se 9.589177129774782 7.309855308791494 0.11114842276001254
Se 5.509443096158928 8.97143389427065 1.3013631678824882
Se 7.6746553357445775 6.0621106837434615 0.5172919345221954
Se 3.5652146000321316 2.1200201738808686 0.48906990619753155
Se 3.954731843128267 4.255968106294656 0.920202929110146
Se 6.486235936470762 1.3395771645081562 2.603896184492005
Se 9.356910321501854 8.979598520842643 1.94894605608037
Se 1.7960096576743847 7.404792615872381 2.544236358904987
Se 7.5879463139798045 3.3484075625601064 2.6483316987959835
Se 8.042139738270597 7.947251135602002 3.4897162983490166
Se 1.8308860193309648 1.520651677285413 2.3494303674014705
Se 3.1596441141424845 9.158051564274693 1.9368268748972686
Se 10.122744462354389 7.171732194066862 4.566554540408021
Se 3.9532208237625577 3.6037300536972965 4.614788703173392
Se 4.854551613461668 1.5257038951266642 4.433833460285643
Se 1.7806556070328186 6.588100579698057 4.931857572170549
Se 1.7020774360116346 3.5356888838867024 3.3267900159028234
Se 9.400895450472639 3.030546836955473 4.199543940959241
Se 10.091063429480371 5.024930371792266 5.641478547103137
Se 6.410797453410667 8.06180681126712 6.286976203685561
Se 2.7878849816547198 8.650557589692234 5.65685509531675
Se 6.312474091851993 4.245860639259665 6.326235657568036
Se 4.0461229834215375 0.633588913270217 7.328307552246289
Se 2.090346162807198 1.7094517616420268 7.924176050791738
Se 0.8864997962667454 5.44104199731889 7.538996085896601
Se 2.0688502632951975 9.255112673747627 7.7712623143718735
Se 7.340261726858412 2.4694844506986566 7.514091731412294
Se 7.800289439803773 9.186762141925897 7.668066042641483
Se 10.021790291397288 5.039290315197222 8.150383646072994
Se 5.407972975368169 6.159445465285807 7.478146170136147
Se 2.7207365247420285 4.191374157048157 7.914787490545082
Se 3.937088791322356 9.075478739204877 9.234997854802081
Se 8.530803074035703 6.407277016970067 9.147544910599366
Se 5.718956859986231 1.3207986904006728 8.820983887867875
Se 5.398542442893733 4.20337510531542 10.517213646060538
Se 3.675877943853336 7.564915879514117 11.12401432237926
Se 5.742437521628807 6.608034687787031 11.318545302340684
Se 3.180524086338601 3.9691077622596658 10.4725091475402
