31
Energy = -105.03425767 eV
Se 8.99939779525281 2.0370566993174823 5.069660988074453
Se 4.46378468484704 1.5476153536546948 5.817032247972029
Se 7.4277469131685985 10.479806307446115 8.576353084449591
Se 2.6162267322448485 8.925098434061612 9.737623546673191
Se 5.400067905072896 7.627094115312617 2.8534768154110135
Se 4.017699969920248 3.6974127821505096 5.561699770855235
Se 5.376258363261341 11.608377820253985 9.017062520425045
Se 3.5775276493376844 10.394555061431603 8.140889624951539
Se 2.967051285767798 6.790940499149051 8.787424058563028
Se 1.9660831298927886 7.797089193749075 4.391771449820345
Se 7.330252318273235 4.60051366673019 7.60438042266751
Se 6.735084311186806 6.019196843792884 9.417857540626002
Se 10.219534597818447 7.20336294444676 10.889996230519202
Se 8.44661798258427 10.39314955916393 10.731913239026056
Se 7.496748079026161 5.969292377711128 5.696270052004299
Se 9.414949662919778 7.341300302023451 5.974677956544525
Se 8.173487847309294 1.8552686490789254 2.8077256966930704
Se 11.227280375619127 2.5594392064680633 4.656975023220648
Se 4.2939710677220635 7.750987061861137 4.936276943025007
Se 5.969485009877959 9.855695690426275 2.333225034265359
Se 10.050958584966725 5.042069175702467 11.393848788492498
Se 8.140921301496089 10.076755343804182 3.387977436434752
Se 1.1475376683629792 5.971701168326031 5.668595385879226
Se 8.18297038208475 8.306842665508603 11.736245441120367
Se 11.280541164518624 5.936777129853865 6.241369941004279
Se 11.562183544488754 4.8592240803164835 4.158079084170175
Se 7.990351451945499 11.188667517017208 5.338152155305122
Se 5.0090526456143625 4.127478644355706 3.0631397470045694
Se 4.521485922777986 5.551406400576869 10.067815231573173
Se 1.689763445890356 3.9796928966988303 4.622543961274511
Se 5.805534437783287 2.0066886406417184 2.820496812985951
