35
Energy = -119.11648701 eV
Se 9.600717435397575 3.549064364171176 9.025619951952498
Se 8.861684095499294 4.573875860705223 11.131878721875047
Se 6.015862388631064 4.353500357646463 2.2045090794098896
Se 8.922385426920874 8.313596227103186 10.276650293429295
Se 5.461184656020372 8.977162013830744 10.322647546291691
Se 7.581010536516321 3.2084600700974706 7.920012435032841
Se 3.1050113651527567 10.725035871351544 7.838448079543412
Se 4.327511927737018 10.322041549176339 5.840142253931867
Se 10.378463323835195 8.940673427198684 4.7570089743578405
Se 4.329064225728399 5.79586007074976 1.4651290674225652
Se 7.106173113162805 7.816342878661907 8.921499224894138
Se 8.990720275342282 2.918932047248285 3.8456224777872072
Se 7.816625108789958 6.380600775876928 4.823891812672394
Se 5.4746773085510645 1.3436999833052212 10.449734796210066
Se 3.6039608203369253 4.474259075384262 9.74759179557959
Se 11.864758627475464 9.47250890573022 8.345086255869468
Se 1.9698605602763235 12.84994085385823 5.255231911555605
Se 0.968505662592043 4.809896678015185 5.3985183607072615
Se 4.208089867164801 5.072184442543162 7.528999561263026
Se 10.591920771836117 5.866130955762919 2.0018836645344016
Se 2.3087349587095787 6.23304602595408 6.747760989589484
Se 6.349002726489202 4.6781902596778835 4.5769655726663965
Se 9.902361411350746 10.295731959153782 9.383402691185962
Se 2.9019493396539935 9.301945394800367 4.365368993917855
Se 12.594854531704325 6.8105556739578965 2.625287095424916
Se 12.125602365560688 9.099351112887343 3.207687327319608
Se 10.002110465225144 4.850561037660943 4.227694106398698
Se 11.140747807549328 7.9104121585418845 6.7549357038547
Se 0.9642546485153882 5.795205841396296 3.252865835121851
Se 10.723703300330744 4.845471394967647 12.324186087223037
Se 1.4678733422573476 11.299897308418199 3.7512586821673
Se 3.3524122956546103 2.1348364343483404 9.77741978537594
Se 2.2778290098928013 4.623171890327168 1.6884230842590484
Se 3.4368677081417527 8.793024250303109 9.204264652352254
Se 6.760962620849012 1.0522868780393222 8.499827157674003
