37
Energy = -124.89022016 eV
Se 9.70173310880038 5.664101639724299 5.5758717630220636
Se 8.250810280680627 6.642416972857131 7.057857499193454
Se 9.960312976339358 3.3519785839819747 6.435462559202762
Se 7.772988970654158 6.86498307188963 3.302465945841792
Se 4.343722582228698 4.611251633615142 8.87551823261143
Se 6.227806125107096 3.430034210094789 9.85494277008349
Se 6.808966530450056 9.04886341813005 2.8161815555683374
Se 8.051335699122882 5.356096825104673 1.4297955734239962
Se 5.038426159464927 6.75464772159263 8.243645170899645
Se 8.557294031021527 2.0556408384487406 3.245379635577695
Se 4.982174447296026 0.9702403113812411 7.278003941322367
Se 5.210680276947289 1.3469290051909155 9.65881358195168
Se 6.966585042960681 3.387628597647498 1.9712339565650638
Se 5.996180090030889 6.619514108196697 6.0995828496358735
Se 7.214906908229731 1.2091914753974364 4.8840489227331325
Se 4.664368154422552 9.034645815742955 2.122052547321992
Se 1.5157931653096346 5.1921682604802015 8.249173118198179
Se 4.135710398343485 6.279417731688457 1.1445046500493121
Se 3.5216453578631897 2.271331896301964 2.870225407068893
Se 0.6818620514314344 3.049209271969345 8.572814663914052
Se 0.9202566413065785 6.718707148857806 3.357654391098495
Se 0.948267150412043 8.04319885035266 5.187546757279447
Se 3.86069453473795 3.9915508379418516 0.13959522469502117
Se 3.26787363624929 5.922465252327556 3.2721040317704126
Se 3.7596427964803905 0.1953372086519252 1.6780804891931318
Se 3.727072716149273 4.421765715841992 10.296653126746586
Se 3.821156356891036 0.759280798263644 11.937518265077804
Se 1.1304404615236572 2.3091021366415623 3.202030939298465
Se 12.125415560648687 6.151796604881879 6.805493149486292
Se 11.773895075545175 4.600800853929136 5.2692369220071535
Se 2.7763078399190206 0.17337459811814565 7.1161182971497725
Se 1.2438902499884408 1.8994336921197386 6.554095661197319
Se 1.409000049750358 4.7355165702193505 9.854942770083488
Se 11.727562153117226 3.033498824721907 12.329115167052555
Se 0.3544629516406653 2.6885473128859343 10.245953286497905
Se 12.461026093080667 1.371713630477973 1.3887224389072257
Se 7.818530150930499 2.727685480877537 6.867543980482216
