30
Energy = -102.76759373 eV
Se 7.363719790857157 4.563654957003411 10.667303207462247
Se 1.3746036578550447 6.588881912506406 1.479822556568053
Se 10.050638555940312 7.26608818833996 0.6564492025844121
Se 8.841855104463054 9.190935316812842 1.3419135514869618
Se 4.846460645567823 8.142513279600543 1.7185970267721045
Se 9.151428678826642 5.241486273197855 1.4201442102533834
Se 5.523901930214115 4.4849301236858885 1.4595629313695524
Se 2.6533985645976728 8.219953632556708 2.6028920579776678
Se 1.8822872323438777 4.411276748247621 2.224550240842269
Se 6.132913565778602 7.182179954636895 3.4858414185064683
Se 7.645748099177962 2.164927172904423 3.587143647802422
Se 9.174842644529612 9.366249937515875 3.6601522035542344
Se 0.5936833428217124 3.837103679912612 4.133778746932168
Se 5.623411824251652 2.2840803659387765 2.3732744559113605
Se 6.952119497024448 9.141220093987968 4.530161566383372
Se 2.146483282304328 3.5414050037560356 5.861695204400467
Se 8.136450892150282 5.15961444172478 5.3533075418990475
Se 7.314635441734354 2.892042075276428 5.813344679817515
Se 3.2350927260079962 7.785228722831789 9.387221106719194
Se 2.0433903526498027 5.476590397185183 7.3093084189162
Se 6.460128187463605 7.748057243491376 7.653988258006801
Se 4.186332273720683 1.1028757911281497 8.675246493452056
Se 8.342839926909516 6.383901428975246 7.350214925779731
Se 4.910736781594776 4.435685796419372 8.026109009177496
Se 6.212893723892263 1.4072056009825349 9.74318008653917
Se 6.943767629885425 3.6282085011931366 8.85645350919566
Se 5.112116582396625 6.5739560821683245 9.428065129962276
Se 0.6758086496741518 4.6706358686408604 9.069139075936375
Se 2.452173161280452 1.4739841453573377 10.272816959377204
Se 2.153527615638042 3.7725176255736725 10.667303207462247
