30
Energy = -103.40332085 eV
Se 3.7532278076818946 8.064153486929332 1.6328708950429727
Se 4.800148210658655 6.282234190487946 2.7158868218364094
Se 10.005152245572095 6.913527467215623 3.442979764942284
Se 3.7169669158728587 9.795303836521375 3.325009324125766
Se 2.741373545985244 3.199677105209169 2.2511009314056376
Se 7.397142030249362 0.9593756014382934 1.1203172749166401
Se 7.922163202125573 8.033132566588048 3.284849490379375
Se 9.799895074972747 3.9517878670296613 1.2159496476647627
Se 3.2057424599897124 1.4631377545403343 3.7804610582539144
Se 9.693493978751409 4.615198620934161 3.5595419002057134
Se 2.8834488728412992 5.149352438253221 3.596885574515493
Se 6.910026974667012 7.533685670762793 5.402441875880099
Se 9.671385219934908 1.6475819261361009 1.4035791746204895
Se 5.469793300167071 1.6364409566158333 4.412028318955229
Se 6.674871010444697 0.031191804180269008 3.152227966189071
Se 0.5436677719479089 3.6408868511206514 5.624119592211063
Se 3.146381653564184 8.928973735342156 5.384442035455438
Se 3.8125742851832713 3.4146274407692694 7.3837104119593855
Se 0.720650401471657 9.010551459637952 5.641227613378751
Se 9.8513259583481 6.088006003513314 7.021833749587436
Se 1.5157622739397851 2.8070931643767003 7.601073199391402
Se 8.594538880027594 8.115302279566606 6.922512444958383
Se 3.755957763391879 5.711630952194879 6.911056240417031
Se 10.005152245572093 5.3970872338031635 6.291060075409166
Se 0.20905274791758796 7.304902764863928 7.158867438735667
Se 9.642636448000072 5.179093586433161 9.181196296726185
Se 7.547991516636973 4.071607974572843 9.340060015538233
Se 3.42509835228968 6.8460762453874855 8.9769636611503
Se 5.5833474206966835 7.295813853392996 9.80747730926844
Se 6.3706559530431806 5.3715896590203 10.91729439371753
