31
Energy = -103.99507884 eV
Se 6.526514210374983 7.365793043953882 2.9058185049519762
Se 0.778291566955662 1.8447523681184719 7.189615146691819
Se 7.856647628608987 5.168694652054207 9.28862785881555
Se 8.238298397122223 10.070885532540682 5.218838671995965
Se 11.343300401475588 9.017361384362978 7.478590574476213
Se 1.2545423180117987 5.038742830587097 9.13211034814266
Se 10.177436438693764 3.443860917545474 3.7525842491384362
Se 9.795582400610025 3.0564285210107314 6.025085532829279
Se 2.1961444180256593 2.905878930343144 8.81731849320985
Se 10.076115259999098 7.270126445392355 6.927639873128508
Se 1.811333013865382 6.544996521161885 7.442683921849161
Se 7.834183412883303 9.461296642980026 2.6582132130330827
Se 2.990272983460029 2.4945582745790205 4.103127743340079
Se 6.723329074577198 4.835510662331285 7.243319406747423
Se 2.232245899300748 0.8093695559127144 5.724099849085762
Se 7.489000918085985 2.716870285855869 6.482002466475423
Se 3.61306102419385 8.234610057296873 0.8008711456668893
Se 7.701677155639513 8.182067179203731 6.3056597942166395
Se 6.0196714502653155 6.691988448132606 12.17012605009663
Se 4.298490498985302 8.116778612914413 3.0266961635393
Se 4.444984717158813 4.650448694634719 1.892637883904248
Se 9.7680350617934 5.78018001140813 3.269232037361534
Se 3.9827985800231933 9.123881205096252 6.178656234459755
Se 3.5056572385382347 5.819764082758005 0.22967874887028022
Se 9.727770743939566 8.754282537448073 1.6942083984515264
Se 11.12143345952197 7.034649617691053 4.687244975086267
Se 5.194111785536508 2.054402121403862 3.949520494406064
Se 6.46040629514779 4.628991151268525 11.134306157975141
Se 3.941601248336215 8.94246425677438 9.885981116775705
Se 4.072497331525734 7.571060404992161 7.796845575927356
Se 3.815615075684545 7.360355058587942 11.579709377691263
