39
Energy = -115.02010755 eV
Se 8.31295118027588 8.48040829827047 3.3494775530672407
Se 2.6200149461033106 7.061750703252875 3.3900514426450368
Se 6.149788138699177 4.242514061456889 2.3410487350038838
Se 4.833853299240809 6.32791185283437 2.5393640748232293
Se 5.894066380574925 8.781931476533721 1.9854977658828923
Se 9.822545390810989 6.500565742490935 2.6259018697957957
Se 7.776797055100457 5.280308236749619 3.8285337611937877
Se 2.2059388154370563 9.849908350431622 3.8170469878924975
Se 8.076570957950526 10.272262995229882 5.188197111592773
Se 4.607326558375842 10.062362253359604 4.136175882952394
Se 1.1381958166220256 6.011032356150198 5.35393172542293
Se 5.866678370699209 11.667977623291002 5.82886456652877
Se 9.980271748309404 7.032551695522116 5.101941309492897
Se 4.836985596123883 3.390501124966669 4.185380559477363
Se 8.75173855052954 3.4535079762302914 5.296021079695651
Se 4.831714134342741 5.580824152030527 5.9876821732209455
Se 6.596471420593017 1.6465968231907098 5.577177266357805
Se 7.872086378840802 6.036531911992045 6.487017554162626
Se 11.926848819629688 8.440122610957237 6.727145011839704
Se 2.862426749006056 1.7226891037868988 5.045976842293609
Se 2.456259542010905 8.366643507775548 6.196406713981948
Se 5.973269935488064 7.344345717507694 5.000410164603677
Se 6.575935145914504 3.991837504010825 7.340142139269521
Se 2.317800269242753 4.156484866217797 5.86739394141097
Se 9.760310667078677 3.7536322458474163 7.6172534216277485
Se 4.511567094476728 1.7922170414467895 7.274975694394871
Se 10.90869206771586 6.400428802149704 7.854743773219717
Se 5.462755040244092 9.172793223788064 6.904584264340362
Se 9.373538057171839 9.268709995550218 7.042411374879316
Se 3.325641012509557 9.093706874776203 8.331321039340157
Se 4.084338831926436 6.70612171525479 8.427901484015425
Se 4.375023171291737 2.3677594526694934 9.778589254326473
Se 7.168382194439346 7.943813306068331 8.017434582493348
Se 6.6334208482527455 3.4082583336964056 9.792321103520942
Se 6.221598791648843 6.027988084121448 9.934103106144189
Se 9.155246206004453 6.025149629288278 9.847269379197556
Se 3.1941307092529545 4.232169840906247 8.651832646744722
Se 9.14323931363665 3.3548514241873857 10.086844220810464
Se 7.803888418331043 8.15913670991057 10.649936046238619
