39
Energy = -113.82965118 eV
Se 7.706263441575909 6.976504929895926 1.3124622348410238
Se 5.207708916815944 8.370514739018668 1.4613295489286937
Se 6.865895793484922 4.457958127334564 2.0631364383426622
Se 3.2422655382785575 7.165648885570363 2.8532889003073834
Se 2.0894583375657336 4.78392094971026 3.250573236111399
Se 8.769064503756905 7.81297647933925 3.7595411135608625
Se 6.173313559826027 9.60572805501963 3.7439879994556593
Se 5.880066828565081 6.51007809412891 3.6488720021050436
Se 4.551292227491555 3.5030148694496868 2.6125594671436185
Se 2.02821805631286 8.489162012210302 4.545962738891438
Se 8.675986871373023 10.089954754356405 4.292750188406709
Se 10.358507890517531 5.534911579764528 4.709037307444819
Se 8.22639707063934 3.5838314824938298 4.178568561979737
Se 3.9785270311487744 10.925543188996766 4.707139062159792
Se 5.175393345354149 2.5457292961349625 5.081710653018423
Se 4.350942242132113 5.193398728606242 5.1668877934421245
Se 7.593058017929831 1.3151263722606843 4.670214912199034
Se 4.699395534626408 7.734579490481404 5.663173396033729
Se 7.3708594199409925 5.771894414892725 5.528843618617311
Se 3.3097958802199323 2.5573713280607455 6.867075452774002
Se 9.88339176367668 5.458479103890496 7.214141071438287
Se 7.680370256022974 1.6646026798477014 7.122472428943728
Se 6.875460750979339 4.644915907103248 7.635501951677411
Se 1.9938651592916026 7.316311536604234 7.11758092476273
Se 5.197901162457783 10.732951908419766 6.99544444365333
Se 6.774905815225849 7.73812297446871 7.054248745448842
Se 3.2661259053913025 5.223009285228173 7.419628698033895
Se 7.916868011583686 10.330027354844315 6.6854290026990855
Se 5.205191567796512 2.2732077521250638 8.499742263930727
Se 9.700047232141221 3.1629057296560728 8.606133567527863
Se 3.709840235045217 8.698223986202297 8.606594303580147
Se 10.525956059546308 7.3649182638553174 8.689172705142486
Se 7.730347651514595 4.241138617717171 10.401498929425733
Se 4.81214131436867 5.400070677270254 9.235530560077853
Se 8.5656708131193 9.174210301322079 8.790974806341163
Se 5.719797938823484 7.756550882296886 9.752566515988157
Se 5.23734364707741 3.2197464610942483 10.940502774751993
Se 8.442041698504564 6.506094454589282 10.542206289232402
Se 7.306141989187452 8.962483825048052 11.369334870891358
