39
Energy = -92.15925638 eV
Se 7.428792487051583 5.026482420233398 2.361384803012799
Se 5.429385213754744 6.285568557126943 2.275916897201301
Se 3.5224641726011123 4.701441042585584 2.1613161829654883
Se 9.880774755510739 8.316100906338683 4.003911241121622
Se 5.517298210347196 3.9339103292040623 3.3051977674043123
Se 5.542073953787552 8.141069562000816 3.7532111965244668
Se 8.779380978693247 6.067859677577794 4.140119227696719
Se 7.627217742747618 9.301473053452241 3.865864999963709
Se 3.5920752181019933 9.5363681536143 4.213820606538829
Se 9.28254216667281 4.689415062830182 6.032905405690096
Se 3.4397199960427827 5.292863899806784 4.530554515405588
Se 6.018091546611254 2.126011611540353 4.850023910523337
Se 3.4207424832301196 7.503422288045661 5.443850904396325
Se 7.073270475605494 10.619063790941585 5.732944990069538
Se 10.787622795628161 9.240556914214478 6.248686487302581
Se 5.639652605644156 4.543496365577619 5.80867106285928
Se 4.863279910263109 9.845848792311136 6.249851862163236
Se 6.863984944179078 6.713726226157493 5.526659688151492
Se 7.542448587421428 3.0711228911017616 6.510319702683722
Se 3.3146424692045797 4.25312577232164 6.74283818450381
Se 8.411652363536033 8.532142667214247 6.243631400673884
Se 8.99194794842883 10.851843470829577 7.175926002612554
Se 4.637001493062065 2.3099059305092826 6.791185942467966
Se 3.123638350604349 7.372283869042551 7.800451660068174
Se 6.448969060404332 1.749453673306216 8.374211100357773
Se 10.492222610892219 5.2683615093053575 8.01294913228048
Se 5.562081567639962 7.7005599520750945 7.3992753582958
Se 3.9329221339682654 9.58868721160052 8.508290200641326
Se 2.6462101636847666 5.244759822931057 8.875986555925001
Se 10.194660688045143 7.690553044712862 8.090816513838224
Se 8.118326903160764 6.119562848001698 7.810084368214114
Se 8.20827217611311 9.538217200768782 9.04081142056307
Se 4.991326122045109 5.8180008254942805 9.153806126451373
Se 6.683467927929532 4.118576292392608 8.656153655469689
Se 8.882756132400111 4.584976601233433 9.731041517844627
Se 6.002254032224067 8.754441072892838 9.531559634144564
Se 8.121510965221633 6.808080620863053 10.292915956156385
Se 9.887221653694665 8.52505323642236 10.368458911661257
Se 5.868573209718039 6.98608904929295 11.154871122025979
