39
Energy = -119.03288406 eV
Se 11.29389389974361 1.5525716535197494 3.767646751710522
Se 8.301820765841933 2.832895814824063 2.162162595485
Se 5.434417129589801 9.527036217758438 2.2575721407147236
Se 9.672372131187055 0.5726354640989509 2.916767917715273
Se 10.315411558132233 8.704341687349773 3.5202798687226835
Se 10.529388259770917 4.266486697222055 3.535108487410911
Se 4.497326305691589 7.512924493144749 3.573415965758854
Se 4.287282676099595 4.88987602060076 4.371158676545669
Se 7.7411438267409745 8.17411853426069 2.7547248667747586
Se 10.212379958668272 6.572723723478483 5.054901850969597
Se 2.794418831571677 5.176177047190339 6.158849421648399
Se 6.246524684704582 3.1095403126804735 3.6392479726326137
Se 5.820731077954771 10.531081431521086 4.6075848107585164
Se 9.243134065687357 1.9718270133197697 5.691146475695234
Se 0.45806273276340576 6.381252296546941 5.458591385155839
Se 2.3438697536436357 8.004174890722313 4.751378194930149
Se 9.32445976532046 9.845873811462434 5.630264228942881
Se 7.328367519574967 11.860883433884508 5.819797184223313
Se 7.1559341415220095 6.254592257727947 4.073232192239192
Se 2.1136247016039826 9.556265099695464 7.212596163098408
Se 7.554238492212527 6.297837558102807 6.534364185251888
Se 5.129290949091093 6.506868330741506 7.802474031060017
Se 7.44590426550989 3.2240289480371813 6.3650856527471555
Se 1.1988140369038105 7.625176229252953 7.581280174281555
Se 3.364414408076341 3.2406800280662456 7.607929852937431
Se 9.181602388805912 8.406287978652617 7.780171945494203
Se 10.703740781137274 6.258490319990128 7.4579040954777485
Se 7.0085947867209155 10.627388899610027 8.135755070416778
Se 4.843620552607415 8.692121777813728 6.621069787387754
Se 5.515165173071897 1.917818126279205 8.053810345447404
Se 4.64613027818391 10.427845325716234 8.84215795662339
Se 9.14138226251662 3.893256175973507 8.421564786373857
Se 3.0086539047872787 6.02877186255946 9.735451834637908
Se 5.402751303275641 3.4368550025509523 9.74537500312266
Se 8.535022207897654 9.786634316656897 10.202184811316968
Se 7.604007370756748 5.129309982891485 9.815114362293533
Se 2.52070174011722 3.8902876673811186 10.590140487828535
Se 6.98152985830897 8.129086144508772 10.442376624820751
Se 4.09981844140226 8.183924411401723 10.30930882854363
