36
Energy = -122.48786017 eV
Se 9.184633250254134 6.155713386934896 11.900043485827396
Se 10.463741511079599 4.994783850902221 5.232359678676174
Se 9.86329309545506 4.5022487544767795 10.442042312695982
Se 8.573945786170011 1.5563970325307872 8.580621189990143
Se 8.406010086553312 8.001884176301168 10.562267536206168
Se 7.09226751228418 6.369750247984159 7.212823462841817
Se 7.899998384948837 3.0421371429830164 10.226241939062215
Se 9.714103927642606 2.7546208667455763 5.109496245915135
Se 6.230753598522704 8.541559254713977 11.189901871389118
Se 7.832450567968037 2.361008307077745 6.450450357686442
Se 4.70240450894486 7.37290321972787 9.738112666336685
Se 8.9712531066311 6.2085328867627245 3.8813684961250057
Se 7.872633498574699 7.656485989592909 5.482492666681375
Se 4.810587128906962 5.5376606401238995 6.741787920466095
Se 4.740243398234685 5.342259431346083 4.42450227217512
Se 7.172844702685066 10.383371620439751 3.1772822426702207
Se 6.286774838288072 4.883383617781479 1.998108045376839
Se 9.021660936430232 9.387266627289783 1.3394883352304916
Se 4.178534924785015 1.2639330963975621 3.2592236230596185
Se 6.649984530989029 11.56066191394024 5.301576692003986
Se 4.245300137603166 4.116394703628015 11.737811145833177
Se 2.601852816226644 8.406186308384811 5.099471341839272
Se 9.352781450970605 11.218992318459923 0.01768100545097192
Se 3.2350912329759365 6.196613029231113 11.124678786107442
Se 4.498094341444554 2.8089836151443177 9.843700318617655
Se 4.339407953696322 11.662054865099813 5.726600598660069
Se 6.869083909580027 12.481326690111107 2.0190482113866843
Se 3.8008576910293996 9.615691923402624 6.770260307569746
Se 2.308847061147794 0.9495007479259524 7.470822005999871
Se 2.2502367374173926 1.8255100251806595 9.573018840116719
Se 7.062206336810974 11.902995520402277 11.900043485827396
Se 4.163651969497553 7.602709825925058 3.5973934178817966
Se 1.8776046099108412 1.266820453051322 4.019600084679098
Se 4.388744959841506 4.297690798105159 0.87757961908788
Se 4.1583614016038455 1.8887669303726549 1.0253308358370428
Se 1.6943940675544769 2.694411583272014 5.825244276753957
