38
Energy = -115.92400776 eV
Se 8.036451446109265 2.2465876108394034 4.765398304582003
Se 5.584362184575685 5.3566132634565955 8.710504717228467
Se 4.512201553203548 8.48223847420761 2.3170957972915236
Se 8.180850303579275 4.6350578724119345 2.645058026883592
Se 3.482588853068579 0.7903240137995822 7.153983085112722
Se 4.725682387170649 2.7987684923223184 8.208705680717703
Se 5.915983475666445 1.9620875613064386 5.893241261738863
Se 2.4019781183907223 7.980892834623077 4.864888379968022
Se 1.5841714384162489 2.5026812259721054 0.3058391427112733
Se 3.1958077252245016 7.003852681152134 1.1811686086639166
Se 8.137853064620886 2.4661728769378817 2.202387740925481
Se 2.0942828164947795 5.86879872245672 6.338836280486949
Se 3.3781937589209536 0.04684725996658927 9.085840778600371
Se 5.631751143341266 3.5115911898049226 4.125709561914663
Se 1.7088797510845417 8.563745643439704 7.016084827455266
Se 3.9104847589011893 4.991678858494206 1.2320797490602928
Se 6.573913781217639 1.0980116569240013 0.25840341477136936
Se 0.3399740246757753 5.813206402891768 1.1926720660229082
Se 5.3118566480854605 5.446067559470057 5.494850272902229
Se 2.2137296423514066 3.2878546057008275 3.135964926350396
Se 2.4695014452610256 2.312493746171652 7.450114552448966
Se 6.14465375519632 5.869987451796073 2.5534160636744514
Se 2.5844026485171328 5.098486235536903 8.414285033534142
Se 0.8868137390783287 3.438976385419369 7.100536863461145
Se 7.064532056905715 3.3970552996100056 0.9176838726138453
Se 1.2357249632895309 9.131274783934275 1.8638723471095597
Se 3.2943878650401603 6.772191254732492 4.366950215935416
Se 3.200591686879531 3.7866682634590023 6.710117172305996
Se 4.45098388988348 0.025121469870599118 5.035055950889996
Se 0.7721626906453877 1.165270805541831 4.395207476351049
Se 9.114457859593184 0.5877795951458504 6.585099297761178
Se 8.036451446109265 3.7460548768304114 3.4632626388228185
Se 9.21566506947835 3.715457001384921 9.214067281462683
Se 0.8677978713301915 6.928348962095099 3.4618439316632603
Se 9.507631624218424 5.087398360747949 4.928276727551374
Se 4.548046691554397 1.1190893936023163 1.5460269018892294
Se 6.882219525949662 0.670331680651598 2.9546562460188013
Se 0.04734460697771153 0.45523715036838264 0.1551811141250292
