30
Energy = -103.96008902 eV
Se 5.149607587597185 5.440643659740383 10.354519109387379
Se 3.5026378201220365 6.3651934109279855 0.7645104568873405
Se 1.5888404937167986 5.066080851229013 0.32228650926895136
Se 6.92097647236654 4.654483969310003 0.6452863725070181
Se 10.100458441250911 5.576699886930568 2.749399321838604
Se 8.465133096799448 7.240677825674614 2.3415435054538207
Se 9.599598562460494 9.289862126569801 2.663934331620317
Se 6.390083144984627 2.5110818576293608 1.5495679825192787
Se 1.829037805464368 2.9673107263966827 1.366145669468835
Se 1.0482321547496054 3.169856277554298 3.58163605662213
Se 2.9459452060123374 3.5597528245995633 4.931587027855407
Se 9.517881834016363 4.729857155342064 4.880069791186774
Se 6.334885259808038 2.8585335788680557 3.878520477613382
Se 9.823972855079367 9.748667862127267 4.9654258518395595
Se 8.610377294191482 2.585872476681024 4.5141298411123625
Se 10.980697172579953 4.5278040146263265 8.636111213042525
Se 3.3719115560442927 5.880053489650744 4.935378513613479
Se 0.16942536329769256 2.5033739648276296 7.464955124351211
Se 7.965450314020388 11.018026127380075 5.688613503130703
Se 1.5804799195512254 6.85491649031031 6.124330177483958
Se 6.439848334356147 9.58619707503924 6.774059687129025
Se 3.448766501765665 0.5258217332445554 7.5895430328545235
Se 1.412244275862413 0.93113918315131 8.723297861960052
Se 1.7857546739365042 5.9775721723500865 8.311389712606584
Se 5.108849082232647 5.265900022525076 8.817963957510385
Se 5.968732807720463 3.395102998406803 7.631808185449895
Se 5.272346464703541 1.4460974175243082 8.769489110741493
Se 8.276625517591846 7.384368245325853 9.213742630692785
Se 7.195069426822289 9.472242502872614 9.011926685045724
Se 6.751821371075707 5.986802741646466 10.354519109387377
