33
Energy = -112.55202778 eV
Se 10.43963503046466 6.496208182023915 7.836312418722987
Se 10.815834778990011 7.3483330488453795 9.96189365382985
Se 10.528926067335567 9.70445969411959 9.913363164072747
Se 9.464345326397304 4.7732423757973095 2.783430796215432
Se 9.385712510205042 4.617606347750192 0.4054765629476783
Se 7.476203356674933 5.819389315662128 12.68590541406975
Se 7.985202663928022 6.374135885775066 5.3075201880528775
Se 9.135843715802336 2.5686085198766806 3.5853816329665102
Se 5.635168250414976 4.268572263976794 0.14851063744234885
Se 7.783321567049239 9.462668264690153 12.490026495730477
Se 8.189726945890838 9.932064813191145 10.217131256961885
Se 7.99807441730416 6.538373656274299 7.629900874365523
Se 8.390134189327483 8.558957661333002 4.370543906874901
Se 7.51473577565357 7.11539165814489 12.679854980543405
Se 6.928681065783867 1.832098226841608 3.2414965332299306
Se 3.2706716534576197 9.1013322922807 8.339461441184765
Se 5.443563399174289 2.52156299809132 4.959505898104848
Se 6.6107126543583705 9.004588601747637 2.904809584114618
Se 7.156417194968231 2.549572203016731 8.210158608160697
Se 5.926321082442253 1.098235121565698 6.7729362734897505
Se 5.443225094910712 8.8379834588813 7.961521168938515
Se 6.079801420403712 2.520375263143468 10.293557290628243
Se 5.191667020972267 10.710326052315764 3.692293213637957
Se 4.1337275459536595 6.167854539882086 4.0415706881994735
Se 4.009732683799649 5.454968920224892 1.194625918059167
Se 4.059457412031304 5.803401919637987 6.638026584460332
Se 5.197250410054811 6.705167181711913 12.68590541406975
Se 3.316809007984543 9.826927050221299 4.869805311060989
Se 4.611008712837575 6.156053907017074 10.449878357654105
Se 4.121580545102623 3.8506599240692183 10.378203305757356
Se 1.9244600172869992 6.619287742997138 3.6272119185190297
Se 2.2496020354195903 6.880485757610519 7.4078708557520745
Se 1.8264283458958386 9.04626982629674 3.270662950578943
