34
Energy = -115.61901483 eV
Se 12.233061947158427 8.07737977070719 11.082151517329867
Se 2.703925551907706 9.779687189137107 9.903624120392847
Se 1.6430649022191253 12.052008572471609 2.8320482276141283
Se 11.341115866397388 5.658317684650517 3.473767693801597
Se 10.986560863667776 3.044389860226036 5.8681210755284745
Se 7.825794298826507 3.4510115391580456 11.443307814515315
Se 6.177424745192883 10.808205338136212 2.2743213742115094
Se 13.301538482764805 9.097158585339265 9.143130816349602
Se 2.7397348362068277 3.130256511331411 10.692052404030093
Se 9.432962021783508 3.5545912653111156 9.632897461323404
Se 1.818713233482457 5.261524639504761 10.422225021472897
Se 6.609191535060816 6.6580998309957256 8.534120549992352
Se 4.613765879155818 2.9064867366506215 9.224204924228744
Se 2.000553659977885 8.568604658407859 8.015996767630048
Se 2.4256578300548925 6.767244588367255 12.162530094729258
Se 3.0401225400707785 8.655279999290787 2.217600121263999
Se 11.965556311116414 3.8073692321377584 2.3101252875042935
Se 6.033478009804755 10.4789597546246 4.55741846929161
Se 1.5690802682652345 10.123844889298452 1.2209776807185622
Se 11.668128430803728 1.9680407614926365 4.059069754981208
Se 13.034854871098053 6.239429293777959 6.786249974000341
Se 2.5926169179053717 11.338992044323533 4.700589097688231
Se 11.92829668736025 8.287952803695461 7.459554951306301
Se 3.8641306999955782 8.40800713602196 6.493661519171067
Se 12.079989184840509 5.871888815406636 10.441224282934545
Se 6.744410263286178 8.924590465694784 8.765696482744646
Se 9.9688606074598 5.755633297549971 9.17493984468957
Se 13.361102003995194 6.527755880643236 4.503555317533533
Se 8.474413577835652 9.815504825432432 7.280480696669055
Se 5.186647237100939 8.884999307486915 1.2551283718050936
Se 6.299521592339094 1.9200806515064586 10.544853936040594
Se 3.972348606284672 8.252194066786636 11.196316100250957
Se 7.948616834731761 9.06490688457378 5.174628644570868
Se 4.887972909128878 6.366281940730066 6.738487535895782
