31
Energy = -103.38764357 eV
Se 1.512562785997155 8.525347605466541 3.640032896864447
Se 2.034044771173912 5.6793779225185865 1.1980803433753107
Se 10.292398007053272 6.705210940958209 8.804294625769431
Se 4.747946149011314 10.505386870055704 7.551715668663314
Se 3.629077017985838 7.731877466444292 4.9622824333944315
Se 6.865998324757975 4.943065568215612 8.501908853542826
Se 7.931382968240472 4.931216334114958 3.9116713700578214
Se 7.222312609773834 10.744383123790227 6.772551904023716
Se 4.295743230629757 3.272126447267009 6.288132599257584
Se 7.038197602435569 5.247940152129181 1.7806160036592742
Se 2.108387943370697 4.60708022298828 6.298051878287754
Se 11.088011164401648 9.989043572902505 7.399243789201917
Se 10.579253291556537 7.774975324220783 10.811578667869128
Se 6.2830092608003 7.335562360653798 5.661374865813756
Se 11.109693147147054 3.477261700765585 5.177137006023976
Se 12.535891076547648 4.834304640465687 11.234415504029755
Se 7.013758476624174 9.39743808505771 4.86267161055653
Se 7.215485665349448 8.212087161077498 12.344253145582208
Se 11.802264800399396 4.68365581780914 9.153917894995502
Se 9.118598217962449 6.830560690610072 12.444215449903522
Se 5.328306448809338 3.6452324470665958 1.3931934731692963
Se 2.661479224614755 6.712249243179609 6.987047248684547
Se 3.514368549775626 10.110981923380255 5.681945527430555
Se 3.4655045042813124 1.2376543827788673 5.932508541901427
Se 9.921353677098159 11.37317901217646 6.122964264273777
Se 2.587166567205206 7.942976307375307 1.644850663666006
Se 5.115119531346397 3.4235954938943722 8.656018512746828
Se 5.939712694389743 7.103210675434735 8.939334960658641
Se 5.49562976328918 7.006086623830964 11.270844263249256
Se 9.653508959771866 3.207321499159963 3.505097729042237
Se 3.3858111292772395 4.301587945288937 2.560025865383001
