32
Energy = -108.43519488 eV
Se 2.972879652871728 4.233157666322033 3.9409038243803463
Se 3.8012722244053054 9.524140463195033 4.600205962179625
Se 3.280962871248612 4.948541543999588 6.109409001178118
Se 9.893668943028674 6.705904085041776 3.1383743071382115
Se 1.0036042393467457 6.260845349679293 7.971138641282253
Se 6.953115465536629 7.503508468825812 5.407698681682272
Se 8.043740803595748 8.820065992186592 12.094854580203359
Se 8.340149607278834 2.9441781405766787 7.91336056354395
Se 5.893875143471816 1.9120555935457824 3.2102916319512667
Se 6.474865740568214 6.643554040018742 0.37994106070126404
Se 5.835352300861108 3.0593120213846166 10.906211569324133
Se 6.0040784690400555 3.3055986287766888 8.709452428929936
Se 2.86786395318592 8.456590497401942 9.732534518623508
Se 0.5569428635110132 8.186597288146896 9.24866723723413
Se 11.040370106114098 8.83752483915446 9.444696049597372
Se 2.3890915429838873 7.306986471655768 6.207640939849646
Se 4.57252241900611 6.961605481089717 1.6561906059158604
Se 10.346923050624362 9.100460289063207 11.673690218869469
Se 8.021513310270125 1.9233592937950734 4.214714643871711
Se 3.561925793969144 9.004268626325773 7.506162954998302
Se 10.745639144962222 10.914242993278734 8.314364443642443
Se 7.987506847029162 1.1543099412379985 6.473639055147441
Se 5.212376144255606 4.19022727358913 2.7970600818101277
Se 10.819250034573065 10.05081378739734 4.674510750397826
Se 9.350181749882148 10.398245048432157 6.492402722697145
Se 5.561006616582967 8.521696807015983 3.498634928455655
Se 6.147781151029923 6.032565603845086 8.555151638027096
Se 8.160411376371266 5.779835713600047 4.5002123222618
Se 5.654780883115417 6.350877684610172 10.743715049685221
Se 11.410823629170409 7.761690419002373 4.603208094638993
Se 7.602201958076904 6.49050197967796 12.135907964327107
Se 7.5055026339784785 4.7289186380725186 1.1572341973997342
