37
Energy = -125.86290069 eV
Se 8.248680224706328 4.592714727240952 6.225646030839778
Se 8.756078444928733 6.12194235481057 7.971090274835097
Se 9.767073897735873 2.7403652123460356 6.172155354330039
Se 8.595669534731348 5.052292376928318 1.6854884668719954
Se 7.3595456600348115 6.133291771192339 9.91377915630431
Se 5.745506405516919 3.1366519698483546 7.720466635576523
Se 8.374634197570979 6.989629046105908 0.3033290936976598
Se 8.325988243451343 3.304634253291782 0.15593532943674324
Se 6.191525453970621 7.365305779990276 4.806411937228605
Se 8.445719487120549 0.7633290919094718 6.220462661345508
Se 4.2019433155299755 4.154624893736318 6.081552653439642
Se 3.9395304967217104 2.4829866306411845 9.111858197938817
Se 7.835778958031202 0.23558080555176708 4.047076159162817
Se 5.374200737126073 5.1746400933547125 4.320482913460225
Se 3.1612389135094676 0.42215377751723765 8.26905702386291
Se 6.335213410630218 6.715947394877431 10.073467246717083
Se 5.553268788840305 7.552813162302963 9.574612334208181
Se 5.974509523701474 3.0179157564599737 0.24251912594854239
Se 5.62959640790398 1.264733664984801 3.6459755248461905
Se 3.698288260719692 5.932931439225864 9.545340889929337
Se 4.567434825473497 7.747008291352689 0.42014686284154307
Se 4.666031715502356 9.025349171342814 4.122934499676127
Se 1.4180790190792343 5.8920860863751985 10.807923616133252
Se 3.187549827789626 6.146609837589405 1.482631595351017
Se 2.920080264903575 0.0941970787262995 4.630851360737725
Se 1.364085760317778 3.679335171424402 9.91377915630431
Se 5.607098819238728 0.9473340584176736 1.320428730921967
Se 1.0665571127899227 4.467541018356427 5.449700830630967
Se 1.499548888270486 9.455655101486002 6.2764299803693655
Se 1.1657831388512792 7.235695713730004 7.007321612579
Se 2.028883332700272 1.3227929696389635 6.299790811369434
Se 1.7646236088697773 7.1588284772469555 9.3518855663237
Se 10.04538691524748 3.1609535671839373 10.473826397653664
Se 0.6238370967139831 1.5679898544442552 2.888515930036469
Se 9.946198368018122 1.3358149630387168 1.1523717029074458
Se 10.544506599498247 2.7887149672149696 4.797180190073338
Se 3.804381720842696 9.926309602155985 6.127417270879978
