30
Energy = -103.36392358 eV
Se 10.035490434985824 8.520709072365705 0.7983646838054427
Se 7.723869640283737 8.48392937966639 0.35592400622460885
Se 6.9929758409983105 6.237341189784641 0.3143219211548317
Se 1.8075063265490694 2.4076550831997925 11.261310273873667
Se 10.440049272663995 8.249532783159864 3.1064513896464474
Se 0.5694547463823249 3.263046403134223 1.5229523250568977
Se 4.042535437070232 0.28163243126539717 1.8932616178542536
Se 4.0379443036323925 2.1001472325287875 0.39226985810576326
Se 5.662349514999231 5.978894952133943 2.2524778594000594
Se 3.7599496190631245 1.3636878329131343 3.9762784599362613
Se 1.2601564342451297 5.490893457483138 1.810595379997907
Se 9.957344779979097 10.329975167185866 4.118986666226209
Se 1.7314416927965712 7.067662474494317 5.160962073222808
Se 8.560449660600428 9.942065720342184 7.566849208468807
Se 2.635651660627465 5.415254778596396 3.7703710768349956
Se 7.930137069190564 10.016207078290778 5.288771808325473
Se 7.31787858147333 2.861363901889498 3.5868177096537357
Se 7.032767800461744 5.174102936424557 4.0063945504280225
Se 5.932551219150348 1.5207397589425824 4.938970921003953
Se 0.06797186317481067 6.139274853768197 6.593784741459538
Se 3.5609425437367976 2.585336902841965 7.2191436740007475
Se 1.490141331148674 3.0063259237362834 7.960761470262261
Se 1.1498136262505283 5.400325250351333 8.517780807308677
Se 5.8415342528322265 5.393751956350493 8.317575977072975
Se 8.879227029120804 7.755538523790837 8.383981603743328
Se 6.732404299815891 3.468328861388549 9.384542444126266
Se 6.837118091356496 7.197298036713616 9.462974669807647
Se 3.7028681735742928 1.5116172181240062 10.549692742531242
Se 1.6772194282183872 2.5463678127120892 10.567078418091512
Se 5.405398297595038 3.0661359983996848 11.261310273873667
