36
Energy = -122.09061977 eV
Se 9.96456477262383 6.192341845381121 10.175257895127746
Se 8.041943334646513 5.761523208575973 11.478818504013853
Se 10.89971567368563 4.2061549427035585 9.42064599913097
Se 9.867470978290399 4.097031081927454 7.196182204272293
Se 10.689364211660308 2.2201821807786426 6.165595198329705
Se 9.391202639769896 0.34322209292064704 7.008277347193129
Se 6.105512321047268 10.517441542362857 9.382191943498764
Se 5.6835992476709665 3.6273465316715034 5.996063722511046
Se 2.9205667571071725 7.18040352791088 10.926964582757412
Se 7.794427517337714 0.8924243966833607 2.914446839859872
Se 5.716619812383731 6.66557923186398 10.75988189691332
Se 7.1945777060928835 1.0546446951050366 6.800487749276808
Se 7.1499871771364285 8.680995848695433 10.30634203869714
Se 9.259363941770117 5.757066704983824 3.945397763854683
Se 6.323014595758187 0.3573110117468886 4.641316937850214
Se 2.4435533675761194 9.285406201156178 10.038192500740644
Se 8.334413855914386 7.783269488447251 3.01509288849603
Se 9.39755523014948 4.229598924189084 2.166359513535151
Se 7.378469936336121 3.031498818358037 1.9359184668396066
Se 4.40403575937716 6.038850557829058 8.689242074305502
Se 6.2040275203647415 5.6435531423547545 7.029191448380588
Se 3.7227934718554465 4.85407446490974 4.9795444431766045
Se 1.392912580290392 9.085928235387327 7.944785493947202
Se 6.3421754259399385 10.357284552685009 6.990795837490202
Se 6.16491265073926 7.900537936778868 3.6988240453869077
Se 2.2947239925435365 3.08637884841273 3.8172075628430115
Se 2.406588037385337 5.428267532626618 6.766470178849105
Se 3.200335925307523 2.862693348789462 1.7607564372670945
Se 5.009276767726865 6.693548844475213 1.662733173466826
Se 3.0400224413316073 8.784730956968575 6.245165091854332
Se 6.512769916144352 6.79039446226294 0.04225547422109866
Se 4.214294068975641 10.847777428866516 6.143845248009204
Se 0.5229707444228071 5.593795669637039 1.7936554791947543
Se 1.7738050281851887 7.397601585372438 3.000541651680199
Se 3.084159900290923 8.362014554387443 1.4027791186045757
Se 2.0004965362968985 4.657307789768138 0.38223424704205855
