34
Energy = -115.26616825 eV
Se 4.275416484027042 4.534480361590113 4.309704573132789
Se 4.6117034901312195 2.928761677603233 2.6244164353175488
Se 12.52804808736438 5.979811347361036 8.603312341665474
Se 12.115854454512988 6.608245157535931 6.374309868303767
Se 4.887613305624686 6.68236275269608 8.838882809593201
Se 3.482573676379551 7.997990688717111 6.069884705593964
Se 3.5417993310683182 4.960012515218281 9.674296280943645
Se 5.1852171439073835 8.044520188865604 10.857901755430111
Se 1.257936440241283 8.40805289228416 6.816258086113974
Se 5.815079839398946 10.118418343560732 10.105492895062932
Se 8.606826071384484 8.556143119742824 2.320873831261265
Se 5.0800432418116985 3.0195834310347047 9.859752697180477
Se 5.97085631443473 4.190646240516517 1.1321654212635348
Se 9.069177132334378 4.647741683343499 9.36505346074029
Se 7.419931293644295 9.647374990691953 4.068489961005549
Se 3.6178674301717577 10.61442753816141 3.522159494977369
Se 0.7863349463145866 5.5961110025490495 9.264377166582664
Se 3.507364838184288 8.178754421909986 3.7279282764989317
Se 9.251595490724894 4.162916796801643 5.528645189343873
Se 8.248607001943334 9.994837313372097 10.24380912187887
Se 8.102853330382983 5.551558537580633 3.9192215324360573
Se 9.23417265599805 3.272033967008241 11.282305551654783
Se 7.476507558033809 4.0191337740646045 12.64906090666039
Se 9.219554733546383 11.429448802867013 8.687845496189247
Se 0.339274823159457 6.234172589264442 7.126073855594156
Se 2.4513399938697513 11.237139492259844 1.7328540525176823
Se 6.177381212653653 4.533162571237708 5.686821422078926
Se 11.541907568697175 4.631695692209303 5.188733450759385
Se 5.627774042484168 2.624585807725971 12.084911456057636
Se 10.49623145770459 6.498954635645466 9.693479203791115
Se 8.91133869507851 11.269140743099411 4.907524929419427
Se 8.12013038228684 3.961141419923891 1.9599731083589458
Se 10.11714409241334 7.081108844943047 3.3408753058227987
Se 10.044296134930741 10.315201662279835 6.744454134199954
