33
Energy = -109.98513765 eV
Se 1.3899931705015869 7.0580077759980595 11.582888182994235
Se 4.634629332051809 4.7445224559925725 1.2659572144065114
Se 12.812288038141023 8.285375034087377 4.176136085098318
Se 11.13838853496022 4.823838237846542 7.816359405563765
Se 8.133953342496767 4.4721076832507105 9.503531069179756
Se 1.7841569996172764 4.149583087965325 9.284153403494008
Se 9.084662782918208 2.884411788247035 4.939485571963571
Se 8.014941823475226 8.672529534549513 2.26950970875424
Se 7.2292789492267895 8.362538092735432 11.225080461845064
Se 2.3602196536839597 4.613239879388498 7.057056994759157
Se 4.598264230493975 2.5277591194547924 2.502828051731716
Se 7.599278966387902 6.303776999925273 3.0749653138193285
Se 6.285867289822803 4.367603879208518 10.90036222821778
Se 4.963701557787533 6.661785463790804 10.959157769800282
Se 7.184474708948106 2.2834393096755976 6.3071425413945175
Se 5.093433577852386 6.13827049342576 2.9746678807279725
Se 10.625759026347968 6.655822978248547 6.629320762042515
Se 8.359630559375397 3.8283842880473333 2.980641967830928
Se 2.19260671637658 10.728705439715224 4.289536927226926
Se 0.2405465271225359 5.841973824487981 9.906611283196032
Se 11.589946796861046 6.319690897030946 4.404097325669584
Se 11.526427230527252 9.830765887477515 2.8615897507181307
Se 9.027895112108192 9.787494955602481 10.201930474315166
Se 6.363414661695746 7.902481409040958 9.103210221466341
Se 4.71375845121776 3.1275633958485924 4.641085817815828
Se 7.926936498999503 10.096491773192165 4.048940599792015
Se 10.212454847629722 11.083697929934544 4.264155831984167
Se 3.143156157650615 8.324820168050595 6.972671187065615
Se 4.13735973965654 6.216783917202738 7.012767236710114
Se 2.814634638598598 8.604175718908593 4.541032965529704
Se 3.045960647106271 8.31471266484482 10.539174626462996
Se 8.245627144636728 2.3390203025581613 8.446697511438671
Se 8.280144087732626 9.40241741627729 8.07104542899462
