40
Energy = -136.14756954 eV
Se 1.8940750543323492 3.2338413190339423 3.0239310803700334
Se 5.793716824443643 7.508421014332834 1.5668633059967358
Se 6.3185249174439715 0.24640724258584357 3.373497453386424
Se 9.161656650858154 2.865990936717167 3.477417203551168
Se 10.849034887721007 4.739411305599498 5.500042513051032
Se 6.061025824818828 7.374764764003974 5.387062609206731
Se 10.250541049703779 5.6036516155254965 1.209543896091153
Se 10.849034887721007 7.028941088849126 5.1463826440468345
Se 4.159478275550281 3.205227176007847 3.131931875031432
Se 8.545124171688636 0.730558663751509 2.704287353137164
Se 0.8113453559901161 3.592189245332477 6.832432513229677
Se 4.913145631028779 1.2978863592751866 1.8224008835777217
Se 3.3728321367698775 0.888227815147795 5.608365191088249
Se 1.3738510943628905 1.7111597683246254 5.15891090889455
Se 4.075322752833948 4.484993515661198 6.69260445845088
Se 8.512146815664293 1.6288698008436073 9.378456417966833
Se 10.941992824980703 8.423511849162372 4.711113687473446
Se 7.91414429060588 6.58935783907839 10.630526358334059
Se 8.503057337926654 4.167456302490891 1.5254915846009036
Se 6.270267631859216 9.77504780732184 1.0851183378964515
Se 0.5861965264161856 9.770189801897141 6.457136316284707
Se 8.898129568567006 8.606953398051637 9.873532384543717
Se 6.273624716364799 5.0791609306057826 5.93305470934238
Se 9.733129522816636 5.194190156242154 5.922677693048343
Se 3.301863880026557 7.83452747708894 7.897557450647182
Se 4.242006951181817 4.4713897724082265 9.040041487779732
Se 4.538733609404932 7.548195776922397 3.5676155159645453
Se 9.660156411517773 3.6011761960614717 8.725625262674258
Se 0.5545033054416049 6.464970784926389 4.285237792873431
Se 6.469095894109162 1.5280466284337522 8.19089942769656
Se 4.649984202965564 2.1695491266943816 9.523493941298376
Se 9.662580693836013 5.011769234234266 10.635218719332688
Se 1.2215137240087772 7.745898604867338 8.670357306702083
Se 9.900279685320113 9.522771200566531 2.1613407589940072
Se 7.820490531274717 10.42539261300806 2.743547752489252
Se 9.60979958120934 7.295341892252023 3.0869006345523227
Se 2.7452505931632567 9.824127073622085 5.9066431112996085
Se 6.098770199299479 10.47349749486848 8.18570593562994
Se 4.548710568793016 9.325184648121182 9.463365734144206
Se 7.953054549187079 9.010399820384801 7.762315816141723
