41
Energy = -138.94489842 eV
Se 3.9925978087348595 8.756572107922032 0.13956572436447132
Se 6.213436778858462 8.13106794856022 0.6569676204407141
Se 7.331927917933814 10.18010521874301 1.23439605011632
Se 6.361229611248856 11.16551155234887 3.075338373097849
Se 5.952870624093674 4.223966253324562 11.584823139823726
Se 8.110364658459321 3.275175016145614 11.539127987829557
Se 2.6197502116640092 7.91177158974077 1.8403446511371098
Se 9.730734064120787 5.022874240153654 11.387350818515934
Se 1.9310056080932847 2.617748441568004 1.7482725354754078
Se 11.173505247430558 4.552696257258423 1.5571744842809583
Se 8.119699186541748 0.95122508772232 4.797439472464672
Se 5.192838173317776 5.0259229846008955 2.0645407980079713
Se 7.282129932467081 10.00960173489058 5.028066328244423
Se 3.027239421526117 9.395076736858856 3.68495671606034
Se 0.5010959507051932 2.363043646612315 3.4537137989014957
Se 9.649251317479036 2.585486329342861 4.7275761520637465
Se 7.119445330698575 11.68542457811492 6.663194344572219
Se 1.6472428165539281 0.9257971492475124 5.024298595879515
Se 10.536521465256456 5.772416136354942 3.483908645713083
Se 4.4046547848546185 3.219390642048679 3.404575015855644
Se 5.686214757562789 7.271392725549741 5.841199636767198
Se 8.528955829983433 4.691354300745675 4.206678268962514
Se 7.262814456641686 2.35373055559615 8.681119540097361
Se 5.937816427444963 3.384970376274386 5.299858019595188
Se 3.426065354677391 8.124052232110653 5.5822577122391515
Se 1.9549511272492 6.4187974534086845 8.295867578137331
Se 9.37028959271232 5.796425159568336 7.0416308583689045
Se 5.036526487740676 11.725761208804375 7.751997981776166
Se 0.6356953815830116 4.946392194755043 9.535797473151511
Se 5.107548291267379 5.135178185832687 6.692505406764218
Se 0.5276462427473688 0.9936468866653315 6.986651073246422
Se 9.18554192053723 3.2972903233105075 9.759564495286318
Se 6.206598754738605 1.0903287378203634 10.352436181596394
Se 1.6036538615317733 2.7956001378059003 8.917770682893636
Se 3.869757797521848 6.905257237563461 9.625174229471233
Se 5.402880202263376 10.459025919219087 9.764928861065275
Se 8.984076041812289 6.960559778313287 8.920333660717297
Se 8.574422094584538 5.280099384603015 10.732212587658541
Se 3.5610352837784536 9.162037877122033 10.356460065666816
Se 4.644086716810015 2.5510619099186442 11.387350818515934
Se 2.482423025598898 1.7727043222789485 10.902866597022326
