47
Energy = -160.11230392 eV
Se 12.664616280151321 9.623367650059087 0.5206904193496343
Se 3.5632513360621574 10.373246999004685 12.287686601389911
Se 5.461817405666612 9.1069673653518 0.050494378353684886
Se 1.6099785882653364 0.6894599562031302 2.599729761822601
Se 0.26066432935438155 9.965982669980418 2.945121628601449
Se 2.1045728750204185 4.164500326148377 1.5436104075813464
Se 1.8593809226488383 8.635658949753465 12.432320046672835
Se 3.175219674292349 2.5176750040596865 2.855375685499905
Se 7.750180579235431 4.533500127260685 6.06463327258053
Se 9.71672411472168 6.808441725201668 3.756300324124413
Se 9.73962431416991 4.756825444119025 2.7004193015186106
Se 0.1666805100032869 5.0285367410915045 2.587965426467201
Se 6.153342934512539 11.620545054893983 4.7760088336913435
Se 5.6587759809084694 8.6125624113571 2.365009687174742
Se 1.8024881842192026 8.380368181407254 3.6123662391249063
Se 8.375307396020679 2.993736712283694 4.267762367316489
Se 11.778462135871315 7.109193078052094 4.901625323886186
Se 1.8340726728173402 12.226134741171714 4.60787270313366
Se 0.7404393890618114 6.395575397134475 4.416626976369823
Se 7.230959915834611 10.098631831435481 3.315539854375989
Se 7.121418167415108 0.4068092477120482 5.353220930414165
Se 12.106465542600207 2.9667172530076877 4.9086199173894025
Se 5.725672295646549 10.44992152152378 6.755527259585274
Se 8.172929523381272 10.077463387330413 7.413845968646133
Se 5.6513262857619635 3.843335550979582 6.746877306034182
Se 4.91975030195615 0.3119389196271928 4.85063910242416
Se 10.178202336157122 1.6462412693881159 5.163162830224657
Se 0.6850710210622102 0.7106502042201414 6.329512905726152
Se 11.34317828805816 6.076428472676298 6.975574817347269
Se 12.624511182896777 4.049254827477705 6.922336445425646
Se 8.724311586389362 7.930271045374854 7.614651290073509
Se 7.820159085717931 11.051873740572656 9.749429348601243
Se 6.955319050730861 4.926092687720785 9.861832102630311
Se 2.2708544402631854 2.317557162514863 7.040431641835427
Se 2.3936366967330787 5.878384644209619 8.298331193340134
Se 4.74481070976743 7.32592126600038 5.699696307157506
Se 4.084217704294817 5.168733600788584 5.4125244850935
Se 5.103426344647936 12.66665446648781 8.411815100945494
Se 9.83009305947356 10.412859601018054 10.722867399707612
Se 7.128486591382404 0.9228679105944371 7.869996230048062
Se 3.4250956156052315 1.5718146891382392 8.95805873145194
Se 10.19228015425448 6.613006518927412 11.2161998734555
Se 9.611503121622547 8.653012462277056 12.28768660138991
Se 8.456996903944312 5.093249137948073 11.67538021607408
Se 3.2461920713818184 7.861975653731793 7.8465478178190295
Se 5.0642772895149655 6.185649613088948 10.640913488026841
Se 5.0865866557239485 8.256758995120242 9.683515665524014
