47
Energy = -159.17704119 eV
Se 7.5072794866512504 1.300191071410123 12.158533989295883
Se 5.077546201466106 5.7200178729642515 1.9694278078698786
Se 8.599887868453953 5.734215141276953 0.619978691620972
Se 5.179120287770005 0.9919272818846863 12.200579483652982
Se 3.6343649381837815 4.267884372396596 0.661022055366491
Se 10.168304893100814 6.568136122757967 2.160581480521483
Se 0.9866952157055486 6.712514811192899 1.5733315869617819
Se 0.49771594184788803 8.810921473667133 2.326364736354572
Se 4.100605446298732 2.11208023367935 1.4637303662446226
Se 5.819232413613254 9.270630807450553 2.0071033552830797
Se 8.427589505181476 12.262652828464445 1.1214605489399072
Se 7.081245402378774 4.5189488752855675 2.004290688965626
Se 8.982975766448734 8.035772957228877 3.584856298142395
Se 9.482578046048742 0.9965779913624461 2.793316603343337
Se 5.721414863861009 7.8941878840395425 6.9708321267451065
Se 12.47481724343643 5.425232356154825 3.631170391921896
Se 5.777922853103072 11.774629379868955 6.2470005687006624
Se 7.873188103420069 0.2903028987820361 6.239445735094372
Se 8.05849039486905 9.615716689429487 1.9861244746106834
Se 2.5366192184877807 10.043837762269458 2.687082213395827
Se 5.038217370247313 6.214315854910487 5.53653882581649
Se 11.774646379460915 7.088365251541017 4.912609971006525
Se 2.0784933737562437 2.089095683734524 4.301251944060675
Se 3.647808478446031 9.517233578680685 4.6983412287950665
Se 2.06844709768822 4.241527889790032 4.8580681647084
Se 7.916355800613214 1.7757655947455313 4.385463235329843
Se 7.9390630957473425 6.118176217800362 7.530846796543933
Se 7.118273383412551 10.72838681624963 7.86227790224803
Se 1.7217503703735733 8.903655440353951 7.817917610538454
Se 3.9726528796526783 4.628624940731286 8.978350198819836
Se 11.41931708977463 4.963042381156178 6.4285413323157465
Se 4.276161428590337 0.7767046243899136 7.276947280560571
Se 11.106272344547147 7.0420400593162435 5.647363145809996
Se 6.1527636791143 10.767004903573325 10.010023320195295
Se 2.3371921144039067 10.652004189443371 6.356156782568696
Se 0.7925274697738736 4.549172573889171 7.037649265072113
Se 6.531784445575545 4.503708147663322 5.698784458779189
Se 9.54625796120091 4.342226498748803 7.850730689484498
Se 9.279124230644454 9.753740233409665 8.183554294295147
Se 4.916087763456633 8.74469162579874 10.139607903761812
Se 2.069761166967129 3.204703183557529 8.41436922546789
Se 2.6595557043057467 9.469056033069315 9.903506057577902
Se 6.095693294139684 2.0807379486675166 10.371943219908731
Se 4.490069651493625 0.42226909583049166 9.585135166133975
Se 8.879640137256137 7.717547520740093 9.208674673400807
Se 3.8572013007226795 5.060504817209372 11.209077438134063
Se 5.095785221970248 3.0678174070950095 12.158533989295883
