46
Energy = -144.65072535 eV
Se 8.958704735767041 2.225745149507487 7.533383054345593
Se 5.288632115636335 0.9322819786891653 8.678594849371539
Se 6.670807304549909 10.813014180192125 5.372572073052328
Se 8.809467037323774 2.039759220787661 3.3930870126506476
Se 6.423156853245661 4.1541513171865745 8.960941767802677
Se 4.307160238394766 10.46636517196476 6.5637666338029685
Se 8.457407680121939 3.6022610174645613 5.956132474815784
Se 3.3604800321300323 2.2207001707927825 8.497021916151338
Se 5.6504360844134585 2.542117776921506 5.784924063605872
Se 5.7741364629506355 10.852248420010422 3.5109556278079217
Se 6.670368548749936 2.01312314207579 1.8972460491921346
Se 6.395770786666885 5.311818415394629 3.7289262165668373
Se 9.290627078130036 4.293462445481841 2.962174383949593
Se 7.3788713413413385 5.418971083869058 7.301441337573849
Se 2.344836905444388 0.8420952285034898 6.864263866240932
Se 2.5258233962382537 10.616867150054542 4.005969041779872
Se 4.460336058513029 4.994077712224827 9.190192975702336
Se 3.9295303648731856 0.8239916327195597 0.9079735239956536
Se 1.107763315064026 4.162196147680377 8.20856679806665
Se 6.641900904843376 3.83877079702308 0.5838073267385554
Se 4.454172216801123 1.99332429599186 3.949174398543599
Se 9.512271380716022 7.187075552158257 4.914805968064564
Se 4.618625499714239 7.869640631392198 7.268275089829205
Se 4.660800855605587 4.531593852176432 5.607804158042693
Se 1.3056985230169211 3.3189150947878137 4.399388085459151
Se 11.031293789306465 3.20166993956378 6.768743632225623
Se 7.863470971095697 7.968657198596676 6.394078711530209
Se 3.5317622004097116 4.6857322819835225 1.9023314291714988
Se 1.6888031113582291 6.574559632701005 7.034911449913451
Se 3.1442911723752527 6.372930789166381 3.718295008271363
Se 2.101237727867784 1.9456201452097854 1.2654158941907812
Se 0.7016337069166496 0.7508977931317847 3.3604382369018584
Se 10.742503453474466 6.1448314735127765 5.937916678395772
Se 9.077160665763778 8.084429236322046 2.8297950345580807
Se 7.829480896813277 6.247599930052184 1.7049041142722798
Se 5.524536524567847 7.698732184425592 4.115956822244618
Se 0.2137676684332655 7.535729933580574 3.9600755970878536
Se 11.001048264266043 3.988220795948074 2.810054061554859
Se 4.73875483247401 10.059702268736165 6.489868311109106
Se 1.432256354806028 5.143822074414383 1.0468463270008923
Se 5.814110052250544 10.466365171964759 4.605473785124144
Se 4.502882049506172 7.058595303229083 0.3339146128580428
Se 2.0611260068192023 8.319819425260931 5.163717446575763
Se 6.045602470025776 8.452582715866411 1.2461432929497196
Se 2.41095595873662 7.987685455626275 1.7945873889985298
Se 3.8903105046423825 9.766120153435528 2.710473371189804
