42
Energy = -140.36485711 eV
Se 5.867723296647648 9.68630363155233 0.7640327052392555
Se 8.725771228394024 5.2012279129425485 1.1495936878441035
Se 5.83168663849577 7.693666427415652 1.7154371294884903
Se 3.9717088711061863 4.727156875113153 2.623875114828515
Se 5.584252235691851 3.2091967562971115 1.8088799426335234
Se 3.817547401095177 10.498279851506103 3.043736390832623
Se 1.5442965152404224 6.970201477408923 3.2151855544209735
Se 7.7511932657765605 3.5585366708460944 2.6614984314949557
Se 10.527106617117767 6.334854295412419 2.182523616807892
Se 9.655587743145277 9.952054775312781 2.0025628772374775
Se 6.543632580399873 8.763814695365598 4.581905119490791
Se 7.0407251876162995 6.333066138189178 4.398669696378941
Se 3.9378355877315756 8.215626594952226 3.7136859050601503
Se 10.140079505265557 8.214611900667697 3.5474567817906126
Se 8.765026564298369 11.692255394791099 3.477325488095271
Se 3.407680206420837 3.9247478972575336 4.851241470876151
Se 5.785068099670555 11.416283412420253 3.933226202659846
Se 9.659008380699463 2.6805532033036017 5.579813979395916
Se 2.9918170646360984 1.468385813565989 4.3982232972003175
Se 1.8301441794464628 5.956161147274948 5.226641303996678
Se 9.089144351985611 4.591648859087812 7.007740137582261
Se 6.861172302573191 5.182691030182125 6.453617591725678
Se 3.361848788032172 10.562718942745393 8.016002668301672
Se 9.673399742178455 11.49013234659263 5.532369474269202
Se 4.193284311915688 0.4903353847923738 6.124274528900311
Se 8.145118915761532 0.9859202877960175 6.156685505267727
Se 3.374331719079852 8.260950064573388 7.6239821767086
Se 5.75194878515395 5.617550266500965 10.801547246563914
Se 5.400016232559986 10.96866462853153 9.158802290363058
Se 7.391424262881808 8.789168280500158 6.918977839071394
Se 3.1818842824178843 4.996941220835507 8.697061139418727
Se 7.129635540740261 11.045827378274469 7.506742919005208
Se 7.75846147478247 1.571934849625273 9.912296089485556
Se 9.37473937070439 5.825459801993439 9.716980442178263
Se 2.636698664662065 0.02528859641613165 7.870701702587285
Se 2.5378751928289205 7.003647614234347 9.564068588395982
Se 7.541371285131357 7.127234068847001 9.891809193663256
Se 8.814302951186768 0.24117941970163587 8.29880393160063
Se 4.319575338372455 7.1615432629887685 11.599046016806025
Se 2.635691127432731 2.0610413781844414 9.06499400168192
Se 4.010637060006339 1.5979804972776859 11.051877322438632
Se 5.80382684544094 0.26943666344684103 10.520384212937106
