41
Energy = -139.41114168 eV
Se 3.409657209985043 4.403219172987626 1.180225946793331
Se 4.421736489620164 9.645252273692591 0.6940091962919321
Se 8.665374100929641 6.462266086744957 1.8718562470101916
Se 1.3723072062321346 5.547935984045575 1.0917397811835983
Se 7.951141627091914 4.4041339946231925 1.116945007743463
Se 9.623022441332028 2.680276346354063 1.5671055287114708
Se 1.6854045611024933 7.460331533634188 2.4734740831002244
Se 3.7618158922110245 1.1353104900726376 3.089772087883219
Se 5.848432834209939 9.682797005011258 2.5578698226048995
Se 5.9215571064809405 5.296817733384856 4.155454323267529
Se 8.133266645639882 6.284485048879829 4.255225496820016
Se 5.668634580933388 11.80911788877468 3.6061417053091507
Se 6.08034576008621 0.8622250995580927 2.575576531401167
Se 3.3968050848366205 3.4419717101079446 3.4046916488040697
Se 10.243875199993381 2.8821067676000958 3.7659159138775933
Se 2.1276397370119304 9.431679161665627 1.2811975480900708
Se 4.367004005659418 6.7845086504105945 4.918375910313568
Se 7.924854638385364 8.476507341616088 6.118972333171102
Se 10.27741973839948 8.38665567609396 6.174369795989708
Se 8.212238181365478 2.468890184140094 5.243921309959094
Se 6.466210105417518 11.815984566925248 7.278436011963583
Se 7.2944910708304525 0.2548850771244689 4.463078118384507
Se 10.841457723923655 6.250308814613139 6.9743726349941575
Se 4.759080607909117 11.358620775428076 5.748786993552631
Se 2.9115501767927197 3.5801800251063085 7.048266289499586
Se 4.814528086651624 2.4049909844467994 7.2937449555686715
Se 7.988184940026223 9.974489486237218 8.204246526534872
Se 9.184604453645262 2.1811664372748187 7.236359478973544
Se 4.325486116375628 6.056400583774433 7.42095558544907
Se 9.491441750972905 6.161386497396608 8.991532420462805
Se 6.289771245371002 5.111819962924707 7.773828130646671
Se 2.9512317097927188 9.531074659062599 10.134321385816278
Se 2.638080092288963 7.866946409327976 11.77146695832231
Se 6.7280157778475465 2.292716827496774 10.658609212254692
Se 4.9021025006547525 1.3857939138168847 9.513716493286049
Se 6.820936988212348 9.26071697268306 10.237798107052665
Se 3.54385723507281 5.917350032150163 10.835998191073525
Se 9.616476741792505 8.251576440081509 9.924297677981302
Se 5.923857304327112 3.663596871754077 12.426736902555398
Se 4.962639680638211 10.660503069005578 10.71078342179464
Se 5.824828898268245 5.844369692288258 11.581190533824318
