40
Energy = -135.60300112 eV
Se 5.896887841506577 4.81954408729577 0.17769865242938154
Se 2.5746923859081163 2.380591001766114 1.8085818781400111
Se 1.0970157077131586 6.029366873610474 1.2274644301501958
Se 5.9681735443095425 7.157492129071557 0.4444122640696458
Se 6.9001021721717235 3.838379050808287 2.128660987243208
Se 2.2786787400083335 8.037211825839286 0.8598922035739164
Se 4.328041616200111 7.776463750659334 2.031629486582678
Se 3.2409575517881475 1.8982942825740488 3.8865268824221104
Se 9.070211984499212 6.7180599432447385 2.879337146955328
Se 8.220424379454798 10.360191604213277 6.649596897270071
Se 10.490274884321176 5.09299708319286 2.302794581987801
Se 6.266917660089885 6.366499566160672 4.612823199878466
Se 9.395804879153028 9.111575685659277 5.058264373196461
Se 9.032413622797776 3.1255445178632137 1.6741437437331617
Se 11.11986300676852 6.4087505227897354 3.0465816531286536
Se 0.5280391110498706 3.4625790934701124 5.09983743671085
Se 5.401488493866646 0.6489251001657311 3.6837773111699823
Se 2.4727987202183983 2.7452615442842605 8.246266699164918
Se 4.665246987540551 6.597393128933287 6.306530847439379
Se 3.4044251157492735 8.574192836142817 5.719866523439018
Se 6.414494355308386 3.052117050121277 5.967602447970304
Se 5.315367686591367 10.930447981604505 5.577607530825904
Se 8.791284559778289 6.751842446762315 5.499654465715196
Se 8.948495426653658 0.5796666424788643 7.283812344087989
Se 9.637726698139977 10.930447981604502 8.45312184469106
Se 0.7580054435778487 5.875965695777241 5.010183393009363
Se 11.114490947018343 5.560811833550215 5.977500180756413
Se 0.3133792639049871 2.9800842320898933 7.3980572311212685
Se 6.366397550437298 7.671939651761318 9.00394065817125
Se 9.608388051933055 2.2699732352659376 5.9802736236403495
Se 4.123794664601997 10.347249112867855 6.97707327117627
Se 6.2715182604654265 1.2513140050336173 7.245799985268563
Se 9.65615906747679 9.0727013641463 9.915895398219138
Se 10.106060063917361 4.162168450185863 7.502070207552353
Se 2.686583891647994 5.046184305388495 9.1055474771558
Se 6.421976354010069 5.376118427984122 9.53714884144637
Se 1.5576888311596377 8.161707854187243 8.710621285927198
Se 2.741009632276362 9.990875655155563 9.091025436867822
Se 7.460361551441552 8.895861070047111 10.740299285914773
Se 4.377792881548248 4.966642963244729 10.697358936364738
