40
Energy = -134.74632056 eV
Se 7.970934445112077 4.4705356288741855 0.18013418253981525
Se 5.779777474927429 3.6705658451308776 0.15990440864357922
Se 2.927942927861308 9.820973661613342 2.831248912818227
Se 8.583837368401962 9.520388667753535 4.443379829878815
Se 4.024969833502458 4.727911550134276 2.09538306567273
Se 9.620617237675962 3.377518103037613 3.6463715548809637
Se 5.162574157228474 2.748111560739262 2.802694342099847
Se 8.483911231444656 5.078608402351685 2.38382309021848
Se 5.208281233949903 9.896970137636167 3.5851646701969746
Se 2.2272590951673767 4.330433627818083 3.6471088503333022
Se 8.201344694100626 1.9092470687945382 4.781347511821907
Se 11.677112158144373 6.913010947505163 4.734020998360753
Se 10.824291275962855 9.501940141346138 4.5662856458464836
Se 1.5354850193907001 8.221006696895614 3.854787743657581
Se 3.612049915901276 2.1468543577595707 4.421516071198637
Se 1.3386523572353468 6.412541066303174 2.373402108463396
Se 11.21670471955821 10.444098283028262 6.917016482035174
Se 4.5564402411154745 5.70811084854705 6.552486612877487
Se 6.7950018684423865 5.432800670951677 5.732438357649664
Se 12.414979869293962 6.3451347980044925 6.8366762682969835
Se 0.7930078826004942 5.468946828181808 9.26190797506744
Se 7.7895180119590774 7.52529299587614 6.1082494348809435
Se 2.520350873854682 8.39953728427022 7.6890562136019565
Se 2.2868105362885784 3.743200059283249 8.699609042296851
Se 10.790391043832209 5.049374949008798 7.934230135863371
Se 5.3440501889661 11.808802389021542 4.962024013580265
Se 4.821646858311995 8.021194939237182 7.204961071268599
Se 5.454198616453631 1.9172155047186037 7.315598443596347
Se 7.493622731410028 2.8942250231007165 6.999569724647878
Se 7.79044902026786 11.835832657153885 7.945774314862288
Se 9.260552507485292 9.933055921235791 7.9601504872239035
Se 2.0488404807715246 7.394191895707294 9.794804248058876
Se 5.616234170418148 11.217047399922368 7.259303641054001
Se 8.840599700998503 3.6517420052958887 10.312293005412084
Se 2.960523339471202 2.825430825648283 10.772825432298529
Se 5.231496261419727 3.3448910358005812 11.080611615562884
Se 8.301762122766673 7.483235232805898 10.677673660207427
Se 9.976458972523089 5.573336301019127 10.278489434723493
Se 6.177270618293722 6.760761292425064 10.176746506613386
Se 5.367247372877674 5.503121831449457 12.048129327075038
