44
Energy = -149.48788164 eV
Se 0.6985696657944045 3.7688546113145915 9.461420873501744
Se 2.1097061185316326 0.8911381628267876 11.094124551231864
Se 6.010412363506319 10.984561745035025 0.9691653747778061
Se 5.717089048260836 1.5014290253458564 0.7556937548665428
Se 10.472833028624644 1.9512477405049657 0.17351691766617255
Se 1.2715411514423922 5.959064634111901 9.340305561606852
Se 6.690203870053163 6.29435750037458 11.275626747297606
Se 10.495583174168413 3.986819694943179 10.828436198349864
Se 7.662509398193506 4.909493379084917 1.1086389215094075
Se 0.8715911601517012 1.7675800224282778 1.0689317530368128
Se 3.8242528848199595 10.236291421151188 1.4897328085731263
Se 4.069694284733112 8.096657606101807 1.7604947941487443
Se 2.115843645843921 8.41339186497314 0.44969634077085147
Se 10.18322224474434 1.0359126370188878 6.64182916576499
Se 5.995758707184446 8.328284309981884 0.41872624293581295
Se 2.4224432800857607 10.3717735712528 11.411436192818238
Se 11.511003036666573 6.517975907764354 2.4761470699650987
Se 4.34002522833733 1.7551904919690715 2.7387803901512617
Se 10.051859243752117 3.1573766372458256 3.4625280829372227
Se 4.3966497835435945 4.075597066361183 3.0964174957388573
Se 9.692508709137329 5.998247249937729 1.7640522399472574
Se 1.004548031171752 6.3449168695509215 0.2723517789746543
Se 9.71021131642529 6.170600366423826 4.098362617103405
Se 6.3970401153138425 4.712411162922713 4.170523836096226
Se 1.2609220641561656 0.32005423416701295 6.408216758858981
Se 7.980464631914431 11.408060693183431 7.5357309564200055
Se 8.98858908635992 8.309165062378392 4.899922604593305
Se 3.570312380840158 7.464870042447043 5.175594150330909
Se 4.8199836187512775 11.189216727311875 5.538935228373075
Se 2.2573350749308005 2.048782387941045 5.448011393113608
Se 5.291301259247636 8.963801540411678 5.741806059631736
Se 10.064702450210211 3.1417741210542056 5.888640444990227
Se 0.1825480837690848 4.5312101967532685 3.529736445308434
Se 5.967919948605312 4.045825842152564 6.455184192422339
Se 8.641053082246167 1.393056550080805 6.114932184233588
Se 7.319942036513682 7.975410133620838 6.517614315771371
Se 2.9280788443902095 9.996513220172801 5.835085802451176
Se 2.0593333594290653 7.541040330582211 7.046363819958442
Se 5.674708289517898 11.618495094623825 7.794295218897875
Se 2.159348070934548 0.6307471602383866 8.931211410710548
Se 1.1723002685465074 5.409378713789614 7.426059758741901
Se 2.1124471448549285 4.38001394698064 9.340305561606852
Se 8.12346495877364 3.434721979857997 7.158700985451057
Se 3.4158235060720927 2.490644294852813 8.59239064891318
