40
Energy = -133.74023655 eV
Se 3.8926282494368136 4.403440513595883 0.19758757270508742
Se 2.4388429040762314 4.031453778512361 2.5437101030457523
Se 6.161841486647369 4.197096812281715 0.7712116673292425
Se 2.959707271034122 6.365784042335295 2.1292172900734467
Se 7.148479452616938 6.188934431112358 0.05602336743998884
Se 8.859963564639902 8.897497611319679 2.2086783373442422
Se 6.874871545053451 7.708967831254163 1.9376788391681445
Se 9.53114867578875 4.580667225891328 3.24571124303808
Se 6.787656949799153 2.1117558289675467 4.128402876683061
Se 10.141964931295993 6.333743769083552 4.895032708733578
Se 0.8599532445198118 3.9397783565253413 4.426843139801672
Se 10.678327844561869 7.50685200045736 2.973967902788467
Se 1.7911628409692186 7.6856068159789 3.7597480164518116
Se 2.252749356308502 2.7864542198898543 5.970358993233883
Se 7.260327458279599 11.733867322102927 5.4417415121468435
Se 6.111841603862366 5.834082110550576 4.6241622243169775
Se 5.083804957759532 11.05377104353725 6.331397410329436
Se 7.218330767061513 7.63752624410707 7.3708728439020135
Se 6.506970533066059 0.5948976343517733 5.927178845604535
Se 9.19173261158776 2.420637495916462 3.9682767968097865
Se 5.173427373544759 4.760076690648654 6.418970099229794
Se 5.181664735827852 8.103607438320537 5.262528826764994
Se 8.78085206715616 11.462606673346842 7.180289644941524
Se 2.9784914786296466 7.491792928581424 5.825527682964851
Se 10.008112956604023 9.472678492571202 7.003980453563822
Se 5.148544239135174 11.57518195487062 8.613883856611796
Se 1.4758051739054765 3.047606702988049 8.191063319857767
Se 10.03406889611239 5.112991857314124 9.122378414250338
Se 5.705282716817977 1.5986252989413068 7.88725297263445
Se 9.445523516101757 3.550480883039049 7.605839286032273
Se 6.020409576951268 5.940843984411137 8.449509259299171
Se 9.327779337813125 7.6331105486343365 8.771371903526289
Se 2.877071582120276 4.3699118584717835 9.579327498144483
Se 5.793794063434984 9.674676619578412 9.87726572136666
Se 2.0782676628239263 6.629924320732951 9.538930619273078
Se 7.770794294258584 2.0779699782674887 9.19507014090801
Se 3.990572630465649 7.647725372844037 10.426585257293024
Se 7.190616402011834 3.5416061507091032 10.763537336222164
Se 8.039176809215459 8.733426401303106 11.085106057141509
Se 6.722529591049628 7.057432108998463 11.78887131137249
