40
Energy = -134.88740019 eV
Se 3.1973418890536958 0.3789351512305544 2.3704761347694085
Se 9.265786011005968 8.735634211547616 2.9883430507847817
Se 6.97616140270193 4.642718316038246 2.2069595087532816
Se 5.747577252495489 9.859366077769845 1.811500721338951
Se 4.0221813437705265 7.785312012682071 1.7453287226160492
Se 4.409738497361602 11.477399031078127 2.5416312620810926
Se 4.178250217767861 2.276797990105356 1.6748634259302428
Se 2.258944981988255 8.875582533629277 2.666150956647731
Se 7.305803608647619 9.760201328143594 3.789094832387828
Se 7.800262321771425 0.973363599713034 1.7991148789879672
Se 1.8628073500510889 1.115235732175941 4.389141111055626
Se 6.408704791667676 2.628456520586501 2.9828872485678772
Se 9.655664071353838 6.626608274501536 4.016894421133785
Se 8.735890311021404 13.590754567925641 3.566290241027333
Se 6.644573902620686 12.05388714658714 4.74555247885719
Se 4.128010022029542 11.148226665071887 6.143650829333599
Se 1.8968468312912674 4.677605463717576 3.306779988394127
Se 6.099286361774305 7.075063616253599 5.187921086281775
Se 2.0146711511115836 8.025100443606634 4.906595033698735
Se 6.149102430467287 12.05388714658714 6.714836577700282
Se 7.402928830647742 3.7701025729277724 6.756108493697935
Se 7.606660072243568 10.045497643851762 7.228439303526147
Se 2.669171761785263 11.12574523490957 8.076684364853293
Se 6.89256753842678 13.093728424068589 6.7060429857477635
Se 2.882675622378424 3.11154351749405 4.860677479226903
Se 9.229731209583258 0.7331351492483713 5.391494202135026
Se 11.279233513030432 7.107835253988675 5.6589157873999
Se 0.5712641288827689 6.194087117522533 4.501540853742287
Se 6.132135249829162 8.316048283148717 7.3228739364174364
Se 10.295197790693143 7.413823502998741 7.784771441553938
Se 5.49125327223253 5.117323426375416 6.34294906442547
Se 4.883030945615944 0.5414166276681875 6.928005442121136
Se 2.240923833848572 8.895544185912222 8.67503409204166
Se 1.9492630975634355 5.347020658900304 9.88119669069643
Se 8.106385092228928 4.4260781125799085 8.927634324143787
Se 4.943274197933515 1.1702565970319336 9.064708155593543
Se 10.305720365286396 5.234904477005387 8.719786945892004
Se 3.20306536960644 8.497846717046702 10.8379090987596
Se 5.121854731627013 7.270183378015663 10.6287938661078
Se 4.102528941206723 4.968638416138303 10.218891276173444
