49
Energy = -166.75728569 eV
Se 3.811515481262923 4.31825326477039 12.168319825206007
Se 9.784194281917722 6.4388302484996 0.7132461282210669
Se 8.787782634746323 0.9152818320828054 12.933877176611372
Se 1.761445691176053 5.494332718796811 12.245656474823361
Se 12.732186948112375 3.60666143897949 1.5512681892190419
Se 6.8079761694998275 0.40769421408115797 12.104694749130763
Se 8.162314067628735 5.087863613204354 1.8003703434013258
Se 0.9829713907421223 5.5432803098291235 1.3743351205415324
Se 5.481817017507493 5.987124496480143 12.2987688657891
Se 9.875515216976366 8.477743139256722 1.8826229544200517
Se 6.128837368834286 6.234446450065076 1.4583360549674071
Se 0.8104872704804755 2.009197687678522 2.8209390802599668
Se 8.86460712450891 12.984445297756755 2.158422791080475
Se 4.419903771787641 2.0536737842313206 1.8497273536050498
Se 6.359274110144616 10.076370770201077 1.3089517538102446
Se 8.596811697627103 10.010841904916147 0.6064556906046626
Se 11.249747001585627 3.770288478721913 4.855414303472541
Se 0.8691503746083402 7.114650741503569 4.7561235087922205
Se 6.740465031494493 12.148504092875397 2.3447436630215948
Se 5.431263232737455 0.6972888858342892 3.496463920959453
Se 2.3663645960075526 0.9959267338634712 1.3534805656589093
Se 1.3866607612502289 3.697073969150752 6.795794680964231
Se 6.2699986243735815 11.847394024559732 2.9033999030114654
Se 1.2720282578796338 9.364824396646052 5.4354226967067
Se 2.7606191214922045 5.9063204085654055 5.38717582371114
Se 5.431532115805855 11.021646729178386 4.9270821228446104
Se 10.031978347950997 6.25678622607548 6.738982618162593
Se 8.12987407767541 6.686781800481791 5.3280454435377225
Se 10.540181001156514 2.5882330586127438 6.596449754609615
Se 7.197133173437384 10.333885411134501 6.357891816294915
Se 9.492698278395048 4.572247466336419 8.156106458507512
Se 3.1780495229391463 8.749272644248215 8.513066332064612
Se 8.510589809663987 1.4409450738900134 5.693543121147602
Se 4.029339224619307 1.1160359692538626 6.8892904725412345
Se 7.591419268676023 0.3750976564343114 7.546603415444505
Se 0.7249394798277238 2.1767181996204865 8.556630703850896
Se 4.4525777693682835 4.546581660201842 8.746041659241088
Se 3.0160177831852795 9.66990439030639 10.63422768853899
Se 2.0472618153866393 5.55949543338066 8.115304478597201
Se 5.846276776040568 1.77078020460501 8.371573836491596
Se 7.30209453565346 6.678470403822285 9.681861074554435
Se 0.9179156881336158 9.294215966332226 7.731877890882714
Se 2.2571337567483547 0.309810374603106 8.096433931603494
Se 6.745255488646818 8.036213523178338 6.686850643013768
Se 2.3967707411798047 7.8628656739244285 12.104694749130761
Se 0.9605327132635684 4.8257550566043435 10.31328783987355
Se 4.543346656696136 4.479423457516882 10.985374624588639
Se 0.4408940611686365 6.987398136220394 11.147037605851661
Se 6.22091535180781 6.291390590747219 11.59480809224932
