45
Energy = -153.95095289 eV
Se 3.1331342875780934 9.157738183725558 0.70900424396587
Se 5.71437838987442 3.133968853267358 3.077882876395018
Se 6.817597220533137 8.370909579077535 0.1372720608099687
Se 9.730024904343276 4.97689654472152 1.3282400899951687
Se 10.506721145835899 3.073841247085716 2.533518966870168
Se 7.895010897536681 9.876337755899964 1.6006178272478846
Se 11.331520087789636 6.621036703029495 0.9578329628330241
Se 3.9981977656001866 2.287241164047311 1.9510017166557982
Se 3.2451800131731465 10.985619154285647 2.1982518670272753
Se 4.834715874492805 12.82295756556965 3.3745035577016265
Se 4.8656343285644095 7.652458478054982 1.2520625955510718
Se 6.712717047369483 0.6794348760728876 4.007806170513397
Se 0.4416562012329007 2.9849034445500036 3.9295991753274397
Se 11.202339469515836 8.222511678594966 2.73598266184934
Se 8.931340301240933 8.479593178404917 3.225934321046868
Se 4.474821546280033 4.107518233189874 5.000403623951374
Se 12.894050427849441 4.859425129622254 5.128179632393986
Se 3.347316283441687 9.643199922323678 5.809190608654916
Se 1.935067893698446 10.43257882717281 4.0811853696029745
Se 9.256898260312992 3.0314466731663883 4.519654862795383
Se 7.896157363656018 7.596161134517483 8.301136625122206
Se 3.51391835069303 12.278976922079082 5.357902166379857
Se 5.96533797639564 12.278976922079082 6.81343900123355
Se 7.737559645164378 0.23514233921493635 7.657433407815952
Se 9.663442877430592 6.984207224351848 6.078722041521807
Se 8.7948642440062 9.886761046407003 7.882592995250792
Se 1.4584759052298584 5.551631267774026 6.524944698319732
Se 5.880949194303458 5.620163743031665 6.074239780121506
Se 10.76774358569186 3.1709329995247684 6.362495554558651
Se 0.3000623541637829 1.1224624246581838 5.366475310426045
Se 2.4902802850567523 0.9285761443682135 6.2865613582367805
Se 1.4918411437235715 7.563905473214604 11.081871092926482
Se 3.754197147234484 11.568512431297844 7.146952856281363
Se 2.6468591516154323 9.124092236169053 9.716678749980733
Se 6.182487696867634 7.7847372518967655 9.946820121513989
Se 9.903360500067741 0.9675989107854703 7.658132798036819
Se 11.281745945403204 5.5669217135870515 6.759921876992699
Se 4.193929289994301 7.778566485020896 8.57427652141809
Se 13.046989555416022 6.576289071540642 9.74429999476223
Se 7.252266864249402 11.427764573306787 8.645258157560713
Se 6.813916306669148 0.5380940470139495 9.855741518671929
Se 7.19484327983827 4.417544841137885 7.6806065670478905
Se 0.8460532504125013 4.743389113550645 8.663489521164314
Se 5.022814849343515 1.9988182582759022 9.462544871118842
Se 5.931360815388257 4.189936157611472 9.647844616284331
