43
Energy = -146.33304825 eV
Se 4.470062538828152 11.322118598671564 5.715672683420417
Se 2.863496270994837 8.701409638218808 2.071575928428828
Se 0.6107646084684155 9.296386785349926 2.0999954981599096
Se 4.073458782604292 2.15150987766594 8.507210185107278
Se 8.493444449995913 0.8199973411682259 7.511761237539355
Se 6.545022889567319 7.433169034006714 1.4783361237120114
Se 6.795465722985894 5.35173797998706 2.59433547703887
Se 5.187116765046527 1.7452942101903943 0.020352673257398677
Se 3.441452328888088 3.2551413098088857 1.4670168363795058
Se 5.387076150069106 8.171088563791198 9.136789338736284
Se 7.302377355768084 5.040616026714973 8.93123894823921
Se 2.3196785409503726 2.603071138601583 10.010165023689147
Se 1.8771458018529081 4.900673149341972 9.978902688174953
Se 7.222910440841839 1.1837579060511647 1.382366151230433
Se 7.127889277511506 1.3582631758630264 5.666926403793009
Se 2.101005270748529 8.597477025673392 6.653992478342709
Se 9.91199083611998 7.762275830865684 3.800198620790475
Se 11.26920952856727 8.537474552828312 5.506101878379877
Se 8.928209476163254 4.428957692304068 2.1860907804934815
Se 1.8788666756557943 1.6184467777313079 1.7112371650643368
Se 2.7879510301281374 11.30699348702232 4.08546179007079
Se 7.4990042382624384 7.304611305743183 9.708961809949093
Se 4.107380884604968 4.441143481997908 4.514928022887221
Se 3.9302148273466773 7.95319995423848 11.022211080935302
Se 5.0596467855001555 7.196261082274675 12.180443040432504
Se 12.45385071412559 9.021248075496445 5.857499885983726
Se 4.0154375050162345 12.433515459139123 12.405815686570481
Se 7.714464074312189 9.094319785371303 4.268712724727959
Se 3.500030196097515 5.741667829157989 11.57415930115786
Se 12.250642109253754 7.906692989311315 3.8051186327783446
Se 8.657989735894486 2.7652783972865818 0.48451173896676547
Se 6.342424853124577 11.30699348702232 4.486307005964691
Se 7.0957343657929055 5.215218253481709 6.6191924715638075
Se 9.718091964844799 8.079757917440515 7.285951558883591
Se 1.7439565606763414 0.8719294360425901 3.990095418876397
Se 3.144058236646525 10.694547357070672 6.597464225053817
Se 6.561872862169789 11.832607439358593 4.708524615618054
Se 4.653976615063936 5.426501021821193 6.4571673547900055
Se 5.967365644424183 1.9894783774814084 9.990084701695855
Se 3.0170616223479314 6.732475022594445 0.6486638212185366
Se 7.020499641238583 0.05490337329703491 9.210609086962853
Se 4.035911257922202 11.036302484583508 4.393497969462831
Se 8.201414707940385 9.71191646674132 6.55116364579387
