40
Energy = -135.7205211 eV
Se 1.9945880935890918 5.250363222474021 1.2593411067577138
Se 7.6394623747757535 8.231401658042538 12.568465388696891
Se 6.483058145721022 9.920967957242315 1.0717618047248336
Se 3.816223036798802 5.505025992313426 0.03858305192730078
Se 8.47186935870226 1.5360295929601833 2.3978058199830317
Se 8.317814964014529 6.62239783569739 1.3369232632719243
Se 1.363059366249252 7.6684724349803375 1.9003003888505838
Se 10.364644263228422 7.277176116647546 2.322634827560033
Se 6.071348314975372 1.7372605433619277 3.3568996925115697
Se 4.776893463407064 8.954170705430794 2.259553546951156
Se 2.8718127640195608 8.81797135293884 0.6777181788681578
Se 0.021162485266831666 4.738242799127847 4.050848733693885
Se 4.84786706380083 5.249634382633315 4.080502819638413
Se 5.616432205425946 0.016951664280525247 4.685079628561103
Se 9.731152472080916 8.961040553773165 3.8626735209784044
Se 3.2312287514733478 5.311895766217584 5.832532332005168
Se 9.974756832163465 1.0453929226679972 4.036351324794495
Se 6.581838890433165 3.8451259887110303 4.747456459117186
Se 11.440340624029142 5.9855674776739525 5.6764015629654
Se 10.917796042605614 3.2172836906292797 4.616879162152464
Se 8.315348060454468 7.9322141576133784 5.436062620076544
Se 5.272953920987326 2.801776550191596 7.3952982255078465
Se 7.083100174601782 1.3081200685525238 7.516343903069231
Se 9.736565650650824 7.532663987523937 7.3465947422578575
Se 1.578777625896029 3.665237899443711 5.398268727224127
Se 11.440340624029142 3.151417341665872 6.881046195425734
Se 0.9801024054038157 8.899985617470048 6.433210292663896
Se 0.0819974451683078 6.771720472302434 7.281987935286296
Se 4.87517241665488 9.012616653247363 6.899838231698963
Se 8.563804263375141 2.2038502056386045 9.164056083511433
Se 5.820150198290744 7.032884804242088 7.736263123414677
Se 9.620219053378023 4.039573590857553 8.142152694178835
Se 9.006435954900493 8.91313772908953 9.002547903384487
Se 2.432840592839263 5.397024464019615 9.762534026792672
Se 2.7196787688525044 9.406312006697165 7.885976528781907
Se 4.306158708326472 2.0814994167717358 9.546298778995322
Se 2.1890027427413865 3.00795148451798 9.647325383271365
Se 6.750424929409334 7.568275476534985 9.875586949228667
Se 3.6724918494030483 5.920870996135796 11.697984226981713
Se 5.887070547507599 5.5446733683958405 11.037896259869196
