47
Energy = -156.5542754 eV
Se 6.763789972193324 6.573775615081309 12.00584689818354
Se 0.7459992173979243 7.743879053317754 0.8268721620070738
Se 6.9985613289262405 4.359157183404088 0.67341968515467
Se 2.885961619076532 7.011809897235163 0.3117344115674587
Se 4.193222313969766 2.246993079023474 0.4229444685547532
Se 3.0019139858004196 3.8420202528070315 1.624423930526102
Se 6.319526740990557 8.234695332797509 1.642529558945856
Se 9.342587788371688 4.109190468836319 1.3956248662995783
Se 4.8093455841066355 5.203364683590377 3.0809941749523495
Se 4.283483120262787E-4 7.022255608698633 2.97745774554951
Se 5.428727629256685 10.716723077039738 3.202206538397263
Se 3.9759005407265513 8.641612029643577 2.0475315101895766
Se 7.416824990079989 5.966850763601758 4.342455511546741
Se 0.8302795019126603 8.913374565798788 4.325802641020718
Se 4.064721398627696 1.7602606616633247 2.942829641431316
Se 0.44985538540887315 4.163169103342707 3.9331318720420945
Se 9.188452139280743 2.1277353290005876 2.603461244306601
Se 5.76295310665123 0.2937844101932533 4.2496141368393445
Se 3.5896672852088494 6.916817742104247 3.9296491463025105
Se 7.180770330822096 3.710516541366277 5.212012155894687
Se 11.384956241170164 4.254888116918945 5.845430525341809
Se 5.624507723558075 10.556679354336454 5.510975623345191
Se 10.448241594622123 7.674631162386453 5.158434012167614
Se 9.279794027720566 2.7535880449636645 4.917647517963147
Se 6.717307497675003 7.350912557961679 6.026064957762172
Se 8.907527705442138 8.665479006000277 6.640181837274608
Se 1.0809251329953156 4.759469293697009 7.56001109846117
Se 7.848440962462162 10.891830518235098 6.129198073546782
Se 0.9592189050609887 8.618756091061789 6.677968591074188
Se 2.8793811133050866 2.244439525909401 5.4042460462568975
Se 3.168901512539454 8.343624862601905 7.753683650768605
Se 11.039883419088936 3.4908741731818247 8.15165546961888
Se 4.4215142430545455 0.5582006006628653 6.136468494270749
Se 2.93833356540535 4.730775022413988 6.25649568331171
Se 10.376854702255633 5.871858921947588 6.674056069874033
Se 3.586196638765802 4.7470510858490345 10.247609706685202
Se 8.110484224111989 8.150515682139519 9.926448801286814
Se 7.728339974543323 1.2590977566699315 8.328244087481156
Se 4.911736051406228 10.094706330794166 9.185166952316733
Se 11.384956241170165 4.6462363575786005 10.213329166327402
Se 9.96132603100715 1.4509910578045762 8.929338631692776
Se 7.8027286989769165 5.8224261667902235 9.677261458728944
Se 4.461063373852286 2.9298523978496402 8.90943492862514
Se 6.146886087196466 1.7178378874069264 10.054291246322615
Se 9.243170235390172 4.71149853687937 11.186259260605294
Se 4.350092979458512 6.823846607657859 9.636412108626462
Se 6.022838533028479 8.982773958961332 10.848240322935846
