40
Energy = -135.54081905 eV
Se 4.658226498947961 7.4266579034196925 1.005123149291855
Se 1.6591977746350413 3.6594865532697836 0.040738484066791134
Se 12.731763725368658 3.3604596309531494 0.7017694459733221
Se 2.5704082556270675 1.6574150703631074 12.488324410499551
Se 3.853225679909435 9.212524533196463 2.3374477281140322
Se 9.44404056837619 5.306493449276709 2.348078409867096
Se 11.067351294712703 6.39703877214709 3.581423557353843
Se 1.2003103779301147 5.93901116159171 3.8101498850187436
Se 4.183695062201439 5.386301429869077 2.0590623047911962
Se 6.389005104191927 2.7857349562054465 0.7881324720951912
Se 3.451890523577195 0.3239764729655856 0.9473572963321621
Se 9.256044724498857 3.061787017774333 3.253791503427896
Se 12.87008831992849 3.2487550649773533 3.145006338262452
Se 4.794223730040736 1.7901096720907956 2.232360803316564
Se 5.555014257786956 9.381257505478022 3.997390701968842
Se 8.54364172820579 1.9466301454928963 1.2037082682698617
Se 10.274294260990503 7.004706776000256 5.826650992386004
Se 6.111024436388348 5.597634630666813 3.6281966075088037
Se 12.502658655876289 6.727473934399706 4.392302460228456
Se 11.067351294712699 4.399080172982192 3.7939754816289084
Se 10.532397215043604 4.15316216946793 5.82658449741676
Se 0.08455708166119635 4.334394013847192 7.008533955926353
Se 10.173923527869743 9.498364066945774 5.7973422957181
Se 4.607849484484964 1.059566308348365 6.779746456489346
Se 7.8817434522038905 9.840011435131379 6.225694683991669
Se 6.664116641281817 3.7007721022410704 4.747150114685182
Se 4.122057834117295 0.5897398898378612 9.024650802173596
Se 4.4686223634504545 7.971473544892686 5.638637570049482
Se 9.578506727873517 3.2522132260628274 7.767546063972138
Se 7.694546931018213 1.8710905247241412 7.258218857789865
Se 12.26037632562475 6.328073530794611 6.908690436319734
Se 2.3711062411784187 4.7777790834391505 7.538392620606337
Se 7.750708924765213 7.57813321354162 7.268765165556125
Se 4.17425300936353 9.221592685045218 7.525608038596306
Se 2.0762378223532094 1.6658193120223268 9.508649618360389
Se 5.76678477177304 3.3060138495130587 7.342069651884306
Se 7.408640793603971 5.11888513617949 8.763875426567152
Se 2.5143943059694265 3.97647421598586 9.764397935609571
Se 6.221721085411985 8.555708802111079 8.920323226047055
Se 5.773864964084245 6.417895348039174 9.929863286280092
