47
Energy = -142.33321553 eV
Se 5.720446665924901 8.490527662114614 1.1830570131875064
Se 7.377406542552889 2.3777024226295165 1.3860340912077178
Se 7.921249357393496 5.382827899071781 1.3647079209645718
Se 3.830808461607919 5.0167912649954225 2.7548794699251196
Se 6.293182984387659 6.4901205384378855 2.4747793299800978
Se 9.160432334931052 1.2395168734515767 1.8174921351629916
Se 7.456502879155349 9.062933218119767 3.268589578328296
Se 5.131434033863765 1.411362828067107 3.3494185101937237
Se 10.003598579613575 3.6311803195812526 3.083807075687881
Se 3.9224615155588696 9.588985503335634 3.1165060383884557
Se 4.128212895379809 3.0957820101963853 4.715018761926039
Se 3.230766702987003 7.166324191553252 3.9428076911992904
Se 9.529556797242599 9.012323428962452 4.5569650476126125
Se 7.268517355898397 4.104243706064575 4.058730477288989
Se 8.118283245427309 0.8834565501669215 4.422768157210775
Se 6.570558466620856 11.66890606937236 4.676559150767476
Se 7.1692763301653155 7.1802711814137306 5.040849502858423
Se 11.2947629582269 4.5575957161822025 5.13102933894632
Se 3.5749491109441323 11.298717510396285 4.85934569460329
Se 9.007579275114379 11.622989946176713 5.077481589374337
Se 9.788903350122641 6.5665387358343015 5.395794189046892
Se 5.289161495689429 8.367675571831052 5.985781499844417
Se 2.03475028624906 6.7498101390585274 6.401429109045094
Se 6.170927836038549 4.55948921088731 6.406185108550809
Se 9.5590271292914 3.4012088011324653 6.961110116657923
Se 9.49141471085873 9.89812388385619 7.4445380855196985
Se 8.584284844201605 0.8369736949972542 6.861080749365055
Se 2.4476087449758044 2.345639040426674 6.098162933448241
Se 0.851736173016678 4.629918663634033 7.180635866175361
Se 3.6700046821425936 10.319415207605008 7.219619246170142
Se 6.846198799875372 10.944080872218917 7.299248022716425
Se 4.0934563898877485 5.415115633782477 7.242274716592429
Se 2.479522952188658 8.399063203779905 8.389029089724081
Se 9.688347013919435 6.702746180720259 8.376430360774439
Se 6.164095114595651 1.984549752256823 7.356991264535192
Se 6.874299855254601 7.5986074591703145 7.685569498540736
Se 7.30999471689089 4.271007899125899 8.883315111808665
Se 9.794885356989534 4.335276762064491 9.373765184299625
Se 3.9943904289137246 2.1646956027727122 8.498300827030468
Se 9.443588953767824 8.59585522909851 9.706372759496455
Se 5.49669826517943 11.635289406955382 9.047259192619492
Se 6.054405905481617 8.92948936443128 9.654054768584896
Se 1.9368217737836748 5.172519828307336 9.803469789236912
Se 4.499671048225213 7.318225497717671 10.527832588407271
Se 1.5284539941348934 7.290099564703673 10.719882101014514
Se 5.409165189633407 4.996783096016841 10.04748408348057
Se 3.5296400533759904 3.0306844150065415 10.894998720180277
