41
Energy = -139.72834185 eV
Se 4.780008893976264 3.334010796868518 12.18877774479563
Se 5.082217712716335 4.996123966021684 0.948904628008881
Se 5.66243353006616 1.2760543262997668 0.5367003497373262
Se 5.285719483912702 8.940438669123258 0.39877423783144766
Se 9.906014235371375 1.8166145281280177 2.759029908512687
Se 3.361978905188089 10.04016116218036 1.1860340936052414
Se 3.3199799456280217 1.3306505501164179 1.6297291468307082
Se 9.453335498653713 4.125907218848646 3.2308605453693584
Se 5.915475307838084 12.496487711137503 11.889800749647373
Se 3.237519664082367 12.621323084085175 3.3119275034209155
Se 1.674044725528903 6.6895485182418675 1.6414289761295944
Se 2.3356113001720975 8.64648201451795 2.824380789937899
Se 3.160679857145981 5.016634665635568 2.3637068076384615
Se 7.204349687291663 9.472438552420789 1.662717519010899
Se 7.326328014175559 7.7509579539946145 3.2907820346775463
Se 4.469184018948286 1.1143231172089512 4.980559971030792
Se 1.616792309943877 10.876945283291976 5.214401509267601
Se 7.3953268491830215 4.256705986749679 4.373762086763358
Se 9.856884562618827 0.5960540748628395 4.729926354318085
Se 7.775705877961877 12.26085923027303 4.077717246299247
Se 4.647107017644874 11.144025367019173 7.486685452106841
Se 2.199550048941138 10.523176944898918 7.345203763834862
Se 0.19409233970006481 5.768875525752911 6.862877919185871
Se 6.8344409095093175 11.144025367019173 5.802111606013528
Se 8.403295274317513 2.685831083913296 7.672562283900821
Se 6.469343971900016 8.779166558073197 5.246900684131042
Se 1.634306815792003 3.7627537864562237 7.1115128439386766
Se 4.968134341406973 12.572500467580339 6.71090971058852
Se 4.20638793500928 5.307851370089294 7.579132493319337
Se 8.10893217796174 4.789734355610443 6.544212302815389
Se 5.102843798400026 11.141025186203015 9.765565094264726
Se 8.387983575206182 9.639652113958608 6.337117151463346
Se 2.9845531281799995 8.112031493946136 7.726859687445271
Se 1.0081120948561086 7.130497307550766 8.553166426292666
Se 5.9192958142456 8.997521001249925 10.37408050622964
Se 8.861233105265796 8.106370696803626 8.077720307185816
Se 7.498520515833827 3.026545768150216 9.815294697103685
Se 1.5873261836546761 3.099644855593065 9.231150379402282
Se 5.225349467826975 2.4386859998611157 9.824139240459903
Se 4.092295745839588 4.599348144843779 9.69715813245892
Se 8.251769343571238 9.188995594539632 10.085187665952876
