40
Energy = -98.13170041 eV
Se 7.340314340952106 7.824417715416135 1.6783444982612503
Se 5.587591715105821 6.7482522419151305 2.9759825126945603
Se 5.194799031660733 4.518605990236738 3.911173252697469
Se 6.688093489587964 9.591116281280746 3.3238209827523684
Se 9.210108225351396 5.2221076612994395 4.668963638878
Se 3.4187789499604393 7.894094796537034 3.388806742029564
Se 8.20510670179756 7.233415954090946 3.897113660030339
Se 4.425058915558651 9.911322748923032 4.167750862048754
Se 7.034400710654558 4.315933507425509 5.419612180234556
Se 8.050656164619745 11.235089536889888 4.563061719686356
Se 3.484803715277451 4.732206108604237 5.649266161401401
Se 8.656184553287456 2.932820838033137 3.8885696328495896
Se 3.6438406424330134 12.079739804208987 4.853182592468081
Se 8.193070986075186 8.992330225355538 5.448465514115116
Se 4.923125242565107 6.832887750265149 5.396470594673608
Se 5.916129594600414 11.538325193447182 5.773968907695044
Se 2.3260583374267507 6.870623368861565 5.3204151197679
Se 10.961960182238268 3.217720453940629 4.950734630114938
Se 7.334233020621746 1.8686753346343272 5.961540948371177
Se 5.281692816747311 9.105361395860074 6.51652021903736
Se 9.528820027934906 2.4629895043134096 6.841486402981631
Se 6.429362386103984 5.98635394273213 7.263428929442659
Se 10.20179048076407 4.8829500603741325 6.844992254641966
Se 6.504018203081844 3.204589520088585 7.796901669665408
Se 2.990972195587469 8.362996383348525 7.14957774479271
Se 3.109877802993711 10.735911984484595 6.95368564301433
Se 4.419894844659851 4.51545426089635 7.876584922393126
Se 7.798750270278661 8.069711085326622 7.603712898755961
Se 5.2408886529986605 11.257306565697933 8.092140936940377
Se 6.159912555283285 9.161474616780113 8.946272672463136
Se 9.913144644845737 1.3012315205158242 9.012302869189279
Se 7.842032669215327 2.5760185135455105 9.880541915025864
Se 9.274143773144289 6.502107346094358 8.626925470772921
Se 11.54922931860626 5.617957627127667 8.75800020263763
Se 10.190500554297893 3.6324857253244374 9.208381626458786
Se 5.573058963387083 5.88651937375039 10.113436391548833
Se 3.5474842899695456 7.313806716110329 9.248581172746622
Se 7.654406038071825 4.961261397213842 9.427486722709327
Se 3.2738260515192628 4.943764171081119 9.955632965772596
Se 5.139834909581776 8.178018746815503 10.864118187085865
