49
Energy = -166.38979407 eV
Se 7.157422209852733 5.446801074662332 12.19148974009644
Se 4.889799547864116 5.309763967494518 12.757455781254402
Se 1.7462039827016227 5.459157155343741 0.6665888589459102
Se 8.495971633534984 4.859607067537277 0.8218295072267533
Se 3.0262555543610237 2.575901638735918 0.7750121301970189
Se 4.9392536160029765 7.471574677742612 0.9395923120946678
Se 2.735353539764144 7.201586556597525 1.85893378158811
Se 8.342483882534172 0.9759304238636493 1.5745505569436704
Se 2.8356894277371296 0.3764175290428459 1.7957308518164032
Se 5.919543889345973 11.250659548672973 1.1996152129668565
Se 9.371774478545305 2.6932775813718166 0.3545667666828671
Se 4.219240618396204 9.841323282973152 0.7854946472371894
Se 12.28498300640877 3.778046961552193 2.5499614351408613
Se 1.7778556079143504 3.5536359465756653 2.546579974100377
Se 1.9634862134316005 1.2909365085734053 3.7508706862580037
Se 7.734686235180289 6.801398637243017 3.608346447609734
Se 8.245657388994465 9.94240476867772 3.0264843446099863
Se 10.54729776483654 8.515334771962504 3.1196163235667327
Se 5.4783481092971975 3.922721277203466 4.626102843427384
Se 3.209962411043058 8.065229632199577 5.611233492368614
Se 0.18928413723029383 6.1061096252860105 5.275487755485571
Se 7.732097914198352 4.653099971815667 4.6457030813584534
Se 8.707753796712142 0.08910738988955322 5.331723853172828
Se 9.88631172929769 0.5743144129305837 3.3690396359579955
Se 11.860650683011796 1.9603399189586392 3.823747399559214
Se 10.754566904047376 8.370430492760343 5.330574512203444
Se 2.7578289828152203 0.9616948976861539 7.664703367305492
Se 3.7682771792369585 10.19754389801049 6.355768729122264
Se 8.295034887108207 7.6652375411950056 5.9452719678791555
Se 7.988750636314242 10.090485664694572 5.275314996035195
Se 12.257808951123431 2.7114237463343738 6.125422277068948
Se 1.0082654272544846 3.864174981702357 5.87777539357363
Se 10.278585502550408 2.1101135531080075 8.132334278217208
Se 1.1894382092973494 7.472046895101358 6.856823925781278
Se 4.71340350096111 4.068030318261242 6.865122083006089
Se 11.172478218811001 4.251691043700285 7.719625533010022
Se 5.531869444510661 9.76981110675214 7.895554722097612
Se 8.994946141999353 8.707996419393522 8.313764357369342
Se 3.8230232183827186 6.1675148874037955 9.551636404451534
Se 4.954062035833043 1.8676490592379082 7.72638143751739
Se 1.9835406072874804 0.8893810948233338 9.885322096172928
Se 1.1459954099683696 3.063930350738763 10.392490717965801
Se 8.315004583013964 1.9145428732583192 6.802476551846252
Se 8.550043085612446 6.657746810757953 9.345540281098039
Se 2.916479013849709 8.280595381772088 10.119736942922433
Se 10.622836467804376 5.5502484668856775 9.62070365451742
Se 4.411814529613613 4.854887367877997 11.392561144657073
Se 4.640556777988973 9.887391342236512 10.096412711122019
Se 2.3585061807787806 3.9154806647877156 12.19148974009644
