42
Energy = -141.31796593 eV
Se 5.575825882973382 8.987488395902808 0.4749509254216741
Se 1.504182156466235 3.3977419150066908 2.468629402243612
Se 9.032499484634762 10.106190572371322 1.7038758008122048
Se 5.886065788736173 3.014116166261447 0.8176590202919451
Se 9.193197479333056 4.409288939475255 2.149762774843052
Se 7.765108403349407 8.241079801675788 1.2299683031531135
Se 4.314933198169784 10.069375598356954 2.0666708529005904
Se 1.475813821265134 3.067057377279579E-4 4.1661913072376375
Se 3.756985732497876 11.228443314042204 3.972773250157359
Se 1.304088393581365 2.35760891940853 4.514507360684948
Se 11.50219140722515 5.950850331172533 4.443015093016888
Se 4.000281050812138 4.0797001097538566 2.4362474487085644
Se 2.316934671789152 9.677219344577754 5.088177716258278
Se 7.893762341423978 2.5410627929401968 1.8075010790212318
Se 6.986486800688067 9.189780035929433 4.673392536764049
Se 9.086324521332443 10.047660121399309 4.211107431803796
Se 3.866996462313469 10.032416285612971 6.820191626147063
Se 9.830046346870612 4.347902415795934 4.841390921656166
Se 7.306229452872996 6.832122885088786 4.295575469710876
Se 4.694656344007662 3.2589110064791678 4.5097044901677155
Se 4.769960036035766 10.795800339657958 6.04891386504863
Se 10.06679463948097 10.571956392603195 7.3249950459487945
Se 6.481994232940617 0.6665609708315157 6.236939786195482
Se 8.039859772902322 10.795800339657958 8.270073025929314
Se 1.4531235097850594 5.64284671469775 4.989021794816385
Se 0.8304585007846911 1.8369359685879014 9.732383982314666
Se 4.464875487439278 5.1301917459622945 5.958988287604071
Se 3.1879742560081814 8.33390358615085 3.3851745373833007
Se 10.744215171386559 7.721521660352797 5.867006810349126
Se 6.807683937904896 5.675717264869852 6.2980519498642575
Se 9.717645676931896 4.678959025431516 7.444139951191017
Se 3.808891131053446 8.029896079246413 8.214547062102998
Se 6.965486908584644 1.0957419572582723 8.508994640961028
Se 7.525509268016393 8.597595420205018 9.16234852802799
Se 0.9766187468810589 6.8657124694114176 6.896486564250056
Se 1.7640402096561312 3.5206541756849523 8.63335466323775
Se 5.302418856397478 8.89780638648873 9.83694238694362
Se 11.213765945441194 6.417405733747206 7.833674206259097
Se 6.61439720399796 3.290257596376454 9.303220362444163
Se 3.2911803217557543 4.856073128779688 10.187665932806615
Se 0.07076324540048615 5.365210817639807 8.499198828374064
Se 4.8153176793285395 3.273163880630242 10.882169455403075
