41
Energy = -139.56411651 eV
Se 3.9140595216208482 8.933675711337385 3.4768934817484882
Se 7.423441450547697 10.212795503388469 3.3247084958854822
Se 2.3961293443294425 7.711309640899791 6.8356615344722425
Se 7.412322102242587 10.672018768178361 7.05880148441766
Se 0.34112720853532436 9.895022938618945 6.779951302957661
Se 7.639892823182089 5.830277627772353 4.909030620603774
Se 8.01809249248692 9.278187654736257 8.85942039565126
Se 3.8178034807557726 9.166832497773498 5.920341027086218
Se 4.596195852708972 4.428367930675418 2.5020299533208203
Se 6.106886972870323 8.210091038351777 3.0951120712631512
Se 8.786477537630434 10.003522247027314 5.194091397152217
Se 6.924612669021515 7.205165654905423 8.748643405591922
Se 8.161438465351301 3.5916342992481076 5.312855919731676
Se 9.723872982982229 6.263922254125674 1.4527512147007486
Se 7.913541137848782 3.5855116971231307 1.0341576063070979
Se 10.191280373749288 6.0027382683472235 3.6413889629655714
Se 10.336092947862353 3.6089215885494803 4.24233481450881
Se 9.04121708412911 6.168010870470459 7.942244327283516
Se 7.843612601054268 1.2253699837100143 0.4890556486850857
Se 5.844346617775303 4.431565329173511 0.4001532345459351
Se 8.957064392530286 0.08104741820748239 5.524400333896046
Se 5.317874400886711 4.09029316977559 8.039950608180686
Se 8.966030646238487 3.936672081401411 7.907055137302327
Se 3.9954413824971238 5.351902163381513 9.558213052144657
Se 1.7370964303773255 11.256221803107243 5.702376024693265
Se 5.344218983452916 4.858355896920582 5.797190115319231
Se 0.19253635825810245 7.718395896667808 3.6837858627069844
Se 1.7177123894020514 5.095615908220417 8.975543743898651
Se 0.9726041485581686 2.897190109706507 9.383367327635298
Se 0.7095413469714035 1.9294584094825111 7.229406910125591
Se 0.8394305824322623 5.5880335461613875 4.678728356013602
Se 4.042914551214387 0.8523899909617378 5.706722944177204
Se 2.6258370775638484 5.402764192150178 1.6043381801340333
Se 0.9905220509374728 3.8128219303834663 1.3438501857002698
Se 11.11032309165027 8.782341058252845 5.174896453881804
Se 12.022429627254365 3.968787496089372 3.5061835595129205
Se 5.771536186671967 1.0314071224657846 7.3369336197985335
Se 2.158249079682077 0.10145051886920153 6.908377034081873
Se 7.310598345564575 11.568577241860662 7.031260478115227
Se 6.860481413102358 0.008565995218560099 2.2436305267909034
Se 8.572947161168013 11.256221803107245 3.480993923371413
