42
Energy = -140.74097117 eV
Se 7.008245801988202 6.782961718099084 0.43527311760624166
Se 6.834812567636677 2.805816491232669 0.3162490657210375
Se 4.554239397516377 8.296454594710754 2.04204618650575
Se 4.985983588197741 2.4595040712453535 1.5364552101947426
Se 8.021404404489543 4.984246808518413 1.281019463686534
Se 3.459036857331664 6.160351882479359 1.797181666724146
Se 9.128897205058383 9.424838052946807 2.8934469846081483
Se 2.897014900872107 9.926511894005214 2.4792313237096844
Se 8.806611656228645 2.438166449351738 3.357455223812792
Se 7.2510952738917815 4.403413034538758 3.6583705341790433
Se 3.6259149787610077 1.3085881923248415 5.028262202956822
Se 2.382999147095425 5.845175992258294 3.814223479411761
Se 7.175419747484122 11.01256481214306 3.375666969707951
Se 9.459395635386358 5.537328256063042 5.077678261186944
Se 9.584160375678737 9.304193163073085 5.15316072497775
Se 5.3634191295858615 12.299974222259001 4.839528977733122
Se 6.343764712325658 6.890052428036325 4.446223728548002
Se 7.7623203643964604 10.817418278271457 5.7579722358685546
Se 5.874917391645162 1.2303056420162717 5.79509784639301
Se 10.436508951449175 3.3141000757791614 4.815968745782158
Se 11.151182456884818 6.016939910341694 6.848429676464316
Se 2.319559587458549 10.027614654043976 4.763683161815549
Se 4.324700035641143 10.5278993433295 5.9456204850926575
Se 4.088021348496828 5.020366163965385 5.340391915288978
Se 7.327324908189432 0.9053985822023054 9.066732748641996
Se 2.7781786412869103 3.076708958392001 6.312158673124545
Se 9.281696762220832 1.882444530081909 8.11653285540781
Se 7.4487114671560075 6.396258703197397 6.455244234278216
Se 1.8171476339812649 6.923126615122955 7.720085403876166
Se 8.420210206163691 10.27672081816663 8.417737732956006
Se 5.480860805284569 1.956361799400124 8.07092667365466
Se 9.860627078064681 5.644059728342591 8.765425217497265
Se 1.0528920893807325 4.834092850220018 8.587028680538504
Se 4.11648243857359 6.6808344555129295 7.417969449587238
Se 7.268237448777088 8.375978777607482 8.978267503710411
Se 10.329971873004865 3.440914284143693 9.534106522337835
Se 4.866974274162698 8.745738602614844 9.267956293551084
Se 5.489245093266992 4.861488139921891 10.575973759851916
Se 1.6733089984697598 4.676383747469603 10.859368734805605
Se 3.661220657676443 3.432374814537334 11.080272495366312
Se 4.321615695539555 8.310194409592583 11.56191346825481
Se 5.751422232684561 6.531887871825254 12.199416183968971
