41
Energy = -139.41431114 eV
Se 7.459359773064294 2.012776639031003 0.25018887301236703
Se 5.542102630976748 3.458627423998655 0.15354654726688058
Se 5.6533036028186565 4.582869424472492 11.476622461486206
Se 6.402118814016655 6.884542514470443 12.137851126587668
Se 6.424543823506698 6.914921861281911 1.049557443106746
Se 9.04512515895763 2.727627119912458 1.8028875773595932
Se 1.2048969932977984 1.1876529008113519 3.555065552644135
Se 5.402633274422271 13.055394409605078 3.3233998908055766
Se 3.3780752669928495 7.877020041276547 2.6478818398699935
Se 7.68042444727984 13.184544482943952 3.9906504751938283
Se 4.3281980677611145 0.8130675853460242 5.151103880521814
Se 1.947508655289488 3.278247536531651 3.6534730328141904
Se 4.382842252836764 3.0442346135687464 4.567549312592961
Se 6.832951612961788 10.066329931401125 4.152895598775197
Se 6.228000450936248 6.355588391234885 4.350949759391409
Se 9.76940921455817 6.2359846566935415 3.5444534457812416
Se 1.1764579648263984 8.424177065318723 3.2791698392799
Se 1.7832663787048277 11.335563225653395 5.877142655444584
Se 8.160786190034537 2.1529840777382976 3.954560609887268
Se 9.147025918530467 9.914611278973924 3.161870833551332
Se 3.883123411723165 6.253093073605804 4.371846701598547
Se 10.251568855537407 8.466652787219669 4.500962364213103
Se 6.574165723239617 2.0474298621566875 8.997064770156637
Se 3.962615313052285 11.136184118696745 6.750784038705835
Se 6.810902201020032 8.314806387928318 5.63590362449479
Se 10.921936165565741 4.9988857747919475 5.159004602728399
Se 0.45691719886974425 3.7211951338343265 5.68699034925528
Se 1.1086795717227176 9.08881605248801 5.548651180123105
Se 0.3917014289657912 5.810490734555575 6.636149095098301
Se 4.7338802232930774 3.1796611120084375 8.459563541149556
Se 9.474979355394781 4.256623153170476 6.867604179793155
Se 9.638165153376633 5.935311389037085 8.583922497494045
Se 3.1778619726573725 2.3664656220123477 10.42574526526953
Se 4.50123368441157 0.9443967902129976 11.476622461486205
Se 7.595577769823066 6.960405649067229 8.712590734740441
Se 3.7101223868053 10.709821758573392 9.063266417413308
Se 1.9551011729054537 5.420214459268208 8.503843990077861
Se 4.11697849150891 8.435140508996868 9.511405832292471
Se 6.448626336190235 5.528137489801492 10.504698365901527
Se 7.69700275938459 3.692582713608695 10.683337143836265
Se 2.04861954143598 7.270731773859695 9.883033613957164
