40
Energy = -135.6372104 eV
Se 4.508980394069949 9.4231046552255 0.16030360563647977
Se 2.74135208575403 2.7945122460055636 1.6279031058351061
Se 5.165596827197211 7.280495367874586 1.1716344852641007
Se 7.3666360457364535 6.991226708165552 0.9247615776972093
Se 4.7996516074592455 1.976112562689281 2.4045144396681835
Se 5.935886122085891 11.068900279725412 0.9351674286209251
Se 1.7158076650062237 3.6969614103265247 3.5534659910130943
Se 1.8371572207502904 6.309561501278157 2.9587961602767927
Se 8.571452217228753 1.5302655529906553 4.1312901660410475
Se 12.086659613487422 7.035588854540545 3.414871189035907
Se 9.952450462955248 7.599827307291473 4.965788592710194
Se 4.932286859963222 11.81364487277564 2.9949794856484657
Se 7.694561247081298 4.928970550642607 3.6634103245413776
Se 5.367214178518193 4.9029241215828 4.202438143528111
Se 4.8861186825741605 8.70955625540981 4.922748631634583
Se 8.864731387791375 9.547465410501438 4.4904476949932
Se 4.243201189839483 12.332041572085673 3.5871287936325356
Se 0.8609184970259347 1.3676029736663564 4.468823172215639
Se 9.386994150439262 12.314935102994452 5.583281736266615
Se 4.871696987731882 6.548250552821885 5.8583729128319835
Se 6.5941775591025085 11.876637031157882 4.605828954062934
Se 11.51179309653772 5.652164306954138 7.526317386972579
Se 1.9678138357046984 1.08782679116084 6.412374231495962
Se 6.887401776534983 9.579289928643243 6.013899806961793
Se 11.612830774441159 6.625282591692641 5.720891866142441
Se 7.66584967113656 11.876637031157882 7.197079236017587
Se 4.318464055599705 0.4836028278193428 5.811909290052045
Se 8.919590565783185 3.6804852223777513 5.2218493238666115
Se 11.191839888668577 7.83016329346293 7.1744901117338
Se 12.19997649340167 8.508430602890794 7.010388191029409
Se 8.647121037209127 0.05235906640239151 9.26845355977757
Se 2.069281422535171 8.220670386977138 7.658984174216352
Se 7.452385886700929 7.404000248816431 7.435096465628703
Se 4.065823709143216 4.095710931111931 8.268657211355851
Se 9.139567823035627 8.680723774633186 8.411910333216069
Se 5.978495301299926 4.818988227345368 9.461679411611101
Se 2.1303983406310905 4.77646799196795 9.466881546573498
Se 6.903392889661312 3.139498740839682 10.841855998467093
Se 8.789172514757984 2.3708435957021385 9.623113905696776
Se 2.2125161216832976 7.115515756556342 9.74120324837297
