41
Energy = -139.20946211 eV
Se 1.5816366604743155 4.787624600591786 0.6260940152996515
Se 6.0419178722572795 3.603573693197333 10.80599695388331
Se 7.3947288448099755 7.051105757273093 11.41939321531279
Se 8.04425604361166 4.785993656131097 11.269711156438268
Se 2.167468565498049 6.991006280562385 1.2577700899901494
Se 2.2132557731799998 3.2056232198607364 2.2671027746054984
Se 5.636686076572653 2.1019307598866694 0.7157843763575832
Se 4.571083777046916 3.2410647872450826 2.518545539677647
Se 11.331252493714164 5.670567639044228 3.2069787471450466
Se 0.5022690807013682 8.099040750226589 2.4689989290881598
Se 4.175208476362721 11.556351625991635 5.637113821882614
Se 7.105818281968981 7.7801199021329515 1.7945172982838098
Se 9.940866032381642 3.827081560340218 3.687914716352585
Se 1.1721570118395686 4.6060114222917425 5.330065395492015
Se 4.326912646559384 5.641613278766624 4.604498347659839
Se 6.6173200522451445 5.361103049428494 5.330872955310423
Se 10.187001251249143 7.543693103283724 4.102540353032263
Se 5.894389860176718 1.317826452695646 5.38264539436613
Se 9.208152302586347 8.742121878856715 2.3349598781656375
Se 1.4896060499090638 8.236450130595726 4.707847585871391
Se 10.669303745211522 3.015671235108967 5.785864299286693
Se 10.529003395737405 5.8022576890450255 8.26417207766646
Se 3.7041467040951717 6.613941222625669 6.761777636595755
Se 6.50715894803277 9.119967856825339 6.0320283672657276
Se 9.114758294015282 7.635774613807759 7.674730715345788
Se 2.1176624904882484 0.8721285403803476 5.768864008156086
Se 11.649299720903684 8.02965440926183 6.210668823917244
Se 6.091459253780055 6.693825134921814 7.3252199820968755
Se 2.811718504515507 3.879467006422916 7.609310945201591
Se 9.274665340625196 3.921172231082272 7.482899555783171
Se 7.018511389680929 1.2912973274202817 7.45943128046014
Se 11.331252493714166 5.520854689122664 6.47880918284916
Se 5.793373667469024 10.199470672181508 7.988867007749596
Se 1.853944121152486 1.65548857000614 7.9695896265411985
Se 8.488604979210583 8.665666623471477 9.782440429105923
Se 4.7347160976089935 8.471217739247145 9.18431419487407
Se 1.3366446359764406 4.827520893775509 9.262327700024692
Se 6.5045488503415125 4.785265340614415 9.284403291814913
Se 5.663602208040902 2.6291849476561273 8.908538160835226
Se 6.720653714869974 7.554753772612864 10.711288504318745
Se 2.291980259473939 6.626063460124269 10.24254707795723
