40
Energy = -135.42766486 eV
Se 3.2535658066420763 9.645969094771 1.4600551563489064
Se 7.4673493383015215 6.221764323966484 1.9860305500172564
Se 5.5885930936231105 3.6682370262931423 3.4871445108537564
Se 9.485223767232217 6.878209260990974 0.9107315564393731
Se 5.51474513785724 9.298865876164422 0.9645025736131672
Se 2.06542331599309 7.681206087017341 0.849519699553368
Se 1.0833323677087185 6.837680319704597 2.8252308085175306
Se 3.5606329723265353 4.069690077659978 2.559469762663676
Se 8.504132007052482 10.739066402104328 4.82829789129454
Se 6.777380286227689 0.053285794595521435 3.3259252753168598
Se 6.482421476136488 10.428662290253357 5.315400265713246
Se 10.86604664067597 9.274960878332555 3.3153284916073242
Se 6.751302148307297 6.187936505797096 6.13105027132871
Se 11.178867770915252 7.011540953769509 2.5157849636136524
Se 2.1894235776459148 2.072578248844431 3.3303106878664215
Se 6.577214373599562 8.267429606170493 2.8416413691450897
Se 4.8914513388838055 4.599667117513734 5.898086865104351
Se 2.839644009788335 6.063408467501762 4.268370404413686
Se 4.6920866413526525 10.671950829613047 4.194550394622187
Se 1.7371871688378508 6.928562890304394 6.5748502497417425
Se 9.399210082593328 1.3639363331246577 5.887256272813469
Se 4.833190397154118 9.35236011800321 6.399576508132151
Se 10.07479590265325 7.669318606789568 8.58582763737625
Se 3.4744193172381492 1.2715244144420232 5.064645658659233
Se 1.509991924701248 4.339868985251525 7.594728526922497
Se 6.039776862724513 7.486708066955682 7.922273843788743
Se 3.5152066114410623 5.4317450804988745 8.140528628744764
Se 11.026954141248016 9.312438161692018 5.6092932782505915
Se 8.67397236955791 1.1762630202564777 8.157796844381329
Se 10.440701588404496 5.438684775261027 8.285085045328314
Se 8.925520869958717 8.722863205096298 6.7414922977858005
Se 4.141834954145173 10.671950829613047 8.483121498877807
Se 1.2582723120391135 8.46486078734134 8.589935322307443
Se 7.067062251086952 2.806515373533386 8.613489164899642
Se 4.046009679001778 3.5831883422996675 9.817023166790767
Se 2.304958168042194 2.30030729733142 8.941877011635569
Se 7.331582102983343 6.2278878871283165 10.409523339639444
Se 2.518356391272801 7.801502335145767 10.326624499875942
Se 4.600717577888885 9.346430818876284 10.255310673482768
Se 8.565475906793345 4.437165009895662 9.84634168256777
