5
Energy = -14.21898706 eV
Se 7.563046313087442 5.197500907897923 7.413589920129806
Se 5.373895719999644 4.461518865848257 7.5915357478268115
Se 6.038253869503017 6.676409255785284 6.002570100633352
Se 5.909092033653134 8.749019961479258 6.740934132473961
Se 6.727932443916321 6.518796537319139 3.8853905150166326
