5
Energy = -15.53507473 eV
Se 7.139691090309574 5.661288249044495 5.9774577921426
Se 6.943675777896395 3.556905098481342 4.561295580973411
Se 5.941382263345118 8.066835013750836 6.317970114741713
Se 5.090958101026313 4.6838361776365405 5.91689279027594
Se 3.9333285515963303 7.0697738192217745 6.219625931028278
