54
Energy = -180.43060137 eV
Se 7.674261791482304 11.092348364849713 0.11384036870411587
Se 4.240328061156011 7.194427784446117 12.508519811190048
Se 2.9198022826095262 8.754699259555991 13.631765035074936
Se 6.424220936671709 7.708331891033998 12.671281041898036
Se 5.482378433362745 10.156890051495896 0.5004235379340031
Se 10.253885555689877 5.701264942808271 0.5110053129787484
Se 9.013271331241652 10.85755581111382 2.0459333801309514
Se 8.902999648630788 4.06764581567799 1.6001520881312412
Se 3.2044247525317866 3.6807405217427758 1.3075562547501105
Se 3.698068818434549 6.1732807034436865 1.3930177451484023
Se 4.2190583178186625 11.838220698704399 1.737157896811772
Se 10.995959730712084 7.381499320087941 1.9662566267316577
Se 5.77658057577817 6.85554699722337 2.4655417129807504
Se 10.000281831634823 2.436673318594054 2.9344060851108105
Se 6.601313180715869 5.09797788966943 3.7937720866440676
Se 4.611469136384615 2.132968221699417 2.1676833511054387
Se 9.155815691931785 8.661522394448065 2.8672223703014805
Se 1.1339649559720815 4.357993391063868 5.144153207409264
Se 3.6854527784892794 1.5736344209037645 4.405388754078336
Se 10.15985374189061 6.346540744309379 4.9917864092775535
Se 4.234182229993618 11.047987040918175 3.958352591815825
Se 1.3655351536367848 2.231828201770103 4.1668393687070235
Se 0.6255787534577776 9.48663793570616 5.158932334676968
Se 8.939088632104474 2.3870232321651916 5.082934078469763
Se 13.52873203174039 7.399013991690027 4.882293653228518
Se 5.355971674408458 4.846849671709574 5.857653200214425
Se 4.479988379984284 7.858917390561576 6.797034388268541
Se 6.698603014180076 11.178251815755974 7.62597993936184
Se 0.7997535716653931 3.2762272064963502 7.3207590941264415
Se 13.626937938996834 4.735210141638575 8.891644593283418
Se 6.0221749970641065 13.551795544722532 4.369426091240369
Se 2.832454720459153 9.164438028717873 4.058489376967996
Se 7.456770799698314 9.205439643979252 6.91255009453826
Se 1.3530163941997633 9.639279787796577 7.638475657609133
Se 10.598520668425282 7.144228176202212 7.052330771241787
Se 10.43514390269786 2.223460712589483 6.924554911669036
Se 6.1430640705856945 1.1211387609576775 7.885869946500821
Se 1.669437570532859 6.303737163771218 9.483403423647285
Se 6.98033247395146 5.2840579122218765 7.515182204854055
Se 3.649966412672589 9.990044073075175 7.50555270402816
Se 5.907586029036895 12.859815807154702 6.544261623807787
Se 6.340308053515226 7.3042181935007 8.566992761640927
Se 9.851383774593883 9.436225776550263 7.2813917212303085
Se 11.058699933880748 4.036316749930515 8.332040110750668
Se 3.999905673517725 2.050724422376642 7.6552596503341865
Se 7.41399592931632 0.620840756315317 11.899393140920182
Se 3.5769192202943736 5.154290879899861 10.066416018553166
Se 8.680566702459256 6.588049189372264 9.971008943801182
Se 9.410276458640475 4.370145090983625 10.026476069927277
Se 3.657252776696222 13.399290976321824 10.672655094878575
Se 2.8640124773547857 1.6700423481399098 9.817279927010782
Se 5.356524441236972 3.0222124400707773 12.230681330752901
Se 3.8321120019247976 4.751000420157432 12.446500003962292
Se 5.261917316462826 0.45549568351111197 12.508519811190048
