5
Energy = -15.67423548 eV
Se 9.59210063751496 7.578122428501851 7.882727632679709
Se 7.387050601448633 7.2758709685440275 7.7276189964706266
Se 6.068255646058949 4.99998840183561 7.277521991134473
Se 5.220778761477802 5.9827495961674515 5.346347168751857
Se 5.7666574825062975 8.194793374889402 5.834047795907397
