5
Energy = -15.02078281 eV
Se 7.4553194747442175 7.127457082757567 8.149093773561189
Se 7.224170499462038 6.276427258253224 6.115225178596071
Se 5.027451801403615 3.4546915192620116 4.770969312555029
Se 4.169886179463666 6.302619597147637 3.771615938199735
Se 4.757789150339071 5.472399627374573 5.838343027059623
