5
Energy = -15.74860155 eV
Se 6.517129644145495 5.603065204220493 3.9928436848529505
Se 8.190884465820414 6.2953287848889445 5.5770684609707315
Se 4.856226155068062 4.648226583285049 5.46758560904265
Se 9.991495112741323 4.9852419336583145 5.377559970424235
Se 4.380358437651683 6.091520413069129 7.1066124482974296
