5
Energy = -15.31844816 eV
Se 6.692643878699634 6.692643878699634 6.692643878699634
Se 6.692643878699634 7.865345000004528 8.942396000000002
Se 5.51994275739474 6.692643878699634 4.442891757399271
Se 7.865345000004528 6.692643878699634 4.442891757399271
Se 6.692643878699634 5.51994275739474 8.942396000000002
