54
Energy = -153.74035357 eV
Se 2.6195764682137908 8.440284279639858 2.2773566410180996
Se 10.905329599768539 6.5584215615769965 2.3677429506651264
Se 8.147483250451039 5.921105386502813 1.9362304322516166
Se 5.154539618510331 10.852073695507835 3.9537959559937152
Se 5.13181013831919 8.828660569860928 1.9752061205958447
Se 7.977311818750729 3.305663677661853 1.6068588285310816
Se 6.359769235954195 6.749712728124094 2.6578612667445998
Se 9.997697817636224 7.387921997827931 4.5705420282714675
Se 6.2091984288215585 2.991715954873706 3.385738127554011
Se 7.10558580469011 9.828566898449553 5.186805010029265
Se 1.3838361912322104 9.574123808929235 4.696620635413338
Se 0.9427108184713944 6.256946442657325 2.4303417700812764
Se 10.266501250527838 4.19168776236888 3.641040179079979
Se 10.287519173014804 1.7511722737131876 2.3951603878830054
Se 4.879997429312514 4.745392146822261 3.6862111590853326
Se 2.54961456525306 4.5429462081870815 3.851580192474495
Se 3.4573535590186824 9.942770358017977 6.0871355823388775
Se 7.482766914782558 6.81544309577137 5.150304488764225
Se 1.2454833755367778 3.118229136570791 5.578403330655276
Se 9.399378954489345 9.928480370240717 3.9165123395903865
Se 4.927226201235605 7.8018928104558105 4.906668448789413
Se 6.302962414737367 0.5285977173981774 4.692664645764397
Se 8.760709567143865 1.7370959836166546 4.540679001419021
Se 11.27304556030912 8.861687324105818 6.277274412808987
Se 11.39301183656243 7.206750413804636 4.924442013683675
Se 9.603004526790906 5.218925317788256 5.624152043308007
Se 2.968042145334191 7.206973216532431 4.91009640880699
Se 9.376123662318442 10.72150598453023 6.471020495160952
Se 5.678504993893741 1.9727990876657533 6.591569209118444
Se 5.279740112873479 4.979299102076211 6.178311422394515
Se 9.463724850246422 2.2723805583749965 6.834048639328646
Se 1.2365882512306363 5.681131762681459 6.535333123816808
Se 3.3478345118742046 2.8189478317083174 6.822686009098851
Se 7.496418769109175 4.463313167236991 6.78899497722461
Se 11.39301183656243 3.9896721433624274 7.4720399601690115
Se 7.250910651674893 7.457017584673586 7.4760963669016025
Se 6.114054617548039 10.12628268316372 7.762148878199299
Se 7.337859879183157 1.5192001982288468 8.480883069884515
Se 9.913661253238159 7.753225113912734 8.13372788720265
Se 4.034408123374314 10.575822083611726 8.306077737533979
Se 9.713585998412821 5.479135397490348 8.754663095853648
Se 5.417233203066349 6.3200614814117575 7.888373126478419
Se 8.191377034812266 11.895978128509196 8.55369699038525
Se 3.194866118837162 4.4740028477732805 8.82375098530747
Se 8.471971842984075 9.474708626046255 9.59083726995696
Se 3.53471478673079 8.174199768379944 8.558115790511977
Se 1.6832623692482946 6.38438744797709 8.827159470249825
Se 7.39943313691187 3.793215869742199 9.607180498052676
Se 5.2610050188943225 4.669683009649101 10.27338222702998
Se 9.256625506465149 4.951220016940764 11.204794131989146
Se 4.851423473419964 7.861117090463788 10.655816646314591
Se 7.05597066441728 9.185883503846041 11.44142792275764
Se 7.434227019566137 6.499543247624472 11.553877378820282
Se 4.944413901323171 5.719949331242343 12.693486493985299
