52
Energy = -170.05403679 eV
Se 1.764639418313031 2.9675602129544494 9.112783969986085
Se 6.011798050465096 3.7235490039976717 9.566351410830862
Se 2.717760842769156 6.428338646787066 9.271431804098038
Se 11.977580681077589 2.643710020301267 7.718207512502571
Se 5.713324792634857 1.4886136177146396 9.511492301537968
Se 2.7312170131136084 0.2644097427255472 7.5958445711653715
Se 0.5708123472385409 6.440129552922562 8.297546098186354
Se 0.906251278203586 0.6444404041667925 6.369766772246863
Se 5.707938432726952 7.19484481734932 7.549619847418532
Se 8.245475386889462 3.9843947319377087 8.619254230449972
Se 3.5325263145570878 4.3439476331790425 8.063372897058203
Se 10.935865883771777 6.712526697438284 5.542356215100066
Se 10.62721504365087 2.7306842568300698 4.437185084796879
Se 5.510630840121033 10.775479058720434 5.898716950282243
Se 3.8274815113062437 8.655074891545338 6.829846623583694
Se 4.526204827671616 1.8942001271062385 6.657023945649541
Se 8.850941725005175 0.2860002779530821 6.1161541070061
Se 3.1955000767060664 11.233507277063897 3.2419515186877046
Se 1.830749431304286 3.9878672264815767 4.961754368563445
Se 3.3869157049207184 2.2603253551142726 4.586976989788593
Se 0.7752346956838592 7.909015240555755 6.414797501393591
Se 1.1090478892638536 0.8561348942046645 2.5306590957334554
Se 8.032549929646935 6.084688052041511 7.528656244474679
Se 5.735802934663514 5.626823824152275 5.741468884698298
Se 10.910505981908615 6.8567504924829334 3.266744165596828
Se 7.1986686379054206 11.181584353800194 4.487181273305402
Se 9.303910625402683 4.046339893769436 5.328345404905974
Se 10.272670323345773 1.7658130061711699 5.133912186284215
Se 6.664997302898461 1.3051787819124732 2.410444998834743
Se 11.041096541964471 2.5481604608813853 2.229366374011285
Se 5.007172356930201 11.381293172009139 1.8453055050483542
Se 3.4353629082642447 6.032209721595194 4.491679980444615
Se 2.481841524373289 2.1591539265561366 1.055545966381207
Se 0.18087010354655852 5.15332848806232 1.8976147291920977
Se 8.33141562467259 0.5875968755546916 1.056180812211036
Se 10.62721504365087 4.880992191914113 3.6141970566969457
Se 0.002528332989300351 6.161187893247496 11.942269931752012
Se 5.15961120114963 9.39955201970037 4.9493342072843705
Se 4.850409433481174 4.648934281599939 3.1531567826893947
Se 7.195702365572099 6.705001814514348 3.4635108484791295
Se 1.9667006104254792 8.403446286281227 3.039858426718539
Se 9.319403022420952 4.334065144250223 1.5753077140168459
Se 3.3097938349599287 10.17819646756328 3.3258260513267923
Se 7.815516402524316 8.46551592346036 4.721752620457817
Se 7.112252215381572 3.1317978150204655 0.009932320303760648
Se 1.2681925838473322 2.7623720438714146 11.273108353458282
Se 4.402685733575408 7.460139867145144 1.1849553107931188
Se 3.0442671957856517 6.745724895881306 11.198030917235316
Se 8.530242904363442 6.446407107988731 1.0055219759083445
Se 4.027591146257704 4.627393478751831 11.183406905666493
Se 5.007322303120567 9.620877684107018 1.2387068535805654
Se 6.4998575402834575 5.252227320081 11.397034729450588
