54
Energy = -182.01093696 eV
Se 7.8352050158794695 3.459928427541572 0.2956581671509863
Se 3.6225460963989935 6.566897885379003 11.9421609010529
Se 5.798027011095398 6.47314343118888 12.940679349523107
Se 1.0426693047132358 3.661786510697724 0.9332416243161613
Se 6.961755864581364 8.514849533296596 12.909139408506352
Se 3.138692630909591 2.622109567202157 0.6052907397759453
Se 7.755456537282599 2.6382225560908723 2.4581698045486378
Se 10.201326361227961 3.4853103470756355 1.8722305304199771
Se 1.910862264870881 7.325978721021992 13.36099042303367
Se 6.502555256800777 9.446366537056234 1.6785316936069938
Se 4.767849505519678 6.467000699217806 2.706310472756673
Se 1.5969134929881443 5.803901864231849 1.767753193660572
Se 2.1253420890453594 10.580704790151497 3.6112952954183144
Se 6.894579162349574 7.542347240897311 2.996029042142256
Se 8.932956744480117 0.5655505143607258 4.174017040969644
Se 4.04561323834154 2.115577567739571 2.748256256240869
Se 10.431221617223025 6.85643967628959 2.7921302334345506
Se 12.362543952479909 3.740707688441097 2.8455229737822934
Se 7.538315794514225 4.13592022744726 4.586252060767625
Se 9.941702594855617 8.684166789423351 4.086636736860738
Se 7.213983345102272 12.935019019502498 5.247649439515615
Se 4.017643523288221 13.237630373348344 3.2471388962788805
Se 5.197381332978806 11.081762548733826 5.054993188154775
Se 3.6401861949983587 7.005607367336498 4.769128277485697
Se 1.028976549901029 4.305466608107595 5.421432469529349
Se 2.807967519717968 10.830718864276239 5.724341056439135
Se 2.0416708223864335 1.1355482397353192 6.197752603381552
Se 12.20244538840342 5.7926928696179845 4.066973641212138
Se 2.1523338071716465 12.784197366964666 4.7111367811560765
Se 6.392315480923563 7.366828487764664 6.303203742175143
Se 8.865033399912189 8.096512102959679 6.683061668705204
Se 12.943013328873175 5.37526967216937 6.915203262415452
Se 2.261891547417225 8.771097499556769 7.15041059055106
Se 9.531044680914068 3.4756365093044863 5.637132452669432
Se 5.312120577438993 13.009236796587818 8.448737424810131
Se 10.789604827872385 5.341896153734511 6.255030604938664
Se 6.498482395934774 11.362794454375925 7.0410514312364985
Se 7.205720509553153 0.49674142206692734 7.526008478392184
Se 8.618933404562222 10.566283507228631 6.573781698610381
Se 5.695575691046968 6.478124601380141 8.332701387256082
Se 3.2427962732053275 4.971597021201937 5.936354007677751
Se 6.570754485925828 4.228026264556232 8.356538941333092
Se 2.45702794874265 9.950259603199378 9.157253263923337
Se 12.988096392115018 4.265420389879311 9.005693316696512
Se 3.2960406654089196 1.1839155390019762 8.500166233400412
Se 4.6660965834522035 9.485652801604292 9.953308094403448
Se 9.923405276724067 5.735857809543269 9.311680787037929
Se 9.179435795078374 7.946602166103134 9.282371595429936
Se 0.22798489961309268 6.0172458605922285 10.497930637012127
Se 8.11068970167377 4.424871838992748 10.13274378865316
Se 2.142051190196004 0.09153592768460227 10.0863934327889
Se 4.167483003167359 5.943739387699216 11.266237859242112
Se 4.421266220274253 8.203947771226568 11.910587588549589
Se 1.9523387635939238 5.371938069295368 11.9421609010529
