5
Energy = -15.88917688 eV
Se 8.022968268541586 5.324374838623593 4.839990517676317
Se 7.707007335819736 7.285542027605247 5.874633492287669
Se 5.394480588514617 7.240587991882139 6.513559245122198
Se 5.0457171567603325 5.024667956949926 5.665214285186847
Se 3.029152803807597 4.325747117881496 6.307630931269278
