50
Energy = -167.26826345 eV
Se 2.2048660733914143 0.06217877755430073 0.436510090127913
Se 2.8221312791632456 1.3335531160456757 9.640003484772805
Se 4.865362640103277 0.3874586669705554 10.328345607192807
Se 1.7959180884567743 10.598889962820929 2.9546034498094382
Se 12.49972510120159 1.278240390425008 12.579229883617517
Se 3.6535669558212054 11.32702554758966 1.591276515577634
Se 0.3198361507812158 11.988620464686427 1.7146535138429673
Se 0.9565861176622684 4.099911414607674 11.528618069401624
Se 4.933925186753448 0.4612878777034995 12.677506822744373
Se 7.867459936714428 0.3798076751739171 2.328279828645322
Se 3.028389224693917 3.614768857442686 10.29459470010681
Se 5.011011207473896 3.732327754263633 0.17626060252878725
Se 1.9450869130441168 2.6340055455843356 3.4801324743204014
Se 8.166790986789525 2.8054626285619193 1.6045720972808766
Se 11.977757468953497 2.071517987061453 1.9756691891419709
Se 2.420235411022188 12.200793825544276 6.641504549769972
Se 10.807122411013829 4.1225039473773375 2.0672709117139756
Se 5.4891275783085565 5.8168083183469586 11.857300468138801
Se 5.427001004027469 11.30283103852748 6.077420267187942
Se 11.439701704461843 9.182983026861299E-4 6.179721468715948
Se 9.70864594560114 3.8512749264987303 3.205785344121644
Se 11.12832171741144 2.2618725760083276 5.178459051097161
Se 5.967602310339978 12.712694833282201 3.5378825086346315
Se 0.8396893296428822 6.3718476601586564 11.069759846929465
Se 7.092592939167661 1.9123262669126861 5.460239671182947
Se 5.9543892726848044 3.6519804627911836 2.3669351990318113
Se 6.453796241386877 7.819066102145583 2.4761826226595622
Se 2.0069688935337027 6.869626708893319 0.4599878342604177
Se 5.797193819735849 0.3778929250401684 7.219045148045595
Se 4.359615091323851 7.596109039090199 0.04814195769008531
Se 1.5002116977037747 5.092043783858749 3.420229623505246
Se 1.3026859065666423 4.461044538382687 6.173026369427611
Se 12.282014571566016 5.991275390704021 2.1529018727477354
Se 0.3252487364798174 12.699919500957373 7.7371323643100265
Se 11.579643094658676 3.8958982978165335 6.683708133450094
Se 3.747890982319166 3.812343817218626 4.456366659774121
Se 7.908731337726796 3.2637953502388655 7.19856206020337
Se 1.4311812300654683 8.775151445483925 1.5589228475352985
Se 3.5336620102709926 1.3674823112788432 7.476766481370424
Se 8.544384311697335 5.4256103634097315 4.5084750091565375
Se 6.015217806869519 4.958661395467179 7.107176519038126
Se 5.3188382956604645 9.181582207672648 4.071792117336257
Se 8.638031666719993 7.508840139509755 3.3644508441100682
Se 1.6753282890852477 7.802340152082434 4.5897395324014525
Se 1.0855702993077851 6.837209703580717 6.695087132775116
Se 5.146674018021961 3.7215564854675196 9.12098761341313
Se 1.3577494945261916 3.9218955972675045 8.676063805000805
Se 4.050800979570215 7.852959661982916 5.447962638887359
Se 6.458878085501227 7.078336310537535 7.659111593804556
Se 3.2300055400572307 4.979887645493848 9.640003484772805
