5
Energy = -15.79311067 eV
Se 9.163680390390274 8.74287442571438 7.045125206626873
Se 7.8483345572188306 8.005724095815442 8.724318733004246
Se 7.8246602032564505 5.484220610146423 5.956700805742567
Se 5.720175749085201 5.950797047597486 6.46760764308869
Se 5.635797919195456 7.968029796227091 7.92771793605286
