6
Energy = -19.70722642 eV
Se 4.429446697454795 6.115446801145626 5.040039069424576
Se 6.548443610606166 6.802799524330459 4.779165065463853
Se 7.15061764697166 7.803841243920788 7.121619784716777
Se 9.347913249544055 8.08735152741418 7.041362126205814
Se 4.671314803772427 4.912825673506173 7.322679585375961
Se 6.8522639916505605 5.277735229682441 7.695134368812681
