6
Energy = -19.34213675 eV
Se 5.587522907892949 8.270252998725908 5.443614510764211
Se 6.966109293436084 3.965336726336692 6.457468432975429
Se 4.05860766388142 8.451544588282669 7.05051954871712
Se 8.239669349907826 5.804071715409935 5.1896574130494475
Se 7.73389534735871 7.589584604119328 6.490496254974537
Se 6.411760937088533 4.916774866691246 8.365809339084784
