6
Energy = -17.26404452 eV
Se 4.479900508748201 4.936921513086005 6.130010492246159
Se 4.908938948158377 7.226230318763266 4.994464343832309
Se 6.3474962259284995 5.16653482647325 4.350020250355278
Se 7.995252245882249 5.757989196418229 6.166035212940466
Se 6.12763893659184 5.5279829888618615 7.948336880624328
Se 6.558914304049621 7.816591834078199 6.808054282176147
