6
Energy = -18.51003143 eV
Se 7.025540294027501 8.128956027315468 7.489044513837326
Se 6.925956730224499 4.430644586791654 6.46868620534817
Se 4.334714682027671 5.853331275074271 6.3104559678036996
Se 8.251156765532812 6.186342347849166 5.919423462239526
Se 7.081746628244144 7.7504660524141595 4.619379701530264
Se 5.384000764630576 6.6533755752426 8.19612601392821
