6
Energy = -18.76365923 eV
Se 6.961365424546461 8.443901269183373 8.810400364026881
Se 7.753789510193498 5.449985608378741 4.089099754463179
Se 5.1039518012529905 4.529347657787785 7.5497476087727176
Se 6.730779026125418 7.145831792415293 5.085257605856895
Se 4.513160963217838 6.274045614978832 6.332808103559054
Se 8.082337600164248 7.302272382756445 7.278070888821591
