6
Energy = -17.79539003 eV
Se 7.187076525342114 11.512605508398682 5.0580614426242265
Se 7.554681135302158 9.874689650285344 6.484279584956582
Se 7.899208770721572 7.631873143624172 8.014000606406835
Se 8.102563651236911 5.671875076686386 9.060581491865115
Se 7.870154591521565 3.2991869498532793 10.379659217288468
Se 7.273796118770455 1.4582686570387624 11.434986634105758
