6
Energy = -19.21964495 eV
Se 8.016889066320902 10.276797987188019 6.692442132181644
Se 6.753864072178957 5.946091382631567 5.582252911928173
Se 6.290548915353786 3.9215601282383923 6.880523206582464
Se 5.377348033692815 7.562650475549372 6.50116178595492
Se 5.73001437911533 2.3875210172012706 5.357612659505343
Se 6.818387656763835 8.892431132617293 7.973059427272788
