6
Energy = -19.22435883 eV
Se 8.849237793629682 6.720182916075203 4.802018435321334
Se 5.32978007968604 4.589392549639624 6.4868065942143645
Se 6.647979593128952 6.651249749090638 4.900571483732877
Se 4.71654092854131 2.672776226739461 5.58019893037177
Se 5.591149722512069 7.7368820705247785 6.9248316283798355
Se 3.7297187943322965 6.545355878154443 6.2352780475317555
