6
Energy = -18.00560967 eV
Se 6.454595655437458 5.747128271211065 5.545117163701189
Se 4.275021121694827 5.394414525135614 5.065627096806464
Se 6.778491499791574 8.175122559959856 6.2356023989735405
Se 5.884371329937058 6.875513825318272 9.69485972807248
Se 8.042895774168969 5.171700736824688 4.046581244557561
Se 7.56089718422844 7.632392646808435 8.408484933146967
