7
Energy = -22.75447648 eV
Se 3.0117921319276206 4.83161225024404 4.744266192372064
Se 6.780724017640289 6.249193524055672 8.853259978317178
Se 8.830927845752099 5.925666213329183 7.825660709716393
Se 5.450670985207609 6.958842867589535 6.71957442435086
Se 8.995284776226464 8.171669226244486 7.053977848932084
Se 5.160403467217025 5.431819315205068 4.832121608624313
Se 7.274224469203483 7.935224296506876 5.475166930861701
