7
Energy = -22.70040225 eV
Se 4.313235806794867 4.160034380280765 5.476136330188663
Se 4.277429309967081 6.582172788392614 5.243211940727242
Se 8.692311808417863 7.175627757235988 7.614777027649378
Se 7.3979018220090245 8.57704405949194 6.066485756550016
Se 5.6761226543698795 3.4816825640314812 7.1082407811078285
Se 6.435565878030451 7.1811944035040325 4.478818152490196
Se 8.70743272041134 8.342244047063687 9.512330011287057
