7
Energy = -22.69805245 eV
Se 7.867357070740847 6.82416336667192 5.697236589928521
Se 6.963637796467548 4.709309724810931 4.607621321773438
Se 5.8042818678169015 3.721986645544923 6.308544304992015
Se 3.8550648079137297 6.670469310896833 3.2854887862573814
Se 7.2807651732235374 6.7010937538822954 7.829592064636848
Se 3.78897695903164 4.993470424647472 6.595965634820848
Se 2.9059959373430466 4.944185487805541 4.370669832984859
