7
Energy = -22.71306215 eV
Se 5.260138326189854 3.7715950723047804 10.207780073407474
Se 7.284843462436243 6.393280008081782 4.196092668865617
Se 7.603888253769094 4.911053358836136 7.680386658879567
Se 5.522706397278415 5.505756378943144 8.838646645280141
Se 8.162770120270755 6.742872726885256 6.35076452008422
Se 5.210997144141031 7.688509668611101 4.300651665409895
Se 5.194294272702107 9.249148933307783 2.713746842554849
