7
Energy = -22.11502882 eV
Se 4.269544603465591 8.108744017219182 6.049046863370146
Se 6.673675348000023 4.902984991508447 7.749696496725307
Se 6.478225470635012 8.36243085979926 6.210508098079865
Se 8.934146575357612 5.660116686308712 4.448402058255868
Se 7.529521075122122 7.087603790291986 8.078839610753102
Se 6.973830480228828 6.668297998613974 4.274833716556031
Se 4.645329498653861 4.7140947077216095 8.692946207722972
