7
Energy = -23.49535823 eV
Se 7.267234944230461 7.709755493670593 8.415672690372327
Se 6.374163632495952 8.165944187831375 5.146037630648663
Se 8.193153284512293 5.18671539521339 6.317484836667835
Se 4.400300882129146 7.361500951481724 5.938024149300931
Se 5.41550742945058 6.539574944315555 8.275878816562985
Se 6.28402080593947 4.263519416678003 7.134395459607257
Se 7.567564726929876 6.274935316497017 4.274452122527906
