7
Energy = -22.72368589 eV
Se 7.641288177355202 4.006897815342628 6.4215938337162415
Se 7.691796845771184 5.806450614162233 7.904067682708708
Se 7.21540853813888 5.0225010092363735 4.229137196223332
Se 4.886247616809306 7.903745176766704 6.762520640936899
Se 5.472279900907363 6.274713078310156 8.492564198084127
Se 4.018485177134179 9.701976613187036 7.753589945914986
Se 8.561208905824335 6.770430854935062 3.923241664355891
