7
Energy = -22.54315545 eV
Se 5.555535219983347 5.307263150349815 10.09108203229955
Se 6.353320174883599 5.314461442307194 6.580274966706051
Se 4.573953021625313 4.976314496352956 8.098742580498062
Se 8.643479641715397 8.311443814292941 5.650626864697202
Se 5.707374072619991 6.469378777845587 4.419914647012877
Se 7.758638431839141 6.940288450390995 3.6384579777868105
Se 6.902999562305922 8.176149993433073 7.016201055972295
