7
Energy = -22.56111823 eV
Se 2.579291674637771 8.002694294874516 4.236102292629208
Se 8.611670517949625 5.143554686931912 6.650317279034654
Se 9.366556437387016 5.854896958090394 8.842755448180904
Se 6.2309124252142905 5.049141453523699 6.808422135179556
Se 4.760615568306861 8.023215426454014 4.71262521465095
Se 8.486759064871704 7.775368792183016 9.55414133012319
Se 5.477740618980463 5.664674695289613 4.709182607549129
