8
Energy = -27.25236242 eV
Se 8.854578755032398 7.2919799073658496 8.14899869416153
Se 8.510858304059468 4.817698379881093 7.605322006326312
Se 8.135745824089014 8.27517563797926 5.409772143460759
Se 6.944869397058736 8.02897491905643 8.947851110166056
Se 6.257932034216712 9.095442924569157 6.220960591989631
Se 6.249178754514538 4.67123566888298 7.585119218105409
Se 5.635942336443777 5.495669503027037 5.363770649434695
Se 4.432623831080294 7.372530349683223 5.776685414632771
