8
Energy = -26.26590211 eV
Se 4.89230359768932 8.74119900405703 7.62668789592571
Se 3.467235779351306 5.240901762229021 6.9204058659624295
Se 3.4171883815207544 7.370338361149921 6.242858512888047
Se 8.14547114030375 6.757344512721773 7.855678125674061
Se 7.320878720079417 4.714891122516362 7.24588088375035
Se 6.9503452294033226 8.396702938125326 6.580837633530206
Se 9.3569276864376 6.363258490437707 4.521406785027886
Se 8.4404340720871 4.406148415635429 4.997028904113889
