8
Energy = -26.23969694 eV
Se 4.5336518615441666 8.805299939362612 5.195752137803345
Se 5.472894926417002 9.691940992116024 3.3815067315383462
Se 8.8286932293058 5.778462957956108 5.880378137567399
Se 9.199359484635192 4.016570212445619 7.162099541721139
Se 6.960831363638334 3.479342467315011 8.227280547092402
Se 5.533805720276236 4.800317106637242 7.0325298713005004
Se 6.262242242076551 8.52772051993554 6.926223467349184
Se 5.210830905042047 6.902655537167725 8.19653929856316
