8
Energy = -26.9118368 eV
Se 4.1842447122161035 8.577426293613195 7.3791280497129454
Se 7.155765232853033 8.547480886141148 5.101555192803863
Se 5.961509374856034 5.24194378937809 7.758088936522753
Se 3.9011528806119373 6.077616483049289 7.402198628278864
Se 8.617093614613834 3.189621608700606 6.166361880688929
Se 6.432802062811863 8.87425508104225 7.419532176917781
Se 8.592584193982017 6.763787514828562 5.272972202200736
Se 7.147185793105985 4.720206208297527 5.492500797924539
