8
Energy = -27.40780989 eV
Se 9.448745615228242 5.778165233906756 6.0271671629118275
Se 9.430255212135714 6.423866334612477 8.350479759713153
Se 8.82325677399892 8.680121700262823 8.320327202098744
Se 7.575167322078712 6.805349776734279 5.062573571762353
Se 6.6132577512257855 8.673359557599406 9.161997619089862
Se 5.573341177467518 5.602918020427588 5.175930404514545
Se 4.530921902215401 6.277196641939674 7.258480849183381
Se 4.999562212838279 8.557710032878994 7.432966142534617
