8
Energy = -25.17384487 eV
Se 3.977124357715213 2.8437135207002395 8.788191691040378
Se 6.917022318800018 6.307781569867985 7.64449304905354
Se 4.6372982171037 6.024531647234624 6.776402319814986
Se 7.002108308269205 8.538871471173401 7.796248390782039
Se 4.338342860768549 3.6604819141823293 6.727583781162883
Se 7.685707368966045 8.98006137353477 5.138800058480201
Se 7.626508249668062 6.819212041867148 4.4437346867454615
Se 9.982583342871118 8.971177660495654 4.935614467080841
