8
Energy = -26.39731554 eV
Se 3.2409433725988226 6.246497909235987 6.248868770218227
Se 5.8257713753725735 7.763521689084252 8.529150491760372
Se 6.477319649422422 7.65047475919888 4.739779692463015
Se 9.95769827731498 4.535759883069266 6.420068755695602
Se 4.39076028947767 8.1222890894527 6.422733899631493
Se 7.874351751643165 4.9450990238355335 7.0689160793585
Se 6.333841580753797 5.436544546474573 4.8587699794850145
Se 7.935382188331297 7.3358815845631105 7.7477808163026385
