8
Energy = -26.13934296 eV
Se 8.197704216709843 7.4682600222999715 8.884802822323598
Se 7.024527539716279 7.103385413220186 10.983746047308678
Se 5.136756400207858 8.306848619845685 11.040365962163044
Se 7.683355608254578 5.650651417734867 7.523362805224343
Se 6.289509585390227 8.190701586301348 5.159639041162811
Se 9.55862784637082 6.782825412193628 3.9063838054486753
Se 7.515238933502244 7.384178360509259 3.2214008958041433
Se 5.711923174408804 6.254542391152579 6.323742872806116
