8
Energy = -26.15615139 eV
Se 5.756541376066737 6.537166619004525 8.728209636155434
Se 6.0787368575214495 7.1235021877986116 3.7585728794222413
Se 7.703675980354212 5.58082994285402 3.597916888454558
Se 5.681402113251857 8.591051164918246 7.365851027172853
Se 5.463853056155665 4.794924396883169 7.2231178547255865
Se 4.953678208259456 10.089466763229883 8.841115754225736
Se 7.614709662030335 3.839136414103158 6.823179453696975
Se 8.82412376599044 5.520643530838545 5.738757525776913
