8
Energy = -26.28247898 eV
Se 7.549820832508639 7.007354513349547 8.78691371067642
Se 2.775122996575008 3.858195361051446 5.259321798097806
Se 4.933550957359606 3.8959432237543665 5.795145346466118
Se 8.975594254133517 7.106762339336667 5.780827114759244
Se 5.6765588829268845 5.887567747480627 7.186806565108428
Se 7.029170290073596 9.090669720180275 8.131985572656918
Se 8.201715929090449 9.24099693541993 5.9087969469365405
Se 6.858465857332 5.912510159427114 5.150202945298632
