8
Energy = -26.29240476 eV
Se 5.213494378578473 7.891727265268911 5.358114410908025
Se 7.205413787331017 8.780459611243096 9.656797531413474
Se 6.032165378069172 6.920106094010005 9.779369773453203
Se 5.736297981945066 5.465696114577428 5.997362277661369
Se 7.155881724112043 8.761562463258741 4.777374908220305
Se 8.004211033164285 5.510630752237915 5.811384789717519
Se 9.282824930088356 8.20534092044494 8.275625916032425
Se 8.990817445796253 5.959199497390649 8.003090187972305
