9
Energy = -29.18125958 eV
Se 2.3373667083040446 6.1867842883293225 8.802030156288158
Se 9.759950763739788 6.345869957653626 5.693645992281771
Se 8.325014465110723 7.322264323551225 8.960528898032795
Se 4.283132033366354 7.8528524305130984 5.939769435115277
Se 7.831470393528523 7.44982484629062 6.806741556216229
Se 7.238576549924844 4.237689455018222 4.540309302086466
Se 5.92011922803376 5.757558754423192 5.8743287558295805
Se 4.0328541846729475 7.506473978223368 8.209747579685178
Se 8.763120611501103 5.832286904179411 3.6645032626463427
