9
Energy = -30.88332621 eV
Se 6.079629075345046 9.270030425793754 7.764784761100951
Se 7.643059059371107 4.164260649572884 6.726934063918152
Se 9.159630384174068 5.725256115669214 5.672539359578785
Se 6.129616568769812 3.5919141946191493 5.119182468089527
Se 3.9329058432917345 4.6965273507144625 5.63156374892246
Se 9.338625010368249 7.64393090242649 6.999422663814828
Se 4.166081922946925 5.907003896472716 7.553768735459532
Se 7.844630100133447 9.28805586782408 6.196441388609953
Se 4.205822035599743 8.213020596907382 6.835362810505813
