9
Energy = -28.86071618 eV
Se 7.384489826872995 9.69606243872869 5.513266328910281
Se 5.284978187664734 8.866245964299061 4.767719779898035
Se 7.22130689471771 6.465221912006446 6.996162359379581
Se 9.041574602834382 8.964534930040672 4.183786952498088
Se 6.736354820506727 2.730039279862518 7.473348966193286
Se 4.8010143380192725 6.842305006418122 6.201050491898333
Se 6.679725953875414 4.920013976348408 8.610555129131109
Se 4.10736548752712 5.2184881805524235 4.858025487840173
Se 4.648091303672585 1.9620601232154984 7.320120892060338
