9
Energy = -29.57444407 eV
Se 4.514477539492819 11.052541396516773 7.312411263400629
Se 6.587817188820737 10.936357079600544 8.163707189959453
Se 7.31261287587743 8.647645321882255 7.734250129189465
Se 5.320469363729632 8.074750734304422 6.580313079889449
Se 6.033863011914809 6.1552291428169585 5.394420873274579
Se 7.749617953657342 3.4637542138137385 7.3437384597931405
Se 5.672507325139535 4.27746838187954 6.84861071174559
Se 8.26191555820738 2.3563931393312005 5.1129898078471
Se 6.725031248147375 3.1741473718594366 3.742969947213327
