9
Energy = -30.53381323 eV
Se 9.325649435916807 8.595118065018248 8.089774451221023
Se 9.69448071908454 6.588910622355712 6.697920550779079
Se 8.682842176814933 4.88259919536187 7.72083089601836
Se 7.209038861269203 6.4350102013768495 4.603330328345877
Se 7.182789873751194 8.32322200969324 8.962808603675645
Se 5.583533891712623 9.525745791306242 7.774520112628514
Se 6.553477327242602 4.828733243834016 5.948495955230798
Se 4.42995730647784 5.977294673716635 7.159331624820034
Se 4.617612710087159 7.970849549204973 6.139468845845674
