9
Energy = -29.69660094 eV
Se 6.0582353846407075 6.757867338912964 3.3371901074238477
Se 7.405272223907973 4.864421614174912 8.024170639209878
Se 8.45517787321747 7.297550285408682 3.7258964897331497
Se 8.554594913144372 7.86314573719417 5.964542660921188
Se 4.858141761529505 7.907911118501997 4.80871995534738
Se 9.321333542081126 5.945635837408138 7.137838823694779
Se 7.064932817370512 5.813282213574132 10.123870511029994
Se 5.653197308235041 7.7285091733127205 9.531607583661943
Se 6.1142412656764975 9.346375063610544 10.991764272197187
