9
Energy = -29.55255481 eV
Se 7.72430832314771 7.960919359130016 6.309519509685159
Se 6.330853210070131 3.7901114100813245 6.479115672019956
Se 4.20426015446355 7.995835974816473 7.864953459619919
Se 6.942322133842055 5.826540069375192 9.477724334475964
Se 6.713379167208606 4.818739819731228 4.463434272670917
Se 6.230051961729785 8.122012226382656 2.8145576942034958
Se 6.377486940148276 8.15171012044653 8.354761818262345
Se 5.88277599641393 7.205111674580251 4.807621990521812
Se 8.094562112975401 4.6290193454557755 7.928311248539739
