9
Energy = -29.8189207 eV
Se 4.683876424598606 5.865845129712158 4.544745296205423
Se 6.613616548046012 6.72567307750302 10.437692725900392
Se 7.586133641890478 4.128840358431268 5.673135479581156
Se 6.133035239396824 8.884096118093437 10.370410172731237
Se 4.74258489635027 7.758575757089212 6.029924201983435
Se 6.130643945292468 6.213984426844272 2.8227409064593783
Se 6.975352856747376 7.852129937368332 6.791363135575056
Se 7.3809141986469 5.956801814622073 8.021815935426345
Se 8.227929078639981 5.0881402099453 3.782258975746936
