9
Energy = -30.50094779 eV
Se 3.564486375114105 6.306323316639919 3.3375578566136563
Se 5.030208354149227 4.494806374604112 6.23837895693087
Se 7.145181122686492 9.259877135997318 6.367386457566976
Se 5.379975015365814 6.405429892526592 4.62156695032488
Se 7.171365195737928 3.741163359339688 6.661220270251555
Se 7.9461721250781245 8.497773209594179 8.481331940606418
Se 5.000233657924621 8.48313143658312 6.003406147364529
Se 7.985655452154766 4.708507099940076 8.685033871242414
Se 9.262795400262652 6.589060873248592 8.090190247572435
