16
Energy = -73.08894728 eV
Si 9.642351877582765 5.516410291774424 7.666170816713889
Si 7.334886518289931 5.465389245934022 7.939602496493125
Si 9.332930978917792 3.938646279679319 5.509087897223283
Si 5.65462253802993 3.8800053379625745 7.602543886656643
Si 8.441750826266302 6.1052982245368925 5.7374796174209886
Si 5.13932414654734 6.400821643137788 8.112181950903645
Si 6.954959465837696 3.9967200877355578 5.632896726375732
Si 3.4680633179702642 4.669794441791253 8.10187464988552
Si 5.1822718844896585 4.871291486549509 4.251449669882706
Si 6.403490333132764 6.885740657049636 4.96576523115308
Si 4.826288708317657 8.03867498649874 6.298776402461419
Si 3.751518977320422 5.776207042263967 5.9673246383067164
Si 2.507057006237967 7.794342927858973 5.613042518174518
Si 5.7842409706923865 6.93429634008247 2.708781755346927
Si 3.9878118721540003 5.3345336952279805 2.283392238429914
Si 3.6408856808226187 7.280069598962816 3.6509173480342496
