17
Energy = -78.3307154 eV
Si 6.093892711329553 5.010003287495303 7.651204121952094
Si 6.266335155993659 4.383837006706807 5.278880937842737
Si 6.6319303115113994 7.260881484424746 5.118819213846691
Si 5.864788886636082 2.57572412208274 7.091575314221957
Si 4.3195213448404495 5.680592189424011 6.097343033752653
Si 3.8542526281504386 3.9070290923005535 7.91997154820674
Si 6.520268610417147 5.930570404660887 3.1850568766717013
Si 4.547610051588694 7.270718799736199 4.029840027452526
Si 7.167893068402011 3.4743546308431124 3.161176711546732
Si 2.3320241077118924 6.779933108399663 5.168552419596076
Si 3.5446408496270476 2.199728295306577 6.0298434332231245
Si 2.2348316421686016 4.252225874558656 6.007345816107975
Si 4.021193785065305 3.972113818876276 4.335937666885194
Si 5.530099016264666 2.046700953280642 4.649665343369559
Si 6.200128300733903 4.650353185034083 1.245254864760161
Si 2.5722428107710806 7.141514638755099 2.7570899449607706
Si 4.1678895876419215 5.328638050991845 2.4113932139313414
