14
Energy = -63.43767374 eV
Si 7.060319461226488 4.061124328830848 5.558186812915334
Si 6.732593126161923 3.0296824671037625 7.748804814718353
Si 5.7475581913433205 6.459318338341718 4.605767233201533
Si 8.049158054982865 6.296863306933044 5.219978366603449
Si 4.6348732837792355 6.27927434654886 2.5507111917350023
Si 4.726121368442349 3.7088717517042817 5.171380665400282
Si 8.95993879191695 3.668741887273296 7.346157509058602
Si 5.072276986223043 4.671638101953917 7.322769593210585
Si 2.357282573638973 6.921339095129181 2.968725551246141
Si 7.505734943387529 5.508834150533316 7.716033579913994
Si 6.4619368905822 7.414339776674047 6.823422698142416
Si 3.2244679662111007 5.591022652912599 4.6585014174286075
Si 3.9417528183542827 8.082053224876418 4.343748430786888
Si 4.091210432591891 6.889940224007484 6.6211401083604144
