13
Energy = -59.05308053 eV
Si 7.497916431513161 7.549443876923867 5.533259906305048
Si 5.914595602452378 4.131891131471427 7.049224319373789
Si 6.774717861199644 4.006108380735633 4.71297398683535
Si 8.542313148566336 5.701827286576007 4.323476079364982
Si 3.944847367052616 5.735447920532738 7.140189233160793
Si 8.314327082663704 7.760069926844979 7.861501783313013
Si 4.384507085011285 8.22812352898219 7.852867549280182
Si 6.187319327547122 6.325681701977855 3.619433648385992
Si 8.13824689591756 5.278290246193763 6.7082020605034565
Si 4.571098624294069 4.979381770333218 4.919511274982585
Si 4.988578376062911 7.5387269766492135 5.415740231623587
Si 6.215560286281333 6.5732785957124715 7.401345447136596
Si 6.325157490775471 7.990914236404753 9.261460119257091
