15
Energy = -69.07886319 eV
Si 6.321995715111373 9.386292231736123 6.742237293810154
Si 8.734703977717578 8.339592055407726 6.720292479312058
Si 5.770580023497315 7.407361279167366 7.872864156232881
Si 5.148747075072366 9.442457403564108 4.5774684170514615
Si 7.391444567473792 8.69784897315584 4.433403667893264
Si 8.396774559383337 6.0651076325499425 7.675430573030404
Si 9.59640288794111 7.885958260666751 4.4977623468063355
Si 6.943445687327749 6.23858702559027 9.554895652967566
Si 5.582754010667397 7.262692079361269 5.364520129284936
Si 4.266581737727895 5.690978124178967 8.390224220497142
Si 8.219486479023645 4.185781259192265 6.17695101194983
Si 7.925936035113706 6.381337297112741 5.179472816385528
Si 4.6583771031170995 5.152021625665695 6.086678262213061
Si 5.541223185387205 4.215574380326113 9.857824354969091
Si 6.403490770455808 4.480351046288588 7.688844087176794
