13
Energy = -58.46781525 eV
Si 9.91438674078227 6.124699353873682 9.78635940592301
Si 9.646672704836615 6.01359393826812 7.4748754400036175
Si 9.659326901422732 8.399743846121476 9.05943390828548
Si 10.799934763128084 8.159760507794823 6.790842810783425
Si 7.677504286651077 6.6031272451845755 9.192614202511315
Si 7.274537057100102 8.977145380905748 8.66029195907275
Si 8.641091979616263 9.085254128562427 6.643190312637477
Si 9.112731624734804 6.944510510729907 5.321513516652151
Si 7.2634514339366145 6.9584858937837515 6.853152646344679
Si 5.079383155493717 5.938785934069256 7.007252726765279
Si 5.366112713932014 8.384136980179111 7.23897445564893
Si 3.6299256525637746 8.79622305477431 5.846492405531745
Si 3.222718685091483 7.203962470648316 7.6030109221279805
