12
Energy = -54.80035579 eV
Si 4.698708734090199 7.104017560259623 7.341764892764688
Si 3.277631726545629 6.030906985489391 5.662806884212449
Si 6.128326094830116 5.328884662610836 8.520996473737775
Si 5.248450644883627 4.929067131229629 6.24641122202706
Si 7.561381877576564 5.859823032088332 4.9441377891666605
Si 7.321906766972657 3.849924255439818 6.28803495226804
Si 5.678703185382098 9.149519366869987 6.284789255742279
Si 7.752269321722084 8.07046337585554 6.243358287996212
Si 5.438849970508396 7.13782976536572 4.943379489076177
Si 6.870275831831812 7.675652034122084 8.517615129600605
Si 9.723578714870207 6.966767474660896 5.664106543678642
Si 8.299917130785994 5.897144356007935 7.342599079729209
