16
Energy = -72.34930003 eV
Si 7.932878223786319 7.011528029143548 6.045561368218981
Si 9.605978999344341 8.679612803397955 5.983137582888618
Si 7.626491563434649 9.253706537680362 7.310281525349667
Si 5.650433964792294 7.634002909215354 7.502687326395107
Si 3.6639976565025436 3.628498700253714 6.819559231822754
Si 5.880543052632068 6.282954602107237 5.063739291852846
Si 3.4343324623603455 5.07360910320611 4.930569823329372
Si 9.536117272330095 7.4990934714783135 8.008662448098828
Si 5.607217311714487 3.7393146266726847 5.233559129542815
Si 2.9305608366844336 5.405907147677836 2.6580332574817973
Si 7.325609117537575 7.656980511492501 9.242033667675912
Si 9.001856271233983 6.065147418919233 9.8201872041719
Si 4.073610096649253 7.245503421884636 3.9335709875420584
Si 5.2203159263057435 4.924524339196252 3.121581557843655
Si 5.434803981408874 5.204047804474027 7.204873559716708
Si 7.728848918979459 5.456018739766016 7.884537456107031
