16
Energy = -73.11324694 eV
Si 7.335770670657786 2.920749043959617 8.629083831360699
Si 7.467955458567327 4.0140428144547915 6.455593797044454
Si 9.338413154797541 2.8709538741309526 7.31096168840576
Si 6.58063089667974 5.094200891083623 8.550037891599255
Si 5.441084525138793 6.652326640351182 6.225806155256375
Si 6.851249548400961 5.477499872512731 4.63139146255703
Si 8.022692135797808 6.511630730388627 6.385472275073416
Si 8.961533605075443 5.060801344539738 8.313290761643664
Si 4.75827353317737 6.62388292539418 8.615944901263529
Si 8.921381568043184 8.44563728677838 7.499790689518692
Si 5.929274838976427 8.923468612036434 5.74731190429653
Si 6.629171830139335 8.000064286324593 8.099121830904469
Si 4.7741679625346265 10.244226001932272 7.442911261188191
Si 7.180458639069956 10.422444890937436 7.57592323208124
Si 5.954511477928737 11.244196329224277 5.522012041050634
Si 8.138184010405112 9.981834889611491 5.372999876887012
