11
Energy = -50.30645016 eV
Si 5.593093670804072 5.202531296836495 3.909735711313315
Si 5.251280938548485 4.867837495886764 6.380249986535848
Si 7.294457787159174 5.94518819167993 5.2269398762383394
Si 5.185837377754913 7.406705482814029 4.9651016569816795
Si 7.275306131809777 5.223152584026378 7.561771862981994
Si 5.161604667139947 7.088127032687078 7.4025813085908485
Si 6.924292251428594 8.58546835971585 6.25274388543133
Si 9.18217148027769 5.904640099684607 8.745913239586551
Si 8.907053536433995 7.073017047300386 6.542831113666245
Si 5.743095866644238 9.146099998312376 8.330411075992487
Si 7.394560330470923 7.453685479504552 8.583015754619385
