10
Energy = -45.32718024 eV
Si 7.62220451551487 6.928720208651266 4.819923797337457
Si 5.247445540644909 6.552028289954089 4.591058121686851
Si 6.678903421001508 4.63056003736445 5.351945718605956
Si 6.124363741088138 8.263379446005837 6.316632551045025
Si 8.95203307231259 5.45799181689451 6.220415723209816
Si 5.014651886968632 5.5307902293223945 6.890954261250783
Si 3.923285882473627 7.616270746088241 6.823782155856526
Si 7.2661046797512014 5.2506632785409195 7.9512502395224365
Si 5.990039250826245 7.195131996028589 8.604798640702663
Si 8.18096800941827 7.574463951149948 7.429238790782605
