18
Energy = -82.40744156 eV
Si 7.222035210347044 2.865536082677877 6.359790735090698
Si 9.251295651535393 1.8513343781471392 6.524977171494997
Si 5.719914824045029 4.026363074120656 7.859664323271043
Si 5.037113460768044 3.305230198772378 5.347230109797257
Si 7.128784070493696 5.8831913281642425 7.5018218323418955
Si 9.14309791312339 3.6561662624195304 4.994035151969394
Si 7.0190055319406275 4.196099033125217 4.124076499593621
Si 4.50735804222003 8.790132686781735 8.866209999172808
Si 5.347363686344618 5.61297037591503 5.872560230162516
Si 6.695626083677672 6.592677666269613 4.151923944312455
Si 6.946075059417238 8.040633024579366 8.528909325186772
Si 8.64222447353147 5.870951085422795 5.651555362625314
Si 7.344068814866669 8.392488938628997 6.249326093403622
Si 4.075618708283676 10.942135604538647 7.887388656838265
Si 8.702849484810686 7.929692781241815 4.424304481334209
Si 4.2199613243863805 7.380812365143053 6.9614233875038405
Si 5.275251078651785 9.539408451361723 6.444387031034253
Si 2.843064700865396 9.203460391419828 6.705702046203607
