16
Energy = -73.26656116 eV
Si 9.178629018431417 5.576021293767584 7.340114232711081
Si 6.94559085753653 6.63618976393434 3.3230462191230683
Si 7.153173238664746 7.984649520406572 5.443550895690588
Si 8.020926419464326 5.695650740071856 5.286301832074679
Si 5.146309755089066 8.174255713200422 4.0900132419736
Si 6.242968562300028 4.095560219563626 4.674795552947988
Si 4.550170081254847 5.856980188880091 4.339358607160301
Si 6.937576460250966 6.585271079474042 7.43210090666369
Si 4.5689375665900265 3.9362058233675095 2.8466255374052034
Si 5.598399593770737 2.732945578160092 6.697028784129614
Si 4.108023395382916 2.451189232610784 4.762739007420579
Si 4.952276888084139 7.882389513809727 6.692784533015463
Si 5.238742644026758 5.130854920568013 6.632707215753342
Si 2.552140391619724 4.3680983586545175 4.358127784441354
Si 3.264750009717887 3.6238518461369216 6.812607648089522
Si 2.905236336444362 5.974402592019846 6.244297623504814
