11
Energy = -50.50723513 eV
Si 6.6208211819182266 4.555417013497005 7.843075308397526
Si 6.995099374586175 6.588019254359944 9.260688549057367
Si 8.50948040560123 6.059860719881612 7.312859584353517
Si 4.784545978219031 6.244117329906112 8.128250128415399
Si 8.431169547910944 8.353563679035199 8.120899623537213
Si 9.179484086889476 6.155748613143974 4.970335710980772
Si 6.962017338939292 5.402725534487645 5.564052598690277
Si 6.040089834658166 8.329591501367357 7.685216202815142
Si 5.227074660104821 6.986391151502334 5.836056543421279
Si 7.623881825750604 7.867925646250689 5.77580298599532
Si 5.679725607232787 9.329288881993035 5.486941079314627
