12
Energy = -54.58601387 eV
Si 6.581807628330217 5.246714969711178 8.30391390647725
Si 6.733105166837814 6.538321857579913 5.1773695476291515
Si 7.477353444010296 4.2395458467774265 6.103985724728853
Si 7.252733681003103 7.707221509636015 8.403414306737968
Si 5.072138152399498 4.819990598724787 6.255876286296853
Si 4.966831053367103 7.01542175679639 7.527681972287946
Si 3.020249662983037 6.107781276667567 6.58909295097271
Si 4.515574002823896 7.257326836247235 5.065159112589901
Si 8.852875029622194 6.034442929332396 7.332780172150763
Si 8.952146851878885 6.000574741697561 4.868201946432091
Si 8.482274314907329 8.191504463430674 6.105760359623064
Si 6.0929110118372485 8.841153213399076 6.266763714074207
