16
Energy = -73.5720486 eV
Si 4.182729894471958 6.4476278454015725 8.235386208535962
Si 4.975430578586368 4.19689731387774 8.473152421025409
Si 4.4962119956398885 7.793081997052736 10.205517887553563
Si 5.652594007511185 7.594773658820918 6.558066016918678
Si 6.709531483559553 5.6063593850264235 7.554713838593743
Si 8.243482107806711 9.492696390026957 7.351473417205653
Si 6.4301050909328685 7.994972906844301 8.809631410177277
Si 5.753667591114392 5.7305785794744235 10.117481719307232
Si 10.444726377434291 9.342427894242363 5.810787514931674
Si 8.092802659022652 6.177011906124789 9.401923989035785
Si 8.150643941879894 10.16921263708648 5.046251557045431
Si 8.917542435377971 8.53230086341118 9.54002486545403
Si 10.452253057223336 6.84755615761376 5.338942843427691
Si 9.731714785433624 7.5601953194450555 7.500157882423159
Si 9.280799462650918 8.384881742699376 3.836847524052258
Si 7.985280868387661 7.668641758946829 5.740312419080946
