18
Energy = -84.39593682 eV
Si 6.120661767152391 5.019872366715919 5.409364004130824
Si 7.0855618113900745 9.30720539762639 5.840340506341246
Si 3.632221944323531 4.955789964117212 7.545201544347958
Si 10.588232347077934 6.299205842683879 4.718502294855566
Si 8.474498433771045 5.29061967507212 5.550433172140298
Si 10.966657984256996 7.174254611704671 6.975011391195033
Si 5.750643450896821 7.366835443536993 5.346095872502889
Si 3.9841322414239997 3.8503817317983846 5.386289795351085
Si 5.874731353596619 5.653733449248971 7.673283840573827
Si 8.813440384025638 7.6489052980321555 5.850938572186157
Si 1.962554983154235 6.662799366821598 7.365581141874364
Si 8.837319550161311 6.2177814158249225 7.7543555346254545
Si 10.54138218336789 4.7288905173924585 6.73302865533661
Si 3.6014381480514346 8.322787891290588 4.984714192497116
Si 6.374465123570704 8.188435908355183 7.865823540123628
Si 7.186546560780618 6.546437895049731 9.416232560185797
Si 4.08999365992738 7.739078924584278 7.28301056164055
Si 3.1035201332278444 6.014986360302257 5.289794880248843
