13
Energy = -55.68754311 eV
Si 6.49637347188546 1.4870897427951177 4.4204830145166705
Si 5.859332936537406 1.4913503494234714 6.663260206249947
Si 6.561710196101634 3.612231754132816 5.828130664800006
Si 4.113121911635796 3.2068871537288146 6.362350417497519
Si 4.814986936749746 3.1982378003486756 4.056320344489041
Si 5.09695704983154 4.9964293057320015 7.713857776854803
Si 4.834819327594703 6.9417806809777645 6.491649493650528
Si 5.407165881256858 6.930198268956091 4.299591756961597
Si 6.43100394006769 5.071683532273245 3.473066115460833
Si 7.140220621885002 5.999510671368454 6.048927717014863
Si 5.033819523393881 9.30671990096851 6.90076735501885
Si 5.96935684535097 9.20141254874592 4.6701653359190916
Si 4.189010754894371 10.581822537870863 5.1494432606329275
