17
Energy = -77.87128677 eV
Si 10.011796840943386 7.225072546142248 4.052017672889556
Si 7.785101529427786 7.017182375969936 4.740351390765058
Si 9.156571280598953 8.791987371804115 5.637998638611774
Si 9.618870630175897 6.2645607713556 6.388904823614983
Si 7.570289816569604 8.045928061572084 9.06678992530683
Si 9.609143447807176 8.220333158527488 7.907397532263086
Si 5.422316811914996 6.566508710696406 4.861434934672908
Si 6.416028587159216 6.082028699039124 8.715575491797377
Si 6.103587439104922 7.845654850421026 6.932183867390046
Si 7.568817818420534 9.765190404921746 7.174349670358346
Si 7.278603419662095 5.485544741077565 6.584073968161195
Si 4.119450070248137 7.240769191134975 8.16880263173814
Si 3.5798162034601404 5.71680678123138 6.334438362174546
Si 8.83945822265718 10.012339123723823 9.345069440357276
Si 3.874956411482272 3.4367232615643357 6.875567487169909
Si 4.281092709863342 4.9608820154076065 8.724762080652447
Si 5.659424732703588 4.252225525985878 5.417415706094587
