14
Energy = -62.40561065 eV
Si 7.644348981786075 5.124195867189017 6.3683777589222945
Si 6.112969049467785 1.7061204556347311 5.402556369418814
Si 6.230853181660274 3.3609773220558057 6.964757998503015
Si 9.246624899988214 6.62038715383003 7.284958836657831
Si 7.581179742476915 7.837382420556281 8.505955287084578
Si 9.35614302504042 7.605015150001573 5.122799670458518
Si 7.553117743815557 3.380820755666796 4.835517009977296
Si 7.062918675591882 7.370355531832188 6.043429230220781
Si 7.862877753305996 9.406107919362148 4.821179834172385
Si 5.786721443936889 7.187391742087902 9.917556540000373
Si 6.990190730675514 9.682363286590094 7.072505656089967
Si 5.022629652444643 7.896974376115578 7.656041895261116
Si 4.737285678023284 10.346977442525645 7.482568669412402
Si 5.74501965480909 9.485493531273999 9.416725828778212
