14
Energy = -63.78639177 eV
Si 4.404656656498383 4.500499701861165 7.849721312868706
Si 8.605682597939465 5.845759019524521 7.956520090413233
Si 5.870788843148076 4.961774457414982 5.861150117852573
Si 8.2014264940159 4.900591465651557 5.7962135602195275
Si 6.20965075916828 6.091087626728257 8.077077676535342
Si 3.8633344893193593 3.721470230310973 5.386328495189113
Si 2.190388213996637 4.748801528163597 6.94454882556318
Si 4.45381501687332 5.480681416666358 3.7467937521539616
Si 5.398583782913334 7.539146448002535 6.47165323919174
Si 9.017065693969393 6.338623281803097 4.081762604684413
Si 8.441940257820905 7.437939471762685 6.170952349390583
Si 3.4366785015427648 6.308992173254417 5.7294360315290795
Si 6.644434281053654 6.735661665440252 4.215979073678925
Si 6.76502105339628 8.925855555206644 5.182318303852824
