11
Energy = -49.40320859 eV
Si 8.858977952580304 7.978557697810175 6.138532240631456
Si 9.40486801933257 5.832661429059626 7.417865797454556
Si 7.270700972929571 5.831079078074807 6.5099570066384755
Si 10.001767006336143 8.242084017461341 8.161381655987265
Si 7.833776480486311 7.53948284322353 8.439899430699478
Si 6.49941583290978 8.155242913149946 6.294953940416476
Si 5.519038541651315 8.435906277831144 8.432742005099268
Si 5.503905675424294 4.34721350473147 6.18309239072668
Si 5.5640567999691815 6.563198950093531 4.757953611433528
Si 4.733785425205732 6.443738476096159 7.195365895040373
Si 3.4732276016522463 5.713575048774157 5.4249968154319355
