11
Energy = -49.43531002 eV
Si 6.373842392927929 7.69264387640144 8.398352885393225
Si 4.95965019720657 5.809772962972464 8.032535053012353
Si 6.507067302272257 8.750366103733878 6.086224742623551
Si 7.743590291287818 6.504817524703808 6.824953386164909
Si 8.719409911905279 7.993108891351074 5.16417337590053
Si 4.700296132122559 3.57098347990896 7.570546652499865
Si 5.198719660070594 6.840913900230911 5.799876218255948
Si 6.540409288207627 4.472760290989622 6.255773120766053
Si 7.074497890436501 6.7145726724881385 4.1890131748886175
Si 4.000595616559013 4.85494760893505 5.530187076422275
Si 5.9626095180881356 4.626078558244971 3.9307353825348716
