17
Energy = -79.56757858
Si 6.760725980426603 6.2829028626470125 7.937885547403992
Si 3.167197639850667 5.859059094711449 5.755472396247262
Si 7.5474535524089506 9.689060965184089 5.2268335850166645
Si 5.427597690979876 1.9904063533413137 7.066683770990995
Si 6.722328432908825 4.091694795786689 7.047276839144384
Si 5.430789657618831 2.091195463371948 4.569480551120522
Si 4.650319572963936 7.070343947583154 7.218110156188136
Si 8.53729281974465 7.7820671114953335 7.859093495685087
Si 7.485728360992812 7.268842769105129 5.679252513302072
Si 4.645306291461088 4.024332331352932 5.8885755428313304
Si 6.7215205226130665 4.180930985230591 4.68359949696927
Si 7.609490367451949 2.156753884316148 5.810604399252265
Si 4.335441286009236 9.399091859556924 7.541689280352796
Si 5.080889370509929 6.792134177006888 4.6738107522320975
Si 7.147407751189944 6.218435738924301 3.557935868693154
Si 5.263746115653191 9.044646729199293 5.341201764779202
Si 6.716794886552711 9.308131230522939 7.392524339127463
