14
Energy = -59.53948233 eV
Si 9.650986839553862 11.053737554029707 5.211902791945929
Si 9.223856604451662 8.05653680172532 6.004981131339859
Si 8.098064346270272 9.889270056168362 7.008504440255156
Si 8.174652340875529 9.594716771057188 4.396441335997303
Si 8.530057473290547 4.599716588532179 9.124991259540877
Si 7.139444480134811 6.63219105174632 9.136684399851463
Si 6.7468186751041435 7.189796976743035 6.394615839220195
Si 5.508665488910955 8.214572197182806 8.23860593827402
Si 7.513655126490445 5.198442361465038 5.212531790239723
Si 8.356860018531137 3.4455312707671206 6.897353177687829
Si 4.3598452255619105 7.670449853715603 6.213187277793169
Si 5.135778477755688 7.08132489307731 10.376133775923046
Si 6.711729868437105 5.02963522456287 7.44994345149261
Si 4.534181817063949 5.912720552783251 8.204460581009885
