11
Energy = -48.69616675 eV
Si 6.083645055416719 7.921991747843899 5.323021297512254
Si 7.187957980994611 7.494471772654251 3.3593305757023764
Si 6.69345280254792 8.968871961521643 7.435999748526303
Si 8.381546716449353 7.29383724556274 7.493645736784716
Si 4.952926975966131 8.583007346622551 9.02690668502989
Si 6.062463900484046 5.480021424351987 4.444883634150519
Si 8.31255731400349 6.436814758624021 5.179341391260601
Si 6.395287578951871 5.91455177453868 6.676732191324148
Si 6.816320951297722 7.3819149658563195 9.493601856539241
Si 6.9394758261922975 5.004941590281606 8.801424778990842
Si 8.93065845209212 6.248761604490976 9.497105318540005
