16
Energy = -74.19852284 eV
Si 5.985889726427556 4.349202585284814 3.003159572036088
Si 3.534936420230376 4.266137956912284 3.4355847896553984
Si 7.1320873695021225 6.741581397539283 3.7728135937132983
Si 4.483571947238963 6.538436083978352 3.0647065244921174
Si 5.176126174544353 2.9057920386551688 4.865922872692974
Si 2.8836781455557925 6.234331768574155 4.947711699361869
Si 6.621912273825709 4.82496482165236 5.3256689512317195
Si 7.131079276356624 8.263572411995806 6.0621002433834565
Si 2.980852703588603 3.823511859574309 5.832431316177927
Si 8.628232060670975 6.070388121169533 5.994154335703081
Si 5.197335297689547 6.899382139871429 5.390795325677085
Si 4.794593267465023 5.0471526952814765 6.813237792082432
Si 5.28484443528999 7.797930117662426 7.6661114828163885
Si 7.668466788626245 6.95801043444944 8.113113998807696
Si 7.554199472414663 4.454478953630037 7.556719369661337
Si 5.731922923971187 5.614854897167158 8.945496415905291
