15
Energy = -69.7615862 eV
Si 6.044130671956593 8.28351710211632 3.5716868885123207
Si 6.778619451046632 5.787222430206408 3.697453379317854
Si 8.353782929977111 7.604358838376509 4.312509095287448
Si 8.713655938468397 5.409853776534528 5.230291413442454
Si 7.027379709355866 9.248869709066867 5.745684129575244
Si 5.010745703825605 7.4930747212610305 5.581506734956978
Si 6.0425293344319035 5.360342361401711 5.910978204496129
Si 3.99749552136559 4.27567889461889 6.60126295629647
Si 8.947998092514249 7.749118086785998 6.639360926090352
Si 7.829846000317196 5.664242283133445 7.5713133053861155
Si 6.481002668173465 7.664885649521279 7.445089479507113
Si 3.881922288833126 6.49629772937439 7.640336732006971
Si 5.535274281932789 4.570687106911234 8.299294072222882
Si 7.289626542118076 5.014457300387675 9.78816393356633
Si 5.565990865684391 6.877394010304973 9.465068749336606
