18
Energy = -83.14299698 eV
Si 4.461953673342848 7.118983715305413 4.286346182370888
Si 5.7140247228011845 2.964470636141079 5.384165722580524
Si 5.774531529050601 6.318986481590134 7.905560645088666
Si 3.295128280863112 5.5451833329376115 5.985168246686404
Si 8.107849392093785 6.5769191325835274 8.178209177769785
Si 9.152849670361135 4.354782871372242 7.436081662934609
Si 4.651897533743588 8.093851985765737 6.800237237629423
Si 4.753067743645096 4.211322597933607 7.43750029670343
Si 8.2685237238175 5.796798371588811 5.710321804018892
Si 7.203609248761028 2.9567934794977093 7.4561033326641954
Si 5.947515366199242 5.479666343219683 5.619883931584724
Si 8.200709668197666 3.35105152166208 5.3025904743363395
Si 6.345407874789498 8.593011904959342 4.765583965308082
Si 5.796106872860142 10.177236555675591 6.551180972150181
Si 4.335195960836627 4.725240330297823 3.9906166248741397
Si 8.606437843138252 8.039417091162374 4.965654102965919
Si 7.507708433157191 8.553913609594318 6.9931192326608365
Si 2.5752914260491564 7.7893098437235 5.654985472817903
