14
Energy = -65.12644052 eV
Si 5.261997888409507 6.4519297167292455 2.966689915973659
Si 5.276809450726468 4.1276363042863435 3.9340233956907555
Si 7.4448915527588575 5.60693557885431 3.365826916753309
Si 7.766385629124235 3.7075327378571776 4.769128295946096
Si 7.2222239112011 7.586114889701454 4.564549875195416
Si 4.259596523126496 5.99703667642116 5.206556944362936
Si 4.96071050141355 8.312314308633397 4.737843661023515
Si 3.4879860692314995 3.4956114503676763 6.000676548579421
Si 8.076849246339508 5.937551996991745 6.038071493590156
Si 2.139047331479713 5.438066466278666 6.164118452894102
Si 4.906527203327063 3.1484579880444814 7.896404980640131
Si 6.017599616789518 4.546286877635975 6.2986550796525265
Si 5.915735403151413 6.964963603814923 6.828610739372024
Si 3.8515644529844177 5.267486184446803 7.816768480389437
