10
Energy = -44.43057536 eV
Si 6.215151644617756 5.71339165660338 5.368616660170112
Si 6.6935299629550515 7.22111232240263 7.537510588670018
Si 5.017924107021262 3.946810710564864 6.343443982017676
Si 8.922819213072069 6.636079758262644 7.971037550180269
Si 8.137570059990683 8.658175268594947 8.96511921868667
Si 3.9760735231555793 6.2461160914942235 4.913281557221966
Si 8.277938192801235 6.823680515795683 5.684992340476881
Si 4.810336554057538 4.208780557119168 3.979187475311539
Si 7.914344835698996 8.992354661670118 6.60628067717941
Si 4.620859970893543 6.125654895022922 7.209997238154022
