15
Energy = -70.28603457 eV
Si 6.966434243144859 6.201046471202249 3.608576068821492
Si 4.538657885306724 6.633671572576481 4.30729688804774
Si 5.598954742878766 4.337516270709183 4.715303502331414
Si 8.005171345973777 4.532421839351751 5.0469324850280355
Si 6.22224851401928 8.39802967858072 4.361825754846979
Si 7.719430736892706 6.96068392788577 5.920310952993847
Si 3.9258836759950695 5.261551185988637 6.227349823285871
Si 5.380810028173304 7.373771700416565 6.592097210373121
Si 7.114894480945206 9.268188354304385 6.9359293655251335
Si 6.405765958769362 5.16376938447297 6.9864141114902845
Si 8.906018170721023 5.4088695123703765 7.622329821803993
Si 8.561040797361317 7.756347533046634 8.189236265495207
Si 4.826558920277327 6.124562073788936 8.80358820325087
Si 6.126685074573571 8.18592988731598 8.885725369599374
Si 7.201445424967133 5.893640607988918 9.297084177106195
