19
Energy = -88.91887593 eV
Si 6.938148749469358 7.339805850051365 1.9762520044990728
Si 5.186303956565119 5.685266014751153 2.6834244980409427
Si 7.567448343616262 5.05556403038189 2.824623612032508
Si 4.872043461997836 8.122252533842458 3.2990485292025005
Si 8.979240950000337 7.0359473910796835 3.519856089041399
Si 6.001170462963443 4.350958297730016 4.605998105026648
Si 7.089023297855999 8.373221804612733 4.2724785108648184
Si 5.2761863912322 6.608453797448224 5.15304629532826
Si 7.690041862655047 5.973121056389073 5.276801787475275
Si 6.466502782106099 7.028704865879154 11.089912947006075
Si 4.786446419137243 5.448330349286433 10.089112199879427
Si 7.166189194442158 4.799543607886444 10.170038138288323
Si 4.559680714985165 7.928474528239759 9.61221089376434
Si 8.658994502379745 6.8046541270467396 9.75261730930569
Si 5.801628329259095 4.234921010546987 8.182535627485215
Si 6.8687987796979835 8.21605702615269 8.89923961655339
Si 5.144439158342436 6.531991390875963 7.715813096514412
Si 7.555489757123726 5.8785351210396035 7.806124620279425
Si 6.895914119901873 8.087888430491077 6.574557353143712
