10
Energy = -44.72980589 eV
Si 6.24430475586339 6.983584947548383 9.236109827417073
Si 6.07152677101998 8.647861264008334 7.466143310599597
Si 7.6830688353112775 8.329324551503529 5.458184221075522
Si 7.272185217003574 6.4712946391252375 7.191008811524708
Si 5.641126612173065 4.707887753976065 8.360473500185083
Si 4.683687046385573 6.630287892251406 7.106460626632632
Si 8.216031870753152 5.920144153763404 5.018514360125622
Si 5.896958926516349 6.9134316512042675 4.719878108745071
Si 6.093093826963176 4.643796672356622 5.9915802508119045
Si 6.438397630944972 4.872275802005118 3.6543236166670914
