19
Energy = -87.46252053 eV
Si 9.64818349291107 6.204403983203295 4.392763015124739
Si 8.367589826157822 4.9210446305141895 2.712330180536176
Si 7.217548844939619 7.050352672159863 3.425373198082063
Si 6.782812275450838 6.146235251848289 1.2772342457987345
Si 7.706587905023963 4.949733330109909 5.101625102817188
Si 8.230996926960774 7.6781790334934295 5.6820824026773735
Si 6.194962953892262 8.703021150243774 6.2405845117257694
Si 5.838173614852638 4.900703481204294 3.071397712277541
Si 5.3756132219849 5.922308858432198 5.11777156172955
Si 6.051939124129302 3.9984367779437395 6.434812239720805
Si 4.038511719395314 7.724263169900797 5.87349552364418
Si 7.8441887216616415 7.258447671794763 8.061569947761665
Si 6.494748209404803 5.308214542343584 8.384514457612093
Si 5.0777857873384304 7.27327590247986 7.967056199894601
Si 6.568361363900104 9.24972865312554 8.631225495659535
Si 6.510009509663192 4.888284859896221 10.728912630166999
Si 4.650115796382483 8.488578565365927 10.148603202619924
Si 6.646126965650797 7.255082454985818 10.575900230546528
Si 4.506307396366477 5.978276428930693 9.990422599654067
