15
Energy = -69.73150281 eV
Si 5.920943296145734 4.209842510233045 3.150566204676299
Si 4.699222013734329 6.305741968485543 3.588114963592239
Si 7.416961216887111 5.966252021174387 3.8769456368646344
Si 6.312073165390131 8.113938316021201 4.047951663867192
Si 4.369240356763404 4.073157796324271 4.9630722900459645
Si 3.1047801559170507 6.244951041487514 5.415861597149861
Si 6.9564826399588116 3.6680624984337 5.321048272433698
Si 8.668595699588904 5.359924339368319 5.859295244386391
Si 4.767754809025105 7.925159197608955 5.961198276057194
Si 7.480031098949607 7.459763407016834 6.065614524516706
Si 2.9437305771892914 4.107138345376792 6.8786512075336255
Si 5.444347213790893 3.5149115391503183 7.2113287851426415
Si 4.441907486218138 5.8391267881105 7.552950177011737
Si 7.024916329777845 5.289419404071902 7.696337771792538
Si 6.0612413970847525 7.534838283558383 8.023290841350526
