14
Energy = -65.1626231 eV
Si 8.9858433677522 3.7909517398517796 7.911682614768661
Si 9.286300589525375 6.204651881244269 8.05507413419743
Si 7.154540364843198 5.071976550170144 8.735307778892338
Si 7.590142421762946 4.865943243047641 6.28506786769523
Si 8.254316530696832 7.49865997720739 6.391913264539123
Si 6.325649742748138 6.591913939076586 5.118213856979117
Si 5.269365806435557 5.246554505785753 7.063266706108931
Si 7.617934403845683 7.750192471591313 8.94827146392833
Si 6.7324865033612 9.286421050126943 5.134137691190007
Si 9.018623917800479 9.660817162042827 5.6390968093757365
Si 5.782978734669341 7.762817095772945 7.237852347970222
Si 5.432381015783812 6.569924853146122 9.333623787741011
Si 5.207717698327095 10.033128601008277 6.81839607793767
Si 7.52967617724234 9.896866086319534 7.486155100548569
