12
Energy = -54.85901324 eV
Si 5.715080178376928 6.905434832119406 7.325774614400791
Si 5.9961976632993235 6.4882516065411675 4.606100525685331
Si 8.555995361532053 6.27074778715147 4.927830666077859
Si 6.72565684491724 4.962304346015956 8.405428329188238
Si 5.697868387605656 4.416211483329793 6.217287321208329
Si 8.23757902468376 4.3544600787774845 6.527021660870402
Si 7.053454312296464 4.389228025877917 4.211272764901619
Si 8.159618626290513 6.736289007620602 7.443706475458252
Si 4.003866858470021 6.052925443706782 5.797305844833492
Si 3.4358014589495736 7.731592010795618 7.51167675935284
Si 7.199470824744232 8.275813085855704 5.768947875735257
Si 5.090290666942055 9.28627271464744 7.090799957671038
