11
Energy = -48.41336978 eV
Si 8.778732992329196 5.38601888099842 4.105556294425408
Si 9.697174407554977 7.011823218544085 5.84845352700862
Si 7.590196109727154 7.265935471570541 4.718898739621754
Si 8.00676375728091 7.360766852353005 7.413510057655013
Si 6.514849679735802 4.958646582995052 4.899835133439359
Si 6.358453536590513 5.675743013199526 7.139357180739061
Si 7.006452795850498 7.417527396820238 9.572207956245599
Si 5.261697748656328 7.118660454148326 5.156474524222089
Si 5.067806172368317 6.075940078461568 9.058718674543023
Si 5.541482443368073 8.072661047243823 7.414395830343622
Si 4.733392926805767 8.407642718266084 9.55201353549499
