19
Energy = -88.91875979 eV
Si 4.961798283327694 6.196948762070877 1.942596613133221
Si 6.2664387731345546 8.129412551765038 2.756963071151079
Si 7.193541931755187 5.660041373263793 2.8926549333614746
Si 4.94550377431473 4.9054851731501365 4.151968574731547
Si 5.458961585858462 9.054371648515648 4.812228166448473
Si 4.006148549839429 7.366370817699783 3.915422550416818
Si 8.2297218931962 7.508437492485266 4.025256176034761
Si 7.0537239916894885 5.480873001073692 5.265115086139557
Si 4.913136772353402 6.555812627938066 5.970716017906578
Si 7.017248400786458 7.740835257783871 6.087942669757059
Si 7.847354762501321 4.980627198031687 7.48549621558684
Si 9.86757538249127 5.71240552837622 8.384437065528614
Si 8.236088686627742 7.514228358827982 8.105315642311306
Si 4.028816007928808 5.979304248639857 8.128450398698213
Si 5.892848006184127 4.558001121787534 8.705795623327417
Si 5.73421968390946 6.942342005402613 9.502216456875
Si 8.130579801469723 5.923841432620494 10.122720649419643
Si 7.581528902357421 8.258882535543204 10.251280519595287
Si 6.136219365601244 5.033233420351576 10.994878124903668
