13
Energy = -59.6759912 eV
Si 3.718156426035967 5.0435887356482185 6.810891916842591
Si 6.115116236638962 4.553560431757412 6.828401827754625
Si 4.824850774891802 6.841948055294415 5.721200671152969
Si 6.462862158125527 4.712860191210914 9.228183724650023
Si 4.928202325219713 6.39882423226961 8.320700228534543
Si 5.768144924532531 8.52114081394156 7.158651582466416
Si 7.624354007890938 6.388069359439469 8.175619225314827
Si 7.139979390708617 6.35559207363448 5.561560740974594
Si 7.871409703629308 8.96524828867514 5.763356048868167
Si 7.824646068971602 8.74090134268231 8.389003949638285
Si 8.920496867179072 7.215224325561938 4.40360186983942
Si 9.70160762852338 9.508439014371733 7.156769470479065
Si 9.468552196108629 7.105027988741743 6.769561730591698
