11
Energy = -49.86028867 eV
Si 7.828096965879198 6.499075939535082 8.716440486171882
Si 7.397711995879018 4.533161842416177 7.229058372022905
Si 3.549332510463361 6.502055004990601 6.671138886141304
Si 7.400487959485475 8.466553331170015 7.230049613665769
Si 5.085865997528144 8.555264498678108 6.341639343584758
Si 5.081783912857678 4.445428596564693 6.344067792956405
Si 5.655626359161527 6.500774669559593 7.791994522000392
Si 8.806807696483517 6.498903698295087 6.450964246107306
Si 5.566194858288679 6.499059174288674 5.165860317099625
Si 7.563785120466491 7.841931170469923 4.779903919421678
Si 7.564306623506556 5.157792074032082 4.7788825008273585
