17
Energy = -77.54604693 eV
Si 7.507867001594181 5.537116760322703 3.6148905672123464
Si 4.893936938356943 5.187160640858405 2.847984879782984
Si 5.405990461600217 7.026929215480681 4.101747473737052
Si 6.023380485793342 6.344434800119225 6.917811060577793
Si 5.808780817987497 4.616572352973229 4.941150469275819
Si 7.677378624564484 7.375109777683675 5.1560530135464235
Si 7.409102472136777 9.629712836445764 5.829952088437125
Si 4.5351845482607995 5.832315203771456 9.045115720989132
Si 5.10244376070902 4.141337927068154 7.230906139260574
Si 5.2975656015471655 8.137750629544636 8.473293632880857
Si 7.558122980842802 9.62908521357695 8.23721223300392
Si 8.468138563035476 5.8165480217895125 6.966492365929644
Si 5.270963448696363 8.547334060492712 6.046048457746231
Si 9.242217592183462 8.25657795767939 6.98690791975267
Si 6.697346189813169 4.746874901716643 8.886163701025215
Si 7.662588458326513 7.285233263287858 8.840477536745508
Si 8.935630420963951 5.389069797113836 9.37207480629744
