10
Energy = -45.98314686 eV
Si 7.635917409342221 7.269022485615708 4.11028170138749
Si 5.5700052739973875 7.02195184643115 5.196928132359538
Si 5.917989862520282 4.589222956944291 5.404121638443877
Si 7.96293962075199 5.885953123073428 5.966309414905521
Si 7.360231931888552 8.478847133474483 6.212953353242024
Si 3.851273113966025 6.1746480785698195 6.541330492983678
Si 5.3205444370887385 8.055713686763173 7.576986407993331
Si 5.799856533823676 5.525842589348544 7.6759387938483625
Si 8.004087390860727 4.789703394349157 8.027898412579354
Si 7.5679781776756965 7.199918457345295 8.278075404171629
