15
Energy = -69.68574887 eV
Si 5.772443079625824 6.102487950084865 3.7227048179905284
Si 9.118145238664203 7.212304224646505 5.599178931386818
Si 6.8959061544868945 3.940312870158404 4.238496603670608
Si 5.068782194110171 4.3973638624370315 5.520402624612372
Si 6.74021365668242 7.538168616091076 5.540564717866102
Si 4.140717622743632 6.76460064052987 5.401653362131379
Si 4.8337890401439525 9.082970899755741 5.6256025287427045
Si 7.590553162349999 5.282985480613465 6.164789939427521
Si 3.506146072169431 5.217390364657537 7.086201945152125
Si 5.873712949924539 8.445482263000327 7.70109581741933
Si 5.692883546727868 6.036425336015372 7.587046908867857
Si 9.206796601419288 6.59943923649642 7.995011326218821
Si 8.26109063422471 8.757023096141232 7.385540780669489
Si 7.294970367016103 7.262300795680553 9.314881261132127
Si 7.503849679711581 4.860744363691827 8.616828434712314
