11
Energy = -49.38178782 eV
Si 9.115016179587963 7.536464907715993 6.776037561049265
Si 9.005975028250985 8.6310994826418 8.798502575433316
Si 8.577722921332402 7.242627152853762 4.541672047555749
Si 7.335830190151431 7.046351214035613 8.612397008035382
Si 7.87324307822912 5.479956618630488 6.056303793116652
Si 7.0863728546558615 9.238861627947458 7.240920174315192
Si 6.362895701034684 7.496289055189441 5.5119504017261285
Si 5.647163916125774 5.209757464182538 5.131617283651032
Si 5.389172878867888 6.195136008893079 9.535125923133322
Si 5.777750382126903 5.328300323677838 7.437092557901164
Si 5.0826105512490685 7.913072002290889 7.678768265252162
