12
Energy = -52.62474807 eV
Si 6.76515979698403 6.218522920726364 8.220584576257046
Si 5.96736412485754 8.52342623092858 7.685835686837938
Si 6.068661188132142 4.626601444000842 6.524319842671424
Si 5.761385334862927 7.53193798987956 9.962317150936606
Si 6.230982031109911 10.02820792568006 9.614818527341106
Si 8.079455445022479 7.572720261885757 6.703791751858728
Si 7.813430257193993 3.8964205797177085 5.140569790137122
Si 6.969893114357927 6.240267211133103 5.012287949539017
Si 7.960251249158491 10.270862910427777 7.886465795059582
Si 9.839420957586077 8.719214257249702 7.752775475407012
Si 7.991394739654934 8.34445088904985 9.373051972505841
Si 7.65101167884534 5.112465232875855 3.1337482616303016
