18
Energy = -81.88479344 eV
Si 8.204828529565699 5.048841540976164 3.6329497723227844
Si 5.85514983618306 3.1919369751578373 3.2884237349836236
Si 6.162039786382191 5.304676423796728 2.0491814871210994
Si 7.716009626376378 2.970557437403839 4.829690389770396
Si 6.679390078261284 6.983393085212165 3.8136239115011685
Si 3.713523787728183 6.059436043919371 1.6837967596008634
Si 2.286473503802767 4.926230622378239 3.1943002688248825
Si 7.655001616072882 5.3044702155949395 6.01550298915644
Si 4.639541806547946 5.292639277291671 3.8837003861646324
Si 2.0172012496877514 1.4843231157561925 5.028911623927605
Si 5.644682413821662 3.7603896452851044 5.728216749456345
Si 0.9233055736958123 3.6643464964387924 4.735657954158994
Si 3.465423174375616 2.8821226182347957 3.9933241795592673
Si 5.448233259810787 6.277133416178164 5.826170335780875
Si 2.1397121109573716 5.543499658607545 5.602649606134052
Si 3.932618936572256 2.1930172015576956 6.513196192289714
Si 3.6348071656011003 4.453017970753395 7.139342455511881
Si 3.5168351345444835 6.819449739970916 7.188884795380814
