18
Energy = -84.58210653
Si 5.699662949902289 4.604123570625464 4.994998994706884
Si 6.665074345703672 8.88647605322695 5.423526900041878
Si 3.2118767737183345 4.541294994133191 7.127240727985599
Si 10.159888610602636 5.877687171329717 4.2959651997626835
Si 8.051637227984164 4.870632880858795 5.130231566576161
Si 10.54397409136968 6.7569899181965685 6.551679946361319
Si 5.331252335198283 6.949151097610381 4.92634501465064
Si 3.571475433011246 3.429057315283951 4.974862558576949
Si 5.455762312346596 5.229624587966764 7.258758113552221
Si 8.390113895691181 7.228763862395713 5.433168817383467
Si 1.5422667981479834 6.247681506743491 6.932533104791268
Si 8.415830640493757 5.795880041631745 7.3330245760222805
Si 10.122000876601291 4.311564041687994 6.310301115419281
Si 3.1818658805903794 7.904753161931406 4.568861177707214
Si 5.95452779864263 7.7623408479885105 7.443153919368968
Si 6.768036695654445 6.12554754048345 8.99581488404575
Si 3.6723105705714265 7.313213794760303 6.864016732043722
Si 2.6901641247752 5.592938974150646 4.863238012008605
