17
Energy = -77.83007703 eV
Si 8.984227549251488 6.821355746975905 7.482508002094831
Si 6.898266547520875 4.064486939721232 4.507102564744891
Si 5.070302069081262 4.518950254658436 7.501228810259781
Si 6.0644572086478785 9.946822037637322 6.4979417390356415
Si 7.035248890769214 5.612871055381664 8.476608153315128
Si 7.712595874244298 3.7252538700780864 7.0231295455371905
Si 6.324266605536031 7.778789499878408 7.700116213843301
Si 8.313756269743541 7.656280061977995 5.0676975282903305
Si 4.40220957782918 4.5793004202629435 5.030876430337997
Si 8.790884381754724 5.281916172116545 5.473166162355366
Si 3.244089749921458 5.927352491186735 6.775595529317166
Si 6.4011583093372595 5.989482205044927 5.911356852729377
Si 5.810978943829212 8.13042397892101 4.924586764843101
Si 5.7397129972008365 2.5676310672240823 6.150984770753419
Si 8.36383372034515 9.13583945841765 7.135530109879705
Si 3.7317256038781674 7.020043936662066 4.544848702241411
Si 4.086449232597172 8.217364214973406 6.7708855917242365
