10
Energy = -45.67818451 eV
Si 6.927375463854544 5.032317395395326 4.7126231487780945
Si 4.563292303772509 5.052005563445367 5.198152956085732
Si 5.380904850227292 7.2639517926940975 4.701956381200563
Si 8.546766544443749 5.084747354276185 6.556377562836218
Si 7.840708813592689 7.321566047215913 4.841065415667584
Si 6.027547900201643 8.779131851675137 6.526938373095943
Si 7.350449847762076 6.978008856526897 7.282334408167354
Si 3.908520434042211 4.6261931299160866 7.5475777731093725
Si 6.257927357427011 4.687429211609297 7.131314294039094
Si 4.813897150642836 6.792039463212113 7.119050352986742
