17
Energy = -78.54190261 eV
Si 4.7663047687337485 8.174775317602196 2.7469269534582086
Si 5.36912805569295 4.64351657975365 3.9339987679083706
Si 3.634362977470972 6.43194790688142 3.874336451813779
Si 6.42253217311209 6.7194456537640805 3.6652433039977326
Si 4.31902159662885 8.619975866244145 5.083744917316841
Si 6.880040007315052 3.518358939918041 5.663937403428021
Si 8.422104748458901 7.489149112296763 4.710131264542496
Si 6.473186256466836 7.992815787646317 5.9380580033492985
Si 4.89920868759319 6.0570183653786795 6.005403280655971
Si 2.71722700944537 7.051493716013604 5.982463835580961
Si 7.055272982508724 7.312067202306376 8.098816569172056
Si 6.264875493835539 4.8495413090845805 7.499238895277365
Si 6.392393017720818 5.6562082524774056 9.7950838952796
Si 8.473266995883764 7.359727590265915 9.918015810688617
Si 8.29703666114065 5.400441931427455 5.939376869964491
Si 8.680854166272816 5.451297674143268 8.286526530508958
Si 8.66355026394849 4.997905011347846 10.534403511204266
