14
Energy = -63.03256987 eV
Si 3.764428839428114 5.358236602464211 9.14246652456755
Si 5.14639454830001 7.254821315957615 8.811834164718945
Si 6.0501369866510055 4.590551474336526 9.331127222118745
Si 5.259723503462847 5.46262871925398 7.20876309578879
Si 8.454647557893692 6.210735622580249 6.213089437084277
Si 6.371865023963402 5.709677017040101 5.1284465434563975
Si 7.327289937421994 6.217171844265054 8.263653481822738
Si 6.724619514043516 8.075303226922799 5.124475902697591
Si 7.234123659955665 8.564585700025146 9.176442020747045
Si 10.623225645907764 7.097806201711904 6.35815794940055
Si 7.109006263369733 9.508861734659463 7.002797159612393
Si 9.037058805712666 8.55292726268116 5.288711385881687
Si 9.372508682638852 8.498582605281351 7.929163100033614
Si 9.180750858323819 10.557743446832243 6.614568482822743
