13
Energy = -58.91167728 eV
Si 7.067371979175612 8.66907274133561 7.6018295713159665
Si 7.067241845053 4.3308942941704744 7.601800145788391
Si 6.192370576866417 6.500005985589101 8.831430112089603
Si 5.990135106330942 8.629703041479289 5.015780562698243
Si 10.203887749545318 6.499846559240013 6.064715268277573
Si 8.175648422111127 7.744353978926705 5.529048149171972
Si 8.366180484445191 6.499953777002326 7.605567963954816
Si 8.175565548491388 5.255605390510678 5.529042614552065
Si 5.990024096101384 4.3703247044819875 5.015771734341729
Si 4.831794980841064 7.776836128274389 7.068212709062859
Si 4.759308015873135 6.5000436166730235 5.01076949198197
Si 4.831728519796681 5.223265653221732 7.068202274837963
Si 2.848742675367814 6.5000941290940375 6.557829401926367
