16
Energy = -74.60163473
Si 6.747556331144166 6.083433900563207 4.062196469282011
Si 6.052780446787487 3.8166777425199854 7.7678838816436375
Si 9.537226167334085 8.095172856386414 5.819174162140113
Si 2.438393157303678 4.789842070233281 4.968840400899248
Si 4.474795509609897 6.083871737620236 4.641428584991341
Si 2.1167361670264873 6.083845230065044 7.036179464955213
Si 7.1859121011752745 4.474955433523125 5.764411490457937
Si 7.185786683201546 7.692348158815031 5.764133776340528
Si 4.244760264265411 4.885603466686126 6.714848738058766
Si 4.244703728695395 7.282109148232181 6.714871475910307
Si 2.4383914688126835 7.377848533646649 4.968822277197839
Si 9.53743053676608 4.072674554154398 5.819398168094036
Si 6.816311422870249 6.083855912971327 7.86673843463159
Si 6.052866466309434 8.351026855422532 7.7676302306570015
Si 9.07606357582779 6.083982665501471 7.065313244287437
Si 9.19137101495304 6.083836775742253 4.599214242536382
