17
Energy = -78.37003357 eV
Si 7.072673269070396 5.248199595751314 10.087976395202052
Si 7.653926221085908 4.002569207711494 7.862043683780989
Si 9.249000533699421 4.608425721060267 9.658930421818248
Si 4.922935843507999 6.321382808235512 10.077498575850742
Si 5.604415438260135 5.434922599143721 7.99066712129916
Si 6.598398392988558 7.698903969536038 9.108398918546348
Si 8.638539741365262 6.609356396431642 8.498406534914578
Si 5.9495420986823655 9.73593522923772 8.11383581286472
Si 6.064461692976426 8.048064003440372 6.45229504482628
Si 8.687208579280002 7.7174679460706015 5.740254702150568
Si 7.439837563251932 5.784432234039559 6.258242406169153
Si 5.114127943195733 5.97384969958334 5.700324550571297
Si 8.24188741653657 9.726828487388644 7.337675099027546
Si 10.192098920345437 8.308589937291037 7.464804204976792
Si 7.145397732113265 9.403768452621263 4.7553357183006515
Si 7.8538079809770736 11.507939438813537 5.690891923204922
Si 9.64880589658229 10.040684471042347 5.329910860668589
