18
Energy = -82.55160093 eV
Si 10.46243039371131 6.696745188025072 6.7014118718947016
Si 8.65330842756239 8.210193705910003 7.321315358357871
Si 8.836431453069139 5.854384686299177 8.232533708327338
Si 8.486995059401156 6.292247513123064 5.529614456669807
Si 7.461162160421442 7.58644497117795 3.745023914825109
Si 7.285748955606502 4.52116402326966 6.531830668339646
Si 6.910027177655995 8.807278069274844 5.730828386390375
Si 7.048851590841276 2.3062587042095255 7.100078953297007
Si 8.010850290067868 7.687978271433961 9.564593130204205
Si 7.779858014326918 3.86887547740276 8.88749752963041
Si 5.340213435012769 6.897245532448579 4.445196932194287
Si 6.193159009670228 7.932262967855113 8.039892044499197
Si 5.312793157345524 6.014468947642392 6.99240256227717
Si 5.451210320890574 10.048313594778923 7.138110016112644
Si 5.512710606082855 3.9850589150130666 8.23107542968159
Si 3.3885871768470777 8.074889001459757 3.787013184948658
Si 4.035860591370003 8.610677882364756 5.900900356719679
Si 3.370025513336658 6.2377579695869985 5.697955329470989
