12
Energy = -53.41324394 eV
Si 6.21673406900995 2.6848666280678173 7.972263236533211
Si 7.601541327978793 4.530031993563149 6.935457965305748
Si 5.757889721697392 5.172973049184081 8.132955098280085
Si 5.342234152989779 3.7504979914602927 6.119942748823185
Si 7.300284018039599 5.241308364900353 4.761876557683849
Si 5.474354167913264 4.117687269234175 3.6984187110987348
Si 3.3945578493854387 4.827241352414894 5.114862080857704
Si 7.074779553902834 7.5361230688543355 4.658191862259295
Si 4.17859030123864 6.2837191473638665 6.853286754721042
Si 4.867170134066232 6.470205600587729 4.0607858580217195
Si 5.173995304848322 8.665601896883683 3.436031842192453
Si 5.245284648779255 8.110438468089729 5.90587004166226
