14
Energy = -63.83572233 eV
Si 10.273906194357943 8.015275230658695 7.804758149630129
Si 11.13217192147682 7.845340317124907 10.028312392429514
Si 8.885546602992882 8.684132411664548 9.88849822701219
Si 9.594589528089742 6.1054109317656104 9.436979369797532
Si 9.64401815033495 5.746596276353558 7.018348828411486
Si 7.997307480189737 7.466959590972116 6.63140622312594
Si 8.467511904073184 9.641214185141989 7.689508029737427
Si 5.115217022716978 9.112405569484306 3.63043119621963
Si 7.4360577544133735 5.645205555679157 8.289669193509647
Si 7.483736829038484 6.718810493438428 10.564185436001381
Si 5.935066584184622 7.700459698093086 5.253021868107074
Si 4.706307359641696 7.723889175733918 7.343843609169359
Si 6.773016987448871 8.037404779961513 8.66589405887208
Si 4.366998711344905 9.438722914300849 5.81990307028038
