18
Energy = -81.93597065 eV
Si 5.162198367764218 4.993915348284589 8.24640948008007
Si 5.461883978691706 7.323114257659692 7.948973540814068
Si 7.4620231795392025 5.635213005994483 7.527746190634676
Si 5.794172280893492 5.638662180184606 5.884504551076367
Si 6.183787988620191 8.087346851160481 5.764569014199843
Si 7.602848441692696 7.757643872617519 9.095466795031202
Si 9.557618471110985 6.588750787308699 8.096817245799956
Si 5.681849067538663 10.287058604815243 4.961712719632936
Si 8.58055816398997 7.998468544393626 5.890311692608501
Si 9.091366984164171 6.1593087729028335 10.511890677523509
Si 7.840139424072402 9.46254049052279 4.077986683135059
Si 10.798827998305564 8.314387022650479 6.65924595474
Si 6.901756567199732 7.30371484831352 11.297702276299008
Si 9.118836162113814 9.47018429971215 8.140744355344262
Si 7.4637768604757255 10.29185552008026 6.493125011767443
Si 6.981363393522325 5.128445532824735 10.049075286614778
Si 9.63135326319354 10.279438970435137 5.451024215524274
Si 8.986754762634279 7.664760899758746 12.29110453028529
