17
Energy = -78.44074915 eV
Si 7.037164053004715 6.896987250648363 4.6981470115165695
Si 5.866406415805437 4.173263269795498 7.665659419094184
Si 5.709447020914438 6.704438106315757 6.925240406394104
Si 4.747936496203523 7.817888317076645 4.8777474777251335
Si 5.3333939161822945 5.5184230491128945 3.811875598803711
Si 6.996174614710095 4.587834452647419 5.603148381064851
Si 6.379824841538997 4.133814848906544 2.1050894158865225
Si 3.3063259414864703 6.547349794855123 6.4645409971685925
Si 2.9150410485443667 6.360252737147056 3.8061799153367684
Si 5.6632627175981165 2.3256237278856595 5.954245979156637
Si 7.1268005508264585 2.6977138114901313 4.021463863330672
Si 3.916324003189114 4.89087075344615 1.8926348860739486
Si 4.399104665151308 4.495172897899006 5.746507127724314
Si 1.91480839263288 4.560992759890188 5.678123494909476
Si 4.713298412118053 2.900595251616364 3.379460096222911
Si 2.1191911533345897 4.044018134034184 3.3101774478867303
Si 3.2044995900527242 2.4658355356784227 5.156996816124742
