18
Energy = -81.86950579 eV
Si 8.775826355299447 5.307004441309818 8.646097961058699
Si 9.739705596413286 4.89575954705645 6.29739605893426
Si 7.32664396767633 5.006464096348082 6.427078746429628
Si 7.881512478499745 7.599487192204806 9.055471024508734
Si 9.60313873057087 7.238600894622844 7.298080589747842
Si 6.29677628060908 5.689788714657305 8.471089130351006
Si 7.954849770915892 8.99312735375981 6.861426423640395
Si 5.823443737767147 7.9285362064500635 7.60008144215309
Si 3.6990216948705914 8.873256184555446 7.780378830595315
Si 4.203459226276498 6.721169618542664 9.167272617613538
Si 2.0914371948002226 6.889308106551302 8.086570664211163
Si 8.563283959442279 5.791463988266214 4.329767833673517
Si 3.776051002076212 6.694840723121119 6.561361070921656
Si 7.099458749243457 7.239565558691848 5.42014837770439
Si 7.395124377969748 4.769270939243367 2.4570256828924633
Si 6.197914629551894 4.462474707583483 4.43614807390619
Si 4.973454014744527 6.6260196346816125 4.573243183145483
Si 4.9639041989521555 5.368015730782581 2.5788999828634576
