19
Energy = -88.76848282 eV
Si 5.763888082745031 5.81613810805237 3.3979894350848494
Si 5.041321535348259 3.8126503676752352 4.46859017063386
Si 7.746392831827311 6.536459168652493 4.514947851809234
Si 3.946174147840264 7.422973546693067 3.400543387495134
Si 9.260863244777523 4.856033940785868 5.297652462204838
Si 6.989420833027702 4.233286043867415 5.781344204159649
Si 4.02971475836319 5.852580425072378 5.202018950729344
Si 7.734120698330642 8.847700341444252 4.764626655498341
Si 5.398201955228974 8.280597968608742 5.071315864363574
Si 4.651048493419836 9.332708383394296 7.135757379000617
Si 4.515456971358673 7.008614850851313 7.212229148176837
Si 8.318025430333861 8.178451300680399 6.9516683349343005
Si 6.968833716717141 6.188082456047279 7.127058016020682
Si 6.480026662809664 8.386907231881738 8.42493161705554
Si 9.470162887555492 6.1588465071211065 7.461428047427321
Si 5.444934996272008 5.825229731208978 9.10944045091525
Si 6.772736787282832 3.975894008758607 8.271691645366934
Si 8.197058265961777 5.562933521645041 9.383176792691373
Si 6.771617700800058 7.223912097559235 10.523589586431852
