12
Energy = -53.05754269 eV
Si 7.439871365107681 3.3946497755533653 9.496320383947802
Si 7.606980448970194 5.168784721611285 7.926059710084313
Si 7.435983026721477 5.681605800032615 10.281366002843557
Si 5.935052892366088 6.68966805660383 8.798082335899819
Si 5.416164960744757 4.437543324915672 8.689109670299022
Si 8.023741356904475 6.795148573178705 6.275243093030942
Si 8.84378250483228 7.019590226997167 4.063415152645781
Si 6.357192027523312 8.244029441135963 6.965236743570881
Si 6.290016649314617 7.157554518228707 4.540930730017995
Si 4.271472370702939 7.8731252205798405 5.506959426211055
Si 7.5645189032280005 8.950974915041202 3.516444924620772
Si 5.907423400849757 9.595631982880963 5.065205459266157
