13
Energy = -59.73742556 eV
Si 9.722694513986676 8.485680114479669 9.730949221933882
Si 9.966701377908473 6.6037709712592445 7.599225907237053
Si 9.518335496154418 10.723084659508364 8.908480346973935
Si 10.113233810049042 6.170803676697044 9.909101425583973
Si 7.615008514081537 9.26476839755494 8.638051645014087
Si 9.904753348122052 7.698824573450758 5.472513623877287
Si 9.713506784438371 9.366674144108682 7.056013807429746
Si 7.946539520685152 6.854200995562751 9.056845011219098
Si 7.829594655818692 7.549270306470073 6.694298972516986
Si 5.641618812440399 6.637227121084679 6.293039890843753
Si 5.619870605621111 8.853322681434038 7.070139493650942
Si 5.317036244991615 9.274392726875355 9.3596117825084
Si 5.507515245876298 6.887055288588982 8.750641776557696
