15
Energy = -67.74483972 eV
Si 6.992137863633886 6.877789248882646 9.608409454088232
Si 5.16562624734085 8.192998251528296 8.4855794237108
Si 7.060810624498672 9.560159213867683 7.550469510369805
Si 5.129870297259158 8.405193272365695 5.97789485726064
Si 7.106861817076139 9.699304565117743 4.990584112157209
Si 5.059923180032665 5.722609309154657 8.032510798436883
Si 7.082334310102972 7.19265559887434 4.470089766232266
Si 7.038396097481103 7.040493041949259 7.039238179451636
Si 5.18754202738873 5.9275175256201456 5.531898881152727
Si 9.015359195659583 8.357074573457956 6.045172558247431
Si 8.9439727845578 5.673440464391356 8.099487351870488
Si 8.912586473524613 5.887461582735653 5.593910142433874
Si 8.88949962334259 8.149141002961395 8.548323043621124
Si 7.018695717446175 4.517493805186812 6.521540308120382
Si 6.9683500945453805 4.368634837611777 9.07685790655178
