12
Energy = -54.10934847 eV
Si 3.4371233476153225 7.381006363481949 5.6929796266371815
Si 5.728874675982271 7.259012123335365 6.186153604355463
Si 4.841667430690196 5.824338809918537 4.167106366910267
Si 2.7550586430510964 5.058956800980422 5.226365913125563
Si 8.05128479495258 6.83932025200252 5.040742135231658
Si 8.780934024337396 4.856851129296977 6.538375984647908
Si 4.706792655203672 3.569469843739583 5.442038044760743
Si 7.510122032916585 8.663133549678815 6.798464708869318
Si 4.179513269479971 5.402682065038712 7.205993978503548
Si 9.47614346863461 7.180740240670745 7.012976451965669
Si 6.489903490099094 4.977567326362847 6.033546710262461
Si 7.379059832886982 6.410200442998591 8.048421480489392
