13
Energy = -58.27642755 eV
Si 8.590115045267506 6.071463585433737 9.904765085240047
Si 8.311144649028842 6.232872079580315 5.882340170383051
Si 8.849582328854476 7.499491334471555 7.935748251852471
Si 7.658418879353333 5.092092927576438 7.95208674025399
Si 6.755058199327839 8.047600501285691 6.852947513795385
Si 5.32563928918668 5.845078229300204 7.320262548444397
Si 8.593752541942749 6.7744351702508325 3.6222603649483114
Si 7.222110425245047 8.504576383726961 4.58294523208063
Si 6.10157940707996 6.2045660486765986 4.9818396333632045
Si 4.018244703324014 6.227232864166813 9.216112744281638
Si 4.94956410219334 8.325288093281317 8.320110835056115
Si 6.42135788010776 6.858036311745433 9.441481795419666
Si 6.09219810718132 7.2418928533234075 2.9105375605287183
