16
Energy = -74.59185498 eV
Si 5.195659287962324 8.44228725671016 4.9098505158619465
Si 6.650717750811883 7.1481529843547715 6.687719830384593
Si 6.976966313599534 7.052232936833107 4.246015058801978
Si 3.99210037694364 7.662404740130414 7.004593660875232
Si 5.803873577995039 4.746908374433714 6.375201612120657
Si 4.480270566965255 6.1654041233682655 4.553626811500488
Si 5.261807837252816 6.0750847947702855 8.360346575702719
Si 8.154287863111254 5.394586771211337 5.827454253984615
Si 8.384308213210701 5.437486111831349 3.3842719770536496
Si 3.380285033934454 5.3122561940250765 6.584663820376981
Si 3.930201427054657 2.8915763763888807 6.257349072143153
Si 6.18236992830938 4.52602517870551 3.7596713381490288
Si 6.293235835844349 2.628033925893736 5.401302029752713
Si 3.992998167656804 4.879134506299476 2.581635535225633
Si 2.5886302335062843 4.263870657922133 4.4816871047419395
Si 4.3526005666728675 2.7244515614736335 3.8253322722506273
