13
Energy = -59.07778817 eV
Si 8.605633530038734 8.340497807436952 9.748049179001429
Si 6.857111344124821 6.94984213760116 8.825245721913445
Si 6.179360902610965 9.262433815936621 9.535078619777497
Si 9.304515759423834 6.793278078057009 7.935869294879757
Si 7.978672977551576 9.189696628526256 7.5106644321099605
Si 7.478783837688447 4.937301132619235 7.724082181408505
Si 5.59531082003509 8.462972455085973 7.417863804881443
Si 4.386409983291216 7.2509616570324535 5.658730578448941
Si 7.971372487944678 4.949112684800129 5.120104645888514
Si 6.051026969722815 4.445207760383301 3.839320297446322
Si 7.575556984392444 7.08350981725081 6.277447245518886
Si 5.561242458440431 5.184179231598068 6.022493236031805
Si 6.31831426099844 6.853099570205174 4.208558489280267
