18
Energy = -83.09189487 eV
Si 8.826368102256067 6.4809499030307345 7.498355044023238
Si 8.720098566750568 8.08666008791835 9.323259265387263
Si 7.099522738231122 9.414540283713526 8.062336834543357
Si 9.12864381076757 8.767456503013664 6.818482235793144
Si 9.593385693462077 4.553842038679956 6.159410575578097
Si 4.960245779587069 8.177661678795673 8.194805319734813
Si 7.243298251298448 4.110452499512767 6.05134490015547
Si 8.253118490540087 5.825715293955482 4.520316965913534
Si 7.274833907824107 7.610607653926308 5.808383868866167
Si 6.420709563394124 7.028006481492144 9.614654323035827
Si 5.6692807614907395 9.389511148747012 5.9967705799533535
Si 6.261685461794132 4.880806485797936 3.9581776368551127
Si 5.314672023466441 2.9089897570534915 4.983452143852193
Si 4.726150768317244 6.827984210301448 5.919264736030232
Si 3.3493899400224287 8.61299904986528 6.543205381177633
Si 6.377190234802693 5.942685463518775 7.547445821630654
Si 3.9098740827287877 5.063132544419117 4.438889982956193
Si 4.6096015111404265 4.420014914696828 6.772869569328405
