11
Energy = -48.37018881 eV
Si 3.2420701122412887 8.088242076667791 8.311907079221346
Si 4.480040471440659 6.1452681611088105 8.031685797830253
Si 5.417591728891478 8.565265044175568 7.333946690802021
Si 3.7202381959184856 7.63189934382148 5.945303652122494
Si 6.700919709597272 6.589452594032036 7.241853023802843
Si 4.5955742597649305 5.46938568208463 5.758323702827385
Si 9.117962890179811 4.186707790982674 4.520518236782605
Si 7.129922921840397 5.449362823462312 5.246970046040489
Si 7.135338387105482 3.0402171924395596 5.011804699466586
Si 5.351857031396349 4.19633085866006 3.9257830574748263
Si 7.431446639992654 4.953476668567281 2.9582422576259972
