18
Energy = -83.14940191 eV
Si 7.421678471295589 3.1852150236808727 5.8265826930520666
Si 7.168443326004226 5.658866213880274 6.326185351643447
Si 7.724556285912106 2.586474211480486 3.6084254364820634
Si 7.1524671636431485 3.998941531572462 8.06916615082563
Si 6.134480579044771 7.665568080717945 5.520113336935593
Si 6.205829731518772 6.5178791412984465 3.4186456040197113
Si 7.88952723045808 4.9850702022431665 4.088179060459216
Si 5.40782686909185 3.148968474774038 4.222889656459973
Si 4.515608366179512 5.773801740136827 5.650062112832571
Si 3.8209604690040235 8.16172140115338 6.139816589893378
Si 5.145503336152146 3.767430454893308 6.740592219939272
Si 4.521536029968182 6.754814544321866 1.7371335040363232
Si 3.844235309278764 7.499148290166728 3.8701461644369375
Si 3.475559134306841 2.2684463857811843 5.499950873402711
Si 4.120720017515293 4.937539225087667 3.3359796247830977
Si 2.7383912020856767 4.091761505786777 6.961647599377336
Si 2.0696019572541586 6.2527756368167875 5.900053853816285
Si 2.1793341236747956 4.0583715344920375 4.525014872950936
