16
Energy = -73.19764504 eV
Si 4.343745544512333 5.588312487378166 2.8861752397034994
Si 6.698489831636173 4.975600507191539 3.081699266766014
Si 6.161762653614124 7.351411087730348 3.238975305182695
Si 5.157598396347721 3.3348363638607403 4.181704355338897
Si 4.141119971323385 7.349192661762152 5.038118187065054
Si 8.200469814804897 6.150191989149681 4.680827822977599
Si 3.3801857668372515 4.9514601302042545 5.079524389761035
Si 7.545113379317602 3.6999235322965602 4.978143236740008
Si 5.787415550923714 5.405989765395622 5.680572590283682
Si 6.540566469482908 7.814181276392351 5.63547817811214
Si 4.268849028639328 3.6071366618473775 7.039855265932222
Si 3.154928968998636 6.12440615850742 7.241023012353659
Si 5.067063828591182 7.7779438178915195 7.629184980275514
Si 6.7752455558237035 3.8706653079436317 7.457752823475222
Si 7.386906085724439 6.337333540952602 7.5527696076845565
Si 5.1980224839915214 5.468898042064102 8.405679068917118
