15
Energy = -67.04842432 eV
Si 7.085685499911124 4.0000218614413185 3.190261484239705
Si 4.791164188441536 8.010957059051625 3.821609296404499
Si 5.821646388980726 5.950995396380131 3.415721718662589
Si 6.000165438933978 4.227358956824035 5.275966052466369
Si 7.244720300789909 8.061160583242469 4.405877190342084
Si 8.02713875427803 5.688415623759093 4.778748311086879
Si 5.428110949447731 6.789835077351788 5.745064957367875
Si 4.641493111006133 7.330370886023793 7.955763635494822
Si 7.566193251485949 5.295519737618998 7.1415146488056855
Si 4.830047272685797 4.848161493992629 7.412018151133367
Si 7.354424820504148 8.189899278219126 6.750554124524694
Si 6.382207296601164 8.732687424317659 8.788100682244732
Si 3.0935418458649218 5.764506433094223 8.582329641405469
Si 6.549443282853707 3.2114164656943736 7.418771881068267
Si 8.34555029490351 7.0602264196769084 8.479230921440973
