13
Energy = -60.10305426
Si 5.809916392422248 6.088744370479652 4.778232247125653
Si 3.5285690515224646 6.08837454952284 4.053161579053022
Si 7.9272078524744725 7.492291674830264 7.436626365945274
Si 7.928203602481896 7.491209468373808 4.74052729329027
Si 6.052177498589317 8.244343107106781 6.0877371185306055
Si 9.388546972760494 6.088208895669152 6.089967776623319
Si 7.927528956242166 4.685541533405212 4.741159167803722
Si 7.926561913932531 4.686023516773816 7.437633066538182
Si 6.051581904409482 3.9337341099052896 6.0890285361131635
Si 5.809449405364471 6.089525719850362 7.3990944182684535
Si 3.639021989697834 7.370982457943193 6.0885031089888715
Si 3.5283548885698304 6.0897735743640355 8.124691120139614
Si 3.638631024293872 4.806998474536286 6.089389654340418
