15
Energy = -70.02126454 eV
Si 5.702453098036082 6.223588189589436 3.626706093285542
Si 7.684170798296863 7.558506465799166 4.067678924029357
Si 5.687533498007465 8.756695470755572 4.5223691913537145
Si 7.9422256827222455 5.151985331628313 4.2154154743917704
Si 5.975930462666678 4.890837414134722 5.72231781364581
Si 7.682867124077204 8.749989238233855 6.2358279373012095
Si 9.44059802322292 6.943604719334199 5.537462435086516
Si 5.488562238684511 7.19296099078087 6.284062692071022
Si 7.676057258306436 6.144358852011642 6.900218814042409
Si 4.0457015175546225 4.996704494712725 7.310741193900516
Si 6.235244698209173 3.8713458314881515 7.979452373789153
Si 4.085052642751516 7.548335188750801 8.151587893019842
Si 6.6359578802904196 7.944974450995344 8.606999727612369
Si 7.790820191344219 5.675556261138817 9.220097431521854
Si 5.4268248858296815 5.850557100646952 9.119062004949074
