19
Energy = -88.7888514 eV
Si 8.717383462468622 6.19045735483925 2.9534076159493012
Si 6.788813543381971 7.428852677453163 3.4966974141532448
Si 9.067877514965692 8.238536174382887 4.268848981676224
Si 7.180865561015463 9.477041014479958 5.05089882061143
Si 7.755693282676862 5.6642061233182615 5.1101405037034136
Si 5.033961002348085 8.83862419631187 4.144805733381816
Si 5.621798865599084 6.997403430534252 5.622651406243007
Si 6.282154633706008 4.130647357566395 6.2752077057510425
Si 4.023767649717409 5.4153269184791935 6.450877753806766
Si 8.99370650338404 6.073976474541129 7.117269090215699
Si 9.022459996611893 8.360417485166078 6.612111368133596
Si 6.849159830132841 7.502156179319145 7.536141870096676
Si 3.1344182569184484 6.1292487991503455 8.538554985932842
Si 7.274348548441808 4.871158641366652 8.25511979807485
Si 7.4507901525373486 9.903223761912963 7.43558139547492
Si 4.204629601040409 3.032229157316286 6.48002329521787
Si 5.4067413504895585 6.5137952070275835 9.206284609900933
Si 4.485116805250821 4.17074838336553 8.63167947353477
Si 6.206313439313715 4.5619506634692835 10.313698178141532
