15
Energy = -68.95971771 eV
Si 7.061811610733993 6.775065180545321 2.5185164127178354
Si 4.786454284418433 6.1143804940240996 2.8665755360320087
Si 4.460350275546666 3.9412893995315157 3.8413985685779717
Si 6.72793380567256 4.650476483818066 3.595576303022371
Si 5.925464073219853 7.879328944465844 4.3990105151527255
Si 3.589766776434585 7.594126554552009 4.347394356005958
Si 4.3568124703103415 5.6898459305561015 5.52423560185454
Si 7.063651009162064 4.911340646123814 5.868420578897909
Si 6.281200028811843 7.217268873678302 6.666459689154787
Si 4.525008698617677 5.615787416233947 7.968533851423735
Si 6.629611056464278 4.172911538625213 8.054362757773575
Si 8.53428080951596 6.030650227573731 7.329063241448107
Si 4.909644523069209 7.925044139321876 8.460978578714847
Si 6.752595664246473 6.556832257289525 9.074251504840769
Si 8.384727083413011 4.914964083297613 9.474534674020484
