11
Energy = -48.71354725 eV
Si 8.844492841389252 9.093371958104948 9.022517786874282
Si 9.584835552982623 8.13948490496772 6.747562889128768
Si 6.914793923772318 9.411001365004283 10.514667215832374
Si 8.392931215396567 7.407284343793264 10.832026066951556
Si 9.04730841521893 6.695443087838031 8.698288589284973
Si 7.195491431324332 8.5038416374932 6.578624325526768
Si 6.698993418673392 7.737174725971956 8.932734517400386
Si 7.908671637156988 6.270804364109187 5.787999219966513
Si 5.6061742057210475 7.367860656519196 5.262497658529352
Si 7.135243738646601 6.788836532193492 3.616947276829259
Si 6.073299698509226 6.078228625916877 7.273138136327555
