10
Energy = -44.10129327 eV
Si 7.549368147733586 6.997020830146905 4.649707957525645
Si 8.116085166023542 7.233506557780457 7.09720694952728
Si 8.382955433973855 4.412165116589653 5.155537673403531
Si 6.382661776862186 6.1189183172160035 8.60925082168028
Si 5.793576372820501 7.950367095750767 6.868546239295913
Si 6.464987430907519 4.8850183224405255 3.8603442721776995
Si 5.0011684569762425 6.699397215073701 4.707743063125681
Si 6.5742040708647425 5.33361224957374 6.312469768719828
Si 4.387238949693264 7.5023597921375424 8.707334272528032
Si 4.3001552596463855 5.7905316418926 6.983818115437966
