19
Energy = -88.78471544 eV
Si 7.862212341254843 7.2181585330971165 3.2346393472098733
Si 7.60603362836138 4.815695526495133 4.0195210667836925
Si 9.047170819279076 8.582285363045651 5.071234641330599
Si 3.865208982003544 5.772968464248866 4.806815045599374
Si 9.549595516398055 6.1222458941341 4.81336353790856
Si 5.600730827400467 4.164187827304632 5.431856856795909
Si 11.129660534263598 7.7292698010892575 5.712483163257152
Si 6.764668018693346 9.094268209750998 4.617967521104584
Si 6.037000259264228 6.689603366144854 4.885153617944058
Si 7.679647014528704 5.51111883369224 6.527425602929065
Si 3.7317804671068 6.395099877239084 7.107856569485678
Si 7.122761214121663 7.940568394854757 6.754268177713423
Si 9.359853517068073 7.135882131771029 7.278004048592165
Si 6.702929518550619 3.609880014830945 7.540588870973033
Si 5.2255658758393135 5.15627786831597 8.542445676898867
Si 5.424906675565611 7.492784645741579 8.309995117403357
Si 3.1629994232414016 7.947259604076571 9.11955924708151
Si 2.8821394340953663 5.493980106061977 9.222296203357828
Si 4.74513593296415 6.62846553810653 10.504525687631958
