13
Energy = -59.36594692 eV
Si 6.498505414140922 6.4812788068000895 8.475415134018037
Si 8.677754701991134 7.115768101948137 8.663810077130949
Si 6.041542811757997 9.265214860912744 5.965082041034723
Si 4.6332170088556195 7.6065976490959 6.985400476585372
Si 4.319147422965572 5.843209912162659 8.652227541901032
Si 5.000734617767731 5.013141416204586 6.50235104288552
Si 3.508326551418171 6.376458472606041 5.2434964863958164
Si 5.601056174804526 7.2769670851511075 4.676692104843673
Si 7.9965889846874285 7.983890839534871 6.5289921994378535
Si 9.490108523863427 6.643204170545017 5.247248845262858
Si 8.363413009013792 5.381942893311862 6.965879356721171
Si 7.397619808682228 5.753731845005734 4.6626837118720434
Si 6.9557962209676605 3.742405197637329 5.9145322328273
