18
Energy = -83.22110709 eV
Si 5.123903678352622 9.020283664953292 10.196437690142245
Si 4.5419908539505975 6.703133269120961 10.83010293211726
Si 5.82154073006668 6.503889961021828 8.88983296782433
Si 5.788999045307472 8.822906643081073 3.9456548610830997
Si 4.985105339451592 7.375659952574241 5.755658502565055
Si 6.491525842918115 9.445725008902535 6.128970206951903
Si 5.059856383684225 8.565793400464692 7.776351357664915
Si 6.86149369059363 7.329335998553158 11.029423483012208
Si 8.63255523399866 9.351310006345198 7.337208846345671
Si 7.304157381343542 8.42603981756612 9.041268635844064
Si 6.500748920313676 5.663667525690919 6.663931171701999
Si 8.590057717839144 7.076510951915565 6.721531098636605
Si 7.3057532900082744 7.124778921448582 4.57214478779769
Si 7.38730959340612 4.755367062922765 4.1176343015692325
Si 6.800106612423982 3.3847732781204667 6.054036710278658
Si 10.667041324950219 5.911887080307655 6.553751570497873
Si 8.850472722535962 4.484929959080744 6.19281936297216
Si 9.545912620850917 6.315664941351689 4.449568602708769
