12
Energy = -53.92540252 eV
Si 6.8355570700643415 4.220041219464057 7.986535117995474
Si 6.362621082195263 3.6896250200194682 5.583856344110786
Si 8.491172063608625 6.034951745445356 8.246806106200546
Si 7.31578615365093 7.437746227438533 5.125028690274812
Si 4.550646358597675 4.675295722105259 7.00654237989918
Si 3.873633360505271 6.9281155158557866 6.286275124615023
Si 7.900031185211684 8.447680928693373 7.585359253347675
Si 5.50968164963663 8.889381209046462 6.509932548930288
Si 6.171005626144082 6.596504734152862 7.369381327414589
Si 5.478105942691875 5.833335686425637 4.799097995816414
Si 7.549421764133833 9.70286242304159 5.582205650478358
Si 8.16991339169859 5.295435426732591 5.949432965831289
