14
Energy = -64.86171207 eV
Si 4.623501850700161 7.295264185857697 2.5953372630829015
Si 3.3615759325811094 5.649127525847711 3.799142713051573
Si 8.25186023257401 5.417756286453082 4.5604110455324784
Si 5.387550975942832 3.8704180171647558 4.634557222003472
Si 6.0415890935656975 6.22446700342286 4.167681725946837
Si 2.3489799570196794 6.459338620288616 5.793737744894152
Si 3.9453626545078246 7.920207651748964 4.809782274165634
Si 6.380184968529514 7.523227657796458 6.253770846105328
Si 7.518891995903827 3.6003497293761937 5.894159140433539
Si 8.143455946641526 5.876971062761687 6.891119325472063
Si 4.586909886993323 5.709416242203814 6.209795072453354
Si 5.250450953603787 3.570260774748728 7.073123030004913
Si 5.937085788562085 6.046249827369049 8.16689757885876
Si 7.391977278646613 4.006322930732817 8.319862533767411
