14
Energy = -63.43145175 eV
Si 4.2831992362384925 4.660535197834263 9.37952493732108
Si 6.202727485608834 4.8851645012889815 7.951006175771834
Si 5.962482266959203 6.125889716807576 10.123778475948138
Si 3.9852541086792628 4.8746448543323115 6.962017817059381
Si 9.997952096279517 6.944045014981624 8.351614871682466
Si 6.515194323077072 7.160821947037049 7.479014559054647
Si 8.284866299807192 8.69894310549688 8.174350160900488
Si 10.887986774145773 8.981484748699875 7.60402075611704
Si 4.354216984630148 6.829201666841316 8.342245033327329
Si 7.0402549927664 10.42672815517157 7.118550736743831
Si 9.685552466630753 7.4112227956982935 6.003811762528219
Si 7.241527125556914 8.431610993184622 5.659385458569054
Si 9.108614789120244 10.066857795889486 6.057084064683681
Si 11.130064957065457 9.135891203894323 5.244614777727441
