12
Energy = -54.4951299 eV
Si 3.6312636454853653 7.952270955364811 7.7624094555073295
Si 4.498992182769652 6.102098373322638 6.611142934108597
Si 5.579352496279128 6.989446362816927 8.880782816926132
Si 5.699017434427926 8.397543584119557 6.712414371576324
Si 5.683669990459502 4.583852143325163 8.063565176656098
Si 5.933417852951176 6.703817379579543 4.673778323513617
Si 6.739207925155685 9.10768398834083 4.727263018291113
Si 7.1403379262023625 6.278490409635362 7.15273341887672
Si 8.31963745669964 7.399757769862872 5.3546949939781285
Si 7.903074700500698 5.105182051858424 4.7591213235692775
Si 9.464277569325546 5.911448210002441 6.901480549169414
Si 7.884121464390561 3.929782472066628 6.916758128056182
