13
Energy = -59.50222382 eV
Si 8.152683128549818 8.083850618056244 4.297203869621815
Si 5.757134770704721 5.081639996415909 4.745518662173136
Si 7.020382724386411 9.237402909606924 6.229452234492664
Si 7.970854930936617 5.853701603203484 5.174837176978788
Si 8.921843644073046 7.779221207166187 6.678251372090233
Si 5.87000543910636 7.459023745860995 4.694943999174085
Si 6.266752434781391 4.3114336640709015 7.40570781646439
Si 4.689473688838909 8.324021096785982 6.560139965282461
Si 4.3900116049414 3.692310651067299 6.079572793380761
Si 6.612091401910772 7.097856478814804 7.679403534453912
Si 4.18507247636215 5.89493579650114 6.957486875711939
Si 8.518584238764893 5.414268250857951 7.43778507102063
Si 5.256164546049393 5.67503942185246 9.051464478470926
