19
Energy = -88.87616875 eV
Si 5.8444716791614955 6.131244747970894 2.0688029502995153
Si 7.554641108280277 7.792317040417502 2.598418961681317
Si 3.752540081488613 6.34275013922326 3.1427935966122234
Si 5.683667038036503 4.599649134364946 3.88725239672147
Si 7.24849192235656 6.307467909851463 4.459987666137817
Si 5.5817879221094335 8.086003569856242 3.858722655413919
Si 3.5106997672537896 4.54983454606929 4.788736104746801
Si 3.459365152638952 8.136739389009382 4.813238912048521
Si 4.8412602294276095 6.386529907073936 5.648631961150163
Si 8.128176796077172 6.438511962465614 6.687092861174083
Si 7.313441293006496 8.553979071623656 7.667554774490745
Si 5.9937044994645525 6.4123398892959464 7.730313438594933
Si 9.968899136070538 6.5595899442616075 8.162166959048056
Si 7.4584202294127415 4.364429980392863 7.853558255371777
Si 6.084285479286312 7.859321871039323 9.669529873512738
Si 8.6477061722701 7.9036238906726615 9.5962355502615
Si 6.1686224211320715 5.155126005508295 9.787543715858787
Si 8.727000100184059 5.282603725016293 9.717099466535869
Si 7.5328189723445975 6.637937275889027 11.362319900341161
