16
Energy = -73.44176722 eV
Si 7.034990505049959 7.200273741137828 6.595135320384346
Si 4.6131228667717075 7.872204724405877 6.530493297161641
Si 5.575988165182084 7.329533400371156 4.30683067947482
Si 7.610736519388466 8.008987863869576 8.850415026981693
Si 3.3067241310226665 8.048867418849241 4.052444876442549
Si 10.014635598275609 8.231040745334697 9.09557832765637
Si 9.37989679365942 6.553792715240586 7.567307390057475
Si 7.7345721306998305 6.263868197756325 4.383161268425084
Si 7.439148562993067 5.501449315744985 8.662401921840221
Si 5.698655683680851 4.86726661216176 3.940823336944048
Si 3.7740376186722173 5.874719321102699 5.346224008845322
Si 7.071222882860645 4.683965429602907 6.204166931528791
Si 5.197562439717634 5.656021818456831 7.583667564705929
Si 3.7437547733304384 5.9307620924426026 2.9279232385046825
Si 9.055939982544796 6.264620288205938 10.095075062550809
Si 4.768773962236761 3.767744328361654 6.02630412187085
