16
Energy = -73.13959642 eV
Si 9.878545097422775 4.4782005950818595 6.176468707807493
Si 8.281757195643236 7.504705069655838 7.173288901996295
Si 7.539321386239697 3.8625535715535393 5.784208522098235
Si 8.461155107189187 5.982230357189808 4.9938112604306655
Si 9.950504535927962 5.89399887434311 8.211293880523835
Si 7.789961328489204 5.114941706722271 7.74485277327234
Si 8.206145161745718 8.30568867512916 4.901925924466772
Si 6.587242177423455 4.950955245887935 3.8822043265286466
Si 5.151252143725743 5.703340500090916 5.62785304398031
Si 4.120939266065441 5.811368893781668 8.660360768269411
Si 5.976062583094848 6.99234150342138 7.611525799506825
Si 5.809798198220758 7.981803560111897 5.236535804027495
Si 2.9506262826555445 5.596192709960035 6.487517189301159
Si 3.3474812312797884 7.6615969707566 5.139936386900381
Si 5.052600612557728 9.311931036839683 6.9913921114329565
Si 3.3171927629714433 7.795788755560762 7.621929722304025
