15
Energy = -69.34294112 eV
Si 7.536517588951734 4.332447578639454 4.739226918742743
Si 9.654865023449554 5.444496059882406 5.874046820444599
Si 8.46731140213797 3.3225402274214813 6.611037553864478
Si 6.616696937713945 5.685515948830352 3.0533580855822313
Si 8.351008728179922 6.824152617480815 4.325452186014855
Si 5.66607146584979 6.0491958868166655 5.192745257415883
Si 6.586950923501574 4.693194441401077 7.143957466858328
Si 5.348372996511599 9.368112266035611 7.00741101586655
Si 6.778889516313207 8.076756583475754 5.723458633802446
Si 4.4334049724654125 5.026385778863787 8.206633651097247
Si 3.731249876863422 6.495278695437133 6.519242809967608
Si 8.02571842692609 6.560025291232628 7.150281402196094
Si 3.1278870462574426 8.607560533634688 7.528409961440975
Si 4.916430636038039 7.303234604027272 8.606060219644053
Si 7.0691817832723345 8.42026225246214 8.36446931884444
