17
Energy = -78.55238632 eV
Si 9.984309443882946 8.673892566285115 9.08442639640049
Si 7.957073688335802 9.391309668041067 10.019105613989268
Si 10.491824572560859 8.91843133354964 6.823353366613429
Si 9.011767578337649 7.389268456209444 10.761958437944367
Si 8.187941290712908 9.570447909318368 7.091280167531519
Si 8.93209799877338 7.113445115568309 6.999152731135999
Si 7.546523774884873 8.317476123261699 4.909067418288547
Si 6.344361588502241 10.219947508332083 8.516209154736316
Si 7.810198323956105 5.955363560780752 5.150168286260604
Si 6.726311698580419 4.922774186352669 7.3291737625606554
Si 6.314228374374713 7.88676607675366 8.185410754995575
Si 7.89033705256429 6.312899837567323 8.941747205244313
Si 7.226200938561719 3.6116783789745632 5.40643425801862
Si 4.64280925012088 6.086502134218035 7.599887818252495
Si 5.579009269809998 7.403487282804413 5.7094441818346215
Si 5.232312611321122 4.920436275649011 5.287556507150884
Si 3.4598001984913274 6.414786769581133 5.416548989803776
