14
Energy = -62.44145657 eV
Si 7.523176541881461 5.415085972310492 4.427912402166267
Si 6.350557451466654 7.1157047007395935 3.239005566445968
Si 5.793316597230241 6.4366362861925275 7.552334401892687
Si 7.989375985571968 5.194200232407925 2.174768467244277
Si 4.126455773159506 7.779737928501617 6.285133367650062
Si 4.578175389570575 6.875201080463157 9.753818632771775
Si 5.932812137754453 6.082032854125889 1.112361554457878
Si 3.291068555184652 6.173831665991942 7.837086805869711
Si 4.846318350459788 5.942216141650976 4.98089473288177
Si 5.760800902819788 4.589955967306907 2.920318650812245
Si 6.955773598076496 4.410306743440543 8.424233757584643
Si 4.624403640373672 4.6233919584905845 8.904857813333686
Si 4.460606334826699 3.610721526185364 4.81496234204465
Si 6.354496782988088 4.224958129246276 6.160680991064561
