10
Energy = -44.23029882 eV
Si 7.452482245520429 6.81984546759783 7.3858768786529385
Si 6.365906246199708 5.01476005365809 8.542849923226383
Si 5.545709270605693 7.153694379234594 8.951441399602155
Si 8.335566286125493 4.492069770989924 7.414675044146312
Si 6.418312729748191 7.045600865122511 5.1302240107033015
Si 5.282519818411539 7.0296047880208885 3.1060707774445597
Si 4.216963682165844 7.980918840596592 5.078043496924815
Si 6.4685364267053025 4.702683125157107 5.883131066550373
Si 6.977604236363405 5.33837652491347 3.5507344433425203
Si 4.778972342453498 6.314175399557623 6.813841852420703
