11
Energy = -49.43409664 eV
Si 7.4693246023968305 8.431155810407141 6.2572236392334135
Si 8.279336963785486 6.750844465647187 4.757590387196533
Si 9.305685921774664 9.019542614838135 7.773855551570353
Si 9.411473228204436 6.774521079133111 6.897680935932241
Si 5.3677400271948565 8.525996402196629 7.5143932869900665
Si 6.188590525592632 6.334448601606091 8.579895896905537
Si 3.848412245479078 6.728289673152355 8.055314963743518
Si 7.281891060382682 8.426399884606234 8.823500470380479
Si 7.530470331491789 5.39292515714458 6.710055462202651
Si 5.1117276397943 5.47382570416348 6.415337566284084
Si 6.508721854851707 4.679003160151437 4.666180333724378
