11
Energy = -49.11844083 eV
Si 7.64038717547943 7.717936806171141 7.157765919910027
Si 7.458111926760832 5.451812422049685 5.797179687915461
Si 9.04042077425436 5.774507721316696 7.505674356264148
Si 6.0621935175149755 7.511030511348412 5.446782566009194
Si 6.04592797226344 5.462088121502605 3.9265259884969
Si 5.133142734654326 7.577020311543584 3.265998681325459
Si 6.462919177646721 4.30297110303296 7.7545215104744925
Si 4.9440935118263205 4.872334797317974 6.118094781781252
Si 7.104941520928149 6.254853521377589 9.09999746344871
Si 5.013774202471332 6.65380832532144 7.822715308643709
Si 3.7584841054538063 6.81909619283112 5.179152646103577
