14
Energy = -63.94707592 eV
Si 3.4150426377114593 6.278037305288711 5.209547312358221
Si 7.1323018239907165 7.850037038370515 6.191307123861494
Si 5.156171829486337 5.979525121512935 6.905425658460671
Si 5.571856948516076 5.993130265113287 4.1274757152863994
Si 7.787701146201565 6.841477010182948 4.128186647196769
Si 5.609476553015775 7.993857686519031 8.137066007995356
Si 9.317354404904036 6.8609517722028315 7.226563124073387
Si 8.053567703927023 8.66772420879867 8.259745938394202
Si 7.294025219866463 6.204332523576519 8.388720753452704
Si 2.512474448323177 4.066825718868617 4.863595511178837
Si 3.877832218863149 4.859571335592148 3.0070040604121493
Si 6.350868118270278 3.9799587468110915 7.2858524036870085
Si 7.91868222860469 5.298261917185747 5.999198400407563
Si 4.805824470148944 3.956112383874404 5.195017987246799
