16
Energy = -73.72115029 eV
Si 6.90304812875182 10.822109193260042 8.258931755769575
Si 5.324228105674627 9.127855775901633 8.906115254755544
Si 7.812638539471963 6.715823137230395 7.353193839920507
Si 8.647993286787427 9.149270121643616 7.799839745072456
Si 10.704316678962343 9.215409492446936 6.638948962958498
Si 4.863993244280504 10.831579055598793 7.100945543367832
Si 6.457395016894338 9.047333199850875 6.511463680284891
Si 11.25171043212401 7.247158726450865 7.978383429740795
Si 8.461147579460839 7.650352742402191 9.626944678270904
Si 10.971414577885655 5.312597182303865 6.706080753230326
Si 3.9874224114097294 8.433694642507296 6.919868596088884
Si 9.661005656369642 7.2087414743378755 5.961395608464165
Si 6.091396340763525 7.230802209928604 10.174449547318188
Si 5.531152906145527 6.797973956872431 7.874483266319185
Si 10.556400358516214 6.798323250784076 10.265499901629292
Si 9.434442379948731 5.462737270824761 8.653337703799616
