10
Energy = -44.20968195 eV
Si 8.279218661394642 4.850191465377538 5.051029989746832
Si 7.56633461034368 6.14993020989619 3.112111863174674
Si 5.978205779748858 5.80487722573734 4.906471020554496
Si 8.085696433961882 7.4494156737531165 5.025757629050949
Si 6.089178229284866 7.811598887437467 6.373713945235477
Si 4.776583300032511 8.239769086410924 8.239573624063208
Si 7.657137842314056 5.934122569325693 7.00593244879708
Si 7.215706611639625 7.59998411237611 8.703064882017406
Si 5.3565703822666935 5.818204767346214 7.9389345222205
Si 5.467833563132098 6.814371416458607 10.115875489258304
