12
Energy = -54.55369067 eV
Si 7.708971626347382 8.19046485842842 8.670240028622539
Si 6.027428724160474 6.134898311150086 8.469400932138294
Si 6.981342866437866 4.723283218904746 6.380893304118296
Si 6.9192660950703475 6.90445304825714 4.272221163368898
Si 4.6094637108332055 4.298538183719096 6.548035182626955
Si 4.5677672507588225 7.185205781521315 3.893479559980332
Si 7.650326776272896 4.6274004153054555 4.0885856632668895
Si 5.37384741661097 8.419247324547838 7.892576762188996
Si 8.427366079817919 5.900165298156369 8.074541734496243
Si 4.614014778357704 6.691263789132061 6.230068786608863
Si 5.280612350381941 4.933271226576055 4.325614601707366
Si 7.207343555446602 7.425962883418629 6.515189501911505
