19
Energy = -89.28705653 eV
Si 6.167513194049514 9.688866635676002 2.5152413018803434
Si 5.394444857161512 7.4935328366848255 2.9645972466385677
Si 4.7927403365851315 5.39296298542434 3.900785703198297
Si 7.134365742088616 5.635843295993929 2.7941110958355755
Si 7.764774345381385 8.087294972011327 3.249935082305067
Si 5.991965079260883 9.247292515790331 4.935136347979267
Si 5.127143502891045 7.1009668969358195 5.613494187649121
Si 9.020860736344513 6.424780824992832 4.3927395959435325
Si 6.887517256892861 5.462345845181371 5.271133084977502
Si 7.5791424006790855 7.706365255619088 5.8927152013912325
Si 6.835910902234419 4.688955077272084 7.541758776478281
Si 7.454464342180107 7.040439681010736 8.229445506610777
Si 8.767501442711247 5.112576294111498 8.957025981201934
Si 5.0621217542545365 6.442303757210455 7.958694886565431
Si 4.678669533868213 4.090362284097841 8.487442244982292
Si 6.741503592206064 3.953636277550473 9.958271594874418
Si 5.768378515587402 7.975007462063323 9.692159096291178
Si 7.361733500892279 6.278680829862931 10.707125072268562
Si 4.969248964732158 5.677786272511762 10.438187992929588
