12
Energy = -54.46583854 eV
Si 7.608013345813723 4.872364956971185 3.8222422939447753
Si 8.522345853651425 5.897832232985466 5.79275559164779
Si 7.484198786358562 5.021301591001137 7.819284070871465
Si 6.399532586490098 6.955486695887548 4.468447171497185
Si 4.9471040708616885 5.171679821972763 3.7925869312795557
Si 7.687135745034052 7.629872103528113 7.290149663366846
Si 5.810276068153215 8.776267311611834 8.46688642472577
Si 7.238774026073655 6.749967142708724 9.472217017823318
Si 4.221172512649552 6.229940713274877 5.826196369249839
Si 6.278872259783722 4.455332091590118 5.774110254440206
Si 5.341825386601021 8.37073539790406 6.143910963670401
Si 5.213903835052482 6.493126407846706 8.036559121448441
