14
Energy = -64.28031382 eV
Si 7.888455274763453 4.441281545323897 6.556204975835835
Si 7.43939175901224 6.5231690672135745 7.7781854239024755
Si 7.639464296559954 3.5295160462335278 4.084631751084696
Si 6.533899788887688 5.460797779676256 4.768926182365773
Si 7.898969443057956 2.176556027082777 6.249250495545439
Si 7.043945045770874 8.158762761954033 6.092874639142852
Si 5.299188297123897 5.132037447414895 6.962980782847661
Si 5.779440658343088 3.0847921583153193 5.688054190167905
Si 5.828611654523391 9.890666919870228 7.1568926859454605
Si 6.053349808337921 7.696230369499707 3.922172410796078
Si 4.177501980351944 6.204649257532947 4.835939222156438
Si 3.4010525955589266 6.557605031226946 7.1243976404185
Si 5.3732168889384155 7.704947275651971 7.99204136223499
Si 4.437297011128633 8.505334885720607 5.638684811683543
