12
Energy = -54.45601513 eV
Si 5.371441878950116 6.4997001188954 8.587408659442245
Si 7.769673811916988 6.499599756410342 8.004770426618101
Si 4.323089209858429 5.264999879457237 6.557680114973151
Si 4.323641942699664 7.735492368387326 6.558253506325696
Si 6.42503540221484 8.673327079591626 7.620673859659237
Si 9.84838176920532 6.499551732187307 6.477351310936284
Si 7.886358494617899 7.724735856043773 5.855720861364623
Si 7.886363394490824 5.275337896632128 5.855207338772488
Si 5.856652435539551 6.500637279165954 4.966225421198232
Si 5.942162628131432 4.111741313997065 4.947934400598047
Si 5.942885725364784 8.888705498593465 4.949077259298146
Si 6.424313307010384 4.326171220638343 7.619696840813852
