14
Energy = -63.91218978 eV
Si 4.131466629994523 6.4740467490675035 3.6072203952294077
Si 6.030001804824275 7.977218017328127 4.189352045044795
Si 3.6890942129063102 8.513723932153605 5.11574338300599
Si 5.88192277159307 5.698832431340355 5.2278493624565865
Si 6.3395249638168085 3.3499547281152546 4.472778365127898
Si 8.238246102073967 4.853576815249574 5.054570646469866
Si 4.000566719946936 4.237398280968393 4.755995630745413
Si 7.632970725032907 2.9355765915201495 6.661444477562063
Si 3.3022180563447243 6.356041661115798 6.112795321301907
Si 5.307766093449116 3.5186101264072516 6.89902337332593
Si 7.69939533875094 7.165875897840331 5.89014336636284
Si 5.38012124948391 8.00031663709543 6.75057569525281
Si 5.024632209695233 5.7956347133331345 7.768121025565295
Si 7.384301674813308 5.1654219711911376 7.5366154652755215
