14
Energy = -64.3783947 eV
Si 6.229832633798634 5.071101676753227 2.912702414709183
Si 3.9934393018336043 5.35494753798997 4.027691310785511
Si 7.309148758953665 3.130150446409782 3.832629454642529
Si 3.7842744199272467 7.732485363557902 4.860202703748249
Si 4.969280382408421 3.078362624668704 4.3812298694908
Si 6.128168809583552 6.5344259463416545 4.898113365918544
Si 8.26523790811369 5.125782156276561 4.877471865854838
Si 4.937089317913436 4.570927925699493 6.337754500067374
Si 7.137288276170566 3.275116692878605 6.261028604439897
Si 5.789452847962612 8.740861278907424 5.75045540084308
Si 2.714859458281252 5.965159254306522 6.12302747394197
Si 7.023272842205138 5.704802880995867 7.043541654648023
Si 3.677352580450073 5.299180229356223 8.234117845807035
Si 4.766965325147769 7.142358848607293 7.185696397852336
