10
Energy = -44.11977502 eV
Si 7.321823642375526 5.136823232554408 5.890152833357502
Si 6.367521991201488 3.191325330640098 6.892947429030573
Si 7.957324828981929 7.340671548644717 6.977403376906502
Si 4.807346085689054 4.699453768923464 5.768916992293877
Si 5.982267493868389 5.307722960433959 3.812886414108038
Si 6.131355884652293 7.320044775427689 5.078355621169501
Si 7.6043491015244085 9.128623513713064 5.384890789222953
Si 4.727947666321249 4.630412434029527 8.136887456010628
Si 5.704781604328709 6.675163044712538 7.529056204712389
Si 5.6888629850888615 8.903217340326965 6.888168171870799
