16
Energy = -74.16209827 eV
Si 6.341922348022372 3.574535070086769 3.5948404716413465
Si 5.076477225615996 5.812556286916436 3.1768914302291935
Si 7.56110646649883 5.72744743946208 3.5948284861016973
Si 8.711834773111422 3.4721737495496887 3.5790694818700657
Si 4.018249047171872 7.7100440470077185 5.0676888312931805
Si 3.9576924007487273 3.628077358599229 3.808858193369786
Si 7.64307136339172 4.0203786859298125 5.64255654955745
Si 4.247475745573705 5.167158024560003 5.625359489315894
Si 2.7161077859049585 6.430508308823326 6.861568145586578
Si 6.402184718268476 6.467381272845255 5.493682027914587
Si 6.140851393696401 8.757007441085975 5.998472498429942
Si 5.39447733300798 2.819775963380967 5.790422511143481
Si 6.056160651613643 4.835489413607072 7.246915370600641
Si 4.365665773157725 8.138697439442884 7.58562466740935
Si 4.53369678603176 6.104709850501675 8.812327040808794
Si 6.6738485426754535 7.174882002692155 7.96171715921922
