18
Energy = -81.79279249 eV
Si 6.553004944240945 5.111990382276042 9.718849731846321
Si 8.09200448776686 5.637772826363237 7.904884275777432
Si 5.838442699378545 7.300428260232357 10.200221757797133
Si 7.345179068294843 3.707207508353912 6.623619481196493
Si 4.024199495267306 5.969750614606241 9.129338373987403
Si 6.811504217781816 9.002088069485263 8.615399914897006
Si 6.5759670460264745 5.645018912748305 5.136518753276416
Si 7.021509985798571 7.364539140436977 6.671134144802303
Si 5.6730675766544065 5.33916654747919 7.361302059122306
Si 6.652112455403621 11.078283387070755 7.4534760276442515
Si 4.686452506007719 7.9054941010707545 7.932057385375664
Si 7.545285998717138 3.5319250302865224 4.214316446678934
Si 4.617263724890099 10.205899942938775 8.257270821861942
Si 5.698958352116077 9.329845135955736 6.0719315308622175
Si 8.232642466746096 4.312504401502659 2.1197633352070455
Si 6.029960030226631 2.6527242507631286 2.7026671789001786
Si 6.016904716710275 5.116042305356608 2.9428986233817924
Si 6.246893608731951 4.099673146641939 0.7984650725160999
