16
Energy = -72.68221993 eV
Si 8.919627802752888 3.5731904650189623 5.312683394348588
Si 8.488433422087805 3.7884025220390165 7.734198497949538
Si 7.083194892860017 4.9151990188614505 5.791157529844966
Si 7.262802746452499 5.709645930873502 8.262563944294822
Si 9.521816858578328 5.5545956725173395 6.517262653789089
Si 7.5871981215107045 7.277193559531151 5.869844310702176
Si 8.394817671266823 7.857747674466753 8.171840141242955
Si 9.821456770489556 7.921071599883402 6.2289989942895465
Si 5.001498147533946 5.090159281796791 7.029686244822945
Si 6.030031671408587 10.956895509352277 5.172176310993271
Si 5.897552770035475 8.238280947173804 8.165059047883569
Si 4.045363164218688 7.314633418925626 6.883820120719597
Si 5.664083322449732 8.680297116991445 5.724699512250688
Si 6.695157386606396 10.479684913676756 7.251550451808567
Si 7.251164147657116 9.687766458536908 9.413031024166024
Si 5.070046391563587 6.096752146298334 9.16691630911168
