14
Energy = -64.21728112 eV
Si 7.11724454440292 6.069881169116063 10.550450283560936
Si 7.824066020946556 7.81066220515841 6.298762931739676
Si 7.44432501101775 5.656936655277003 5.1953172907044545
Si 5.4958570176265615 5.26823313548131 8.923827741215447
Si 7.88678762193098 4.136780866316328 9.183564080847836
Si 7.253538231458667 8.099471248285612 3.851118674922044
Si 7.773719303331648 6.379615582212727 8.332521507225493
Si 6.448435861006938 5.749518157190804 3.0590569029431216
Si 5.667362985415662 8.881849404986546 5.794373668024917
Si 5.710097574534722 6.598732614665722 6.83979962854012
Si 6.89191128840167 4.2927579947997465 7.118754856118143
Si 4.90293839124131 7.562672109625033 3.7710012642211788
Si 4.931380744419162 5.204713105863063 4.9338136202828045
Si 3.654221735472395 7.227682242001628 5.792389018100327
