14
Energy = -63.31264957 eV
Si 5.561663250332417 4.288089373019341 5.288296731404671
Si 8.077787703149083 6.229743400565361 7.2608591158232585
Si 7.553232879052214 6.738935516374357 2.880225161457541
Si 4.000412956158841 7.417286717174576 7.393305985017992
Si 4.642640709189444 6.52965139588289 5.213573681163382
Si 4.330953293348662 4.856155222400201 7.34301107976384
Si 7.722936770824453 6.650409890372335 9.85085419663934
Si 6.6798666052492255 4.176974361605401 7.64626914968837
Si 5.909585753615092 6.3832653705701725 8.463803021780244
Si 7.927376093817618 8.49506939069416 8.299787965245859
Si 6.205983190176215 8.144585745338969 6.569535954961781
Si 7.235730912937829 4.453605765176864 3.4187142176957876
Si 5.998198336552089 8.23628196822803 4.090612272554694
Si 7.072086005674234 6.220589990568289 5.106672476570151
