17
Energy = -77.68674191 eV
Si 2.7004887167363933 8.224251581345943 5.971406205737689
Si 4.113659148588368 6.622522029816079 6.9888173470918655
Si 4.609632561750128 7.455809599070263 4.750741467333983
Si 4.856099849778403 4.7791726925875295 8.344278520170585
Si 6.446772805166539 5.895082493626928 5.978116899998821
Si 3.2604797970729837 4.055738418409339 6.6291421053103585
Si 6.589483225342927 7.378310863504763 3.4438502984083046
Si 4.688721014851753 4.763625403101403 4.831429670055873
Si 8.298516250501894 5.8888233876620655 4.429660214142382
Si 2.4479238503295258 5.927255536534071 5.065986620880168
Si 7.237049535740714 4.846290702411488 8.005202101218147
Si 6.95016231810567 5.168103755005108 2.4619964921079225
Si 4.4965846229281485 5.967792621444972 2.6899533812543943
Si 4.5177520974033 2.3538585416374413 5.356551063979669
Si 7.023112374385419 3.7295901401108087 4.675870324554043
Si 6.286112478028019 2.950675029000679 6.937970101077764
Si 5.151380577847389 3.474150625036383 2.849784582929155
