13
Energy = -58.75440999 eV
Si 8.46813688535538 5.137828736532834 5.275642907326421
Si 5.91041327792961 4.681082000015259 6.589904640238512
Si 8.630234667652761 7.2155496256748926 4.188301256729934
Si 5.731349397587584 6.114239715110223 8.980601465112786
Si 8.19278902283403 3.6823228294936974 7.019252367527308
Si 4.412299021373455 6.738956205824036 6.869617709014838
Si 5.120863154872154 8.90952176217467 6.021359517544624
Si 7.791176763173494 5.963928334425432 7.6006199808076635
Si 5.297622425283677 8.51662928263837 8.427496290756356
Si 6.661362363677106 7.089990129433566 5.595156867739206
Si 8.670219378793613 7.991907437504303 6.619379300817914
Si 7.110785416337238 9.71964802161249 7.306409589376444
Si 7.624938323490706 7.872229307583602 9.143254350730746
