16
Energy = -73.7868342 eV
Si 7.176347587847111 8.741391341367327 6.425020478062634
Si 6.130808527622455 10.173295718499746 4.68127049269321
Si 5.673405753064202 10.597700909193598 6.9404404269759254
Si 8.454115545082862 7.719514164486956 4.640177478798852
Si 8.615769738548346 3.769763719131072 7.048292357602051
Si 6.1089905088085725 7.829451163735374 4.229656384873544
Si 7.564952396695366 5.8291235196246065 8.244506219475427
Si 4.541493070815219 8.621283737085042 6.035962774342217
Si 7.750405852809939 5.588471645530056 5.727229621396339
Si 5.696761203190842 6.582267487133951 6.824109854212855
Si 5.560818162550958 5.282072453433172 4.756951394845225
Si 6.58374626076442 3.201793028444292 5.895434327162598
Si 5.096559944143547 5.517461299078262 8.899648581613608
Si 6.478023968696607 3.5222354392838544 8.384578011733042
Si 4.435801095267896 3.1130135950865596 4.8107427809830705
Si 4.552564439632256 4.249207188734719 6.907147491276536
