10
Energy = -45.05763981 eV
Si 6.507048974131577 6.164281916964769 3.750524617964588
Si 5.636631854484837 4.296443408371116 5.18577295307714
Si 7.983878791989112 4.454459117526648 4.462361703930204
Si 4.176656713897463 5.751599745753116 3.8400496231847945
Si 5.006604119851647 6.755755854915083 5.785067016627485
Si 7.400863580117219 5.936374865994838 6.179168967819476
Si 4.180702407920664 7.66509479334783 7.775577383379756
Si 7.971373675758458 6.321894895377473 8.417990026503936
Si 6.514386030252008 7.962960401894378 7.523265837165249
Si 5.617419429530481 5.686700577787676 8.075787448280416
