11
Energy = -49.00504061 eV
Si 8.206567612162122 6.151616935904494 6.18802385912162
Si 9.569121202360142 6.346814121945622 8.082742083551954
Si 7.376603734992982 7.241570345434346 8.3880416901559
Si 6.65364789105199 5.001299661375168 4.849944431298376
Si 7.813602809967215 4.733879569090813 8.35463268397997
Si 5.773422479584291 7.151793587492436 4.053270842127371
Si 5.776950294097479 5.606425470140894 9.163800877421268
Si 5.452611921927657 4.524515830321046 6.933570788622059
Si 5.8116062791750895 6.829748086798267 6.492835845851333
Si 4.694799101475823 8.914206744316967 3.207867636965278
Si 4.570565656783149 8.624451431874112 5.534019644289248
