17
Energy = -79.11190522 eV
Si 4.202365836205813 4.792693620727275 7.55811849328994
Si 6.355055451026127 3.848189892622709 8.51897256166242
Si 7.054310472602608 1.9146032005712295 7.371934842174145
Si 5.817787410590403 3.4973436771248183 6.087421073055572
Si 5.735824928083865 5.945657271630674 9.40442531985725
Si 8.299268679734858 3.9746973497619744 6.8624511603249925
Si 8.914461357465587 8.003165869451117 6.6681307695241125
Si 5.666607769602308 6.750294204479242 7.101303686934801
Si 4.8374802508883405 5.445850901849715 5.164837013526387
Si 7.83858643484742 6.067644261604182 8.052030272818053
Si 7.264205485556165 5.68515713420271 5.560452866167126
Si 8.799089003410446 7.107410986922472 4.385692819528723
Si 7.222589156403974 8.772758769779722 4.780054638939899
Si 5.525530358052524 9.041934433371013 6.672581529072425
Si 7.7806557923239295 10.179659973191521 6.6173221081352755
Si 5.68032646211387 10.534937226685479 4.798816334574281
Si 5.806571725429597 11.285316728009704 7.23413580864676
