19
Energy = -89.45775326
Si 9.426360022031915 3.058312181144879 5.689143169150044
Si 2.0989191420981563 4.651340922754528 5.774334983479867
Si 9.334936153752453 7.4087222223160625 5.760899610408311
Si 2.211510006380582 6.91714067640124 6.988333249212186
Si 4.957356208524965 6.336593399349718 5.021111779933843
Si 3.697061595093112 4.511717343678431 3.9855592616526323
Si 9.538365955923945 7.101141901700448 8.074558274740935
Si 7.319828945977409 4.262371643640234 5.896713131353945
Si 4.752799190321259 4.179505372452875 6.184484587204362
Si 3.962345892524493 8.312251392547449 6.1148194153912065
Si 9.309338366346546 4.957170800261875 4.331629317164087
Si 3.168489184220687 4.8571219594862045 8.000905498356634
Si 7.404027487130681 6.406681225796234 7.163055137488969
Si 9.144287265378315 7.133807973339673 3.418447394599299
Si 7.27526400849553 6.40686689542854 4.696738523677045
Si 0.5512583773256035 6.43629084272152 5.3418737131556435
Si 9.518996773698689 4.998220844876317 7.014286060797088
Si 2.7185679394020696 6.871630734428182 4.392896169294987
Si 4.921698388689808 6.504522570991508 7.4616216262545425
