10
Energy = -45.2364036 eV
Si 5.033833091601964 5.588148924791526 2.9400392092295826
Si 7.261212068343823 5.412260991311845 4.1868274691623295
Si 5.5336750643388 7.445264869241123 4.447069064417747
Si 5.719230843460577 3.3747096394078877 4.057406939209594
Si 4.711273317178579 5.190006320210791 5.311106319673498
Si 6.650732638961395 3.8372268609843947 6.26802517539231
Si 6.712242471882255 6.407435796328505 6.495108143340394
Si 4.248139764572082 7.231959674045125 6.624091112875089
Si 4.946527759929423 4.977223069335958 7.762006169938197
Si 5.78211793034158 7.134748804953602 8.507305347371876
