18
Energy = -83.77802081 eV
Si 4.566391016054616 3.7675835372273654 6.137369410627716
Si 6.889839327730562 4.795926685748939 6.986361358228869
Si 4.597053174114537 5.421103050862718 7.89976168034432
Si 5.230275513370103 1.5320901865391052 4.966918940197706
Si 3.2310231632875737 1.8039709976122456 6.189955497680826
Si 6.658395325833689 3.7801624675683936 4.690150817914516
Si 3.730082702756465 6.078197647057997 5.725088805613247
Si 1.9527447637003836 5.156525490924124 3.9537464935561633
Si 4.6054471714819725 4.712703588206915 3.7111320941623833
Si 3.0803088340091813 2.743442677662318 3.942988070754297
Si 7.209624369927425 1.6677773305380845 3.7754679983029247
Si 6.012248000000015 7.0007371416346045 6.5538907802745925
Si 7.655738145954124 5.993395390342599 4.898555432557081
Si 2.42780537518674 7.582151450207057 4.250182618679135
Si 5.228535473898657 2.663631447544884 2.6341510079431365
Si 5.483746310676406 6.929979791251131 4.139933040709211
Si 3.405328272966033 6.282518721739052 2.3076339636622962
Si 4.18867272615684 8.518178142645217 2.942437148201113
