19
Energy = -88.23930732 eV
Si 7.8041827097801475 7.962337034259805 4.344004741235038
Si 6.348373253422154 6.0741652636025485 3.9540100271148466
Si 9.08087344082914 5.772562544649634 3.9983185869136406
Si 9.352833149835847 6.998933500953996 6.1640517292172685
Si 4.245617937053725 8.094536375399208 5.703171794130286
Si 3.8611881928515723 6.542424641992033 3.89055794064589
Si 6.289896251263029 9.317628906280897 6.050142537713868
Si 7.436898759857697 3.8691125973409424 4.23547424896365
Si 9.253340706082316 4.408943643841673 5.971586266273307
Si 6.662319163159697 6.901240826974437 6.24552258956204
Si 8.068842877717632 5.7738057219916215 7.870961832460676
Si 5.879023342334114 8.3184793914851 8.207639407187246
Si 6.318822877725745 4.338811820437071 6.279448294082335
Si 7.45063044101541 7.347798384270413 9.77756027952009
Si 4.256289481769979 5.492345020642967 5.955469602578074
Si 3.532695793017116 8.869179083852627 7.889993657761894
Si 3.8003965604587657 6.532862162072384 8.035062647029802
Si 6.856963483023908 3.750465622325935 8.489411691692526
Si 5.7982402869062355 5.789078472223216 9.09980208675017
