15
Energy = -69.12136953 eV
Si 4.922276479931135 5.873894434611466 3.108402037215649
Si 5.987288012604744 8.136271926706094 3.1640503575227776
Si 4.397507848256481 7.274494238086026 5.011679266988675
Si 5.680956003106307 2.4127902723878774 5.447301238647974
Si 7.336531148011939 6.017469955748663 3.4872075677405854
Si 5.921043206398732 4.978211286375236 5.24140148561566
Si 7.980540503109841 8.111840240003144 4.755502308237653
Si 5.769303437911761 9.168149651392124 5.493837478418536
Si 3.6121509412701513 3.732129569389031 5.855214662496512
Si 8.233995268793421 5.832603894227876 5.757632408182229
Si 4.483105836747597 5.9695747404112725 7.054736644535111
Si 5.77953983941169 3.686459336644548 7.5910254419541126
Si 6.515163104928329 7.249567282684212 6.702921197551204
Si 4.204368339037428 1.8714411357193417 7.293223843263903
Si 3.4345357630580025 3.9434077681908 8.29416979420635
