17
Energy = -79.13821466 eV
Si 8.232765014829468 9.108246730206716 11.70609974916688
Si 8.822277308373826 8.228787949828785 9.587800455963578
Si 6.4685810969283715 7.992801581990197 10.486418262539694
Si 7.442741040940046 10.308234849406388 9.71174212272513
Si 8.548236172228608 4.600363518520317 8.620935256253949
Si 10.147135961535335 6.321046827341274 8.54888839850916
Si 9.00837717299715 5.575600438508545 6.4025836099420355
Si 7.171032817007126 6.612811262560265 8.63364530633816
Si 8.401488157739676 9.708914924376993 7.565476709307257
Si 5.428561148584882 9.311029351152419 8.748748976317287
Si 11.063559207622225 8.501055928220486 8.558281005672692
Si 7.654367936397962 7.656013586446137 6.36265101286004
Si 10.197447970040471 7.622926107483367 6.333339089584522
Si 6.225519557739805 9.739567014629575 6.5114900765264245
Si 5.333811104144358 7.378450487034611 7.252788891242838
Si 10.630171343253158 9.920051934623483 6.5920834599881015
Si 5.8081354268774525 7.971355852949964 4.9138338095688
