11
Energy = -49.6129784 eV
Si 4.798526189419886 4.218300267976123 6.230661322939073
Si 5.021708966860007 5.690083307734872 4.202581502178519
Si 7.137675346606443 6.663074773260651 4.801901255214418
Si 8.694621438524157 5.126675407733737 5.779266121257478
Si 6.856125165695742 4.873334882608312 7.295563511919875
Si 4.967808255468552 7.569845359919484 5.625774579458119
Si 8.322568034618994 6.9961308314008805 7.0817139499774076
Si 4.741977346260169 6.164444757021905 7.5633549965055655
Si 6.920684762229259 8.817967410677777 5.78169835096142
Si 6.548939585826795 6.516857061364931 8.9815728086413
Si 7.432627538066457 8.758035180851248 8.245856493077223
