19
Energy = -87.10595458 eV
Si 5.8252012456175635 1.918130072473759 6.9397776723580575
Si 7.309459644266374 2.5568833591385838 8.699157778841355
Si 5.027604406229375 3.974341736928251 7.710727436256654
Si 4.533767005988554 5.502266898542042 5.7595789965552395
Si 7.683244229775815 5.009084188370166 8.934777991611634
Si 7.50353081933852 3.664269999083237 6.472128315531639
Si 5.388596689395441 5.565750940728444 9.456280284653964
Si 6.667797972285859 5.542676953415357 4.515947455391914
Si 9.338325457668962 3.530443086619474 7.948005117806626
Si 6.522640289207157 6.079708697384127 7.087290359877272
Si 7.840022677189386 7.634077519173072 4.89805794995127
Si 4.262070624100505 7.000377742895431 7.634850343399999
Si 5.751905462237911 7.44854699652909 3.370657485218984
Si 7.548273890522106 8.340444794253337 7.162073466375132
Si 5.321193227328374 8.627244973011653 6.178768302121491
Si 3.717971410553804 7.7454569755074845 4.579883613045865
Si 7.325364961017704 9.274116689309166 3.1068062300673267
Si 7.132396817078157 10.130149640617725 5.444333044838205
Si 5.025126846912832 9.800949315908133 3.9647694058921417
