18
Energy = -81.66817551 eV
Si 5.137735093440926 7.371045253951161 5.341023965477489
Si 5.477326802701324 5.983281045614198 7.214321438089693
Si 4.021892129880499 9.00028069266085 4.17357696666272
Si 4.7381872312610955 7.099153717632466 2.8411365623112825
Si 7.094802267838153 4.058935427457759 5.472831114350515
Si 7.2944084126588224 4.682459488042547 7.786779734847448
Si 2.674667002691277 7.0035764892518415 4.659572656745592
Si 5.9616089181327165 5.231300212970926 3.730453116404911
Si 3.214477552918801 5.861107725218932 6.749167091619751
Si 5.486375971156641 3.089713761253028 7.364524172704417
Si 5.127948865315674 4.048898064755197 1.7233574981478141
Si 3.461210602455997 4.987677317209814 3.324938178228084
Si 3.075059816350887 3.4608455022949314 7.026787833145281
Si 6.296980601820548 2.4851320605094465 3.4588224418630653
Si 4.698592039716039 3.5522244037959183 5.08957819162394
Si 5.34626765759163 1.5314211963048152 1.464987122848628
Si 3.8608272094150444 2.207960107279125 3.149742752844843
Si 2.273383387896756 3.2961361347930307 4.604155936835138
