10
Energy = -46.13073844 eV
Si 5.824642621939636 6.103617521207179 6.414912546075846
Si 6.965535395057036 6.248089451750355 8.73904499296926
Si 8.409794682093027 5.929958320563334 6.607385151063021
Si 6.931048588671001 4.272232007100903 7.427461208583204
Si 9.658873800467777 7.7981250365103465 5.871044657065799
Si 4.959450667750201 8.111890970354992 5.514584414312771
Si 7.325984533900133 8.044859853703942 5.5545077450665294
Si 5.881025575471106 8.368762903483548 7.684940179450476
Si 8.467226093698478 8.192490003069045 7.8834465469995285
Si 7.028647377363568 8.382203513571845 9.754902384632578
