11
Energy = -48.95793434 eV
Si 9.697755289998955 7.858613874616218 5.608147403363246
Si 8.067384539857667 9.100180920694166 4.254375851497194
Si 7.4897905979562225 9.316734122339723 6.5765834325253465
Si 7.380601897816083 7.089968434154404 5.189076016744969
Si 7.298491522621157 7.076862567317166 10.745976334689258
Si 5.733067737966817 7.486901468859756 7.1026904442108085
Si 8.423088128781986 7.328745118082719 7.46118420664904
Si 5.285720756173213 5.868117839397918 5.463443886390603
Si 5.466312362187924 6.654487005737102 9.296731208846753
Si 7.788606462962698 5.659576398498071 8.971559059593853
Si 5.841449633198004 4.940404791938585 7.691940472081648
