14
Energy = -65.28451399
Si 6.273840016419879 5.448321839844897 8.048780802897948
Si 6.273627854288692 6.765136944924675 4.164738689095485
Si 8.7507628614469 6.839535400935301 5.205966841926832
Si 7.369727287256798 8.745351306224103 5.56173494925811
Si 7.807991433791198 4.791930244067632 4.471878312355282
Si 8.750880903009707 5.374159013773586 7.007321086902582
Si 7.3700243136154056 3.4681986123305135 6.6516858620183505
Si 7.8080048482334865 7.421680948551202 7.7415144245507514
Si 5.630266474989368 4.9154123848664675 5.680937571111531
Si 5.6301947808676305 7.297976438471911 6.532641958392659
Si 3.5640845345746257 6.523612821523657 4.893588783230785
Si 3.564100251539388 5.689695713593076 7.319963463835675
Si 3.3504523911814803 4.229022604631498 5.442071683474245
Si 3.350354045380437 7.98427772285648 6.771487567545134
