11
Energy = -50.68212861 eV
Si 6.416398430640315 5.729424447141539 9.501488308848293
Si 7.699338493255151 6.987449522351803 7.990627276669226
Si 6.764143767668327 4.4688399669380185 7.353017141128699
Si 8.883348224498965 5.525982061839755 6.420276888691393
Si 5.176113212868775 6.697897676857331 7.76396565347947
Si 6.888385699999725 5.167656603776595 4.959521733121716
Si 7.810111418784787 7.447325445474377 5.413073053862403
Si 6.282540168852781 8.757523275345683 7.129045082608402
Si 4.64706146785949 5.030178271560413 6.049656003926688
Si 6.433886304816256 9.284517911921709 4.7056268131228824
Si 5.403371430639172 7.1684885407287915 5.201476334886187
