19
Energy = -88.71518389 eV
Si 6.465322069241815 5.518602080996685 2.55447870410628
Si 8.79600043260331 6.6545527590084745 2.7354221209646643
Si 8.348623013186081 4.177637036326163 2.7264852765089604
Si 7.0002134830826055 7.25925429659198 4.260832466670011
Si 7.0692942776867875 4.648959294639512 4.812022728284797
Si 4.98630955087874 8.358084806421292 4.653948242802248
Si 8.881960726633483 6.115356030578925 5.298259384963823
Si 5.468381847644592 7.8807049769835125 6.9413635478665485
Si 4.986008692673807 3.979223730827847 5.737627695793385
Si 4.862218038390849 5.94955580240043 4.268555764087037
Si 7.708172041129341 6.991444935485637 7.230521001638534
Si 5.66426872172797 5.506010625996637 7.442901914263555
Si 4.66136600505621 9.240001010126196 8.85869376506561
Si 7.175364083113429 9.05357634048548 8.417272963759332
Si 7.785554494463091 4.909696338285658 8.699423681361553
Si 4.029940863917915 6.777253085907361 8.749836969792378
Si 8.028516529888687 7.1320069461477 9.716280680509026
Si 5.8279964031082505 7.8554805922839455 10.43927146909743
Si 5.754488725573458 5.492599310507426 9.956801622465257
