18
Energy = -82.28706957 eV
Si 6.731742535017588 11.921494721142551 6.6482448512990775
Si 8.496618940648103 11.89333486197473 8.283034677660257
Si 10.426692252050476 11.215561280428995 7.101897241126151
Si 8.3652631200681 10.21053149505945 6.3890364750745485
Si 6.27013372285292 10.543748362023928 8.531208746345644
Si 8.460594668414904 9.232218600655125 9.737883170428042
Si 8.263087068365813 8.019728645745559 7.3547133328779175
Si 10.42329224477535 9.1636493427488 8.364505729707401
Si 6.441431581473232 8.250750600198744 9.049941260117864
Si 7.494399602329589 11.322427445798704 10.398181283143359
Si 10.561582954957847 7.247760349720768 6.77276109778428
Si 9.476224075748139 6.306914494626915 8.905785139622042
Si 11.586231000454635 7.241438688771792 9.22746897037122
Si 11.361997967038212 5.279721466599256 7.78058858302793
Si 6.441124707645938 6.37954242993181 7.046141476382381
Si 5.41869485984682 6.19775447537806 9.218617350739892
Si 6.394805794338069 4.6515077908952716 10.669428119678207
Si 7.536836547107794 4.987738581012785 8.674156859093133
