12
Energy = -54.6097628 eV
Si 6.002079338515682 5.915173681549602 3.6617616062075133
Si 4.935112109047175 3.5681878595070216 3.79515858169936
Si 4.421930267484115 7.733327135506596 4.198546859596261
Si 3.2260595771221863 5.669745924954398 3.880575796094019
Si 6.5273062634364525 4.158769113501569 5.364791813912821
Si 7.784092515327261 6.2914672258107345 5.293502574155204
Si 5.369090902727796 6.691024723008459 6.139173860174985
Si 4.153491053734312 4.311516631232941 6.141028304979333
Si 2.9798189019557797 6.482262105020627 6.1316581981690685
Si 8.353141679186548 4.62976024812074 7.031189215783286
Si 7.293432402500026 6.847650885174971 7.676008956565938
Si 5.98013446607861 4.726803943728562 7.712293709778159
