10
Energy = -44.40389892 eV
Si 6.881326427515594 5.194134717750092 5.614085172669531
Si 4.81874554242924 5.284127404013709 7.182789755301265
Si 6.877235350005311 6.840099691573544 3.9415237681590494
Si 4.4358234669843775 6.2478401138562205 4.7955381744154035
Si 5.923032797920037 4.180937052770427 9.038346955791173
Si 5.109583886466976 8.47431177068909 4.375661688355354
Si 6.362551876593454 3.333750848589667 6.828139240941894
Si 6.09402977803726 7.4223735429373345 6.402970420120021
Si 7.429807977808717 5.599496224456877 7.928993182235734
Si 7.482496804290582 8.848749157599366 5.229536065044909
