19
Energy = -88.83701767 eV
Si 5.585533103732005 4.730255751366596 3.3200241622291053
Si 7.460622293702026 6.328253918514139 3.3619878168940054
Si 6.124547126444265 8.46303728152986 3.329470266980293
Si 8.733440629815789 8.36858448265824 4.130089000426848
Si 5.172654570362437 6.628941307793254 4.67548130499321
Si 6.7870397629423165 4.4576366936778395 5.315003000394095
Si 8.918060393997086 4.605688691268623 4.3442280898164825
Si 7.228233890936938 10.172935856723456 4.589205838229978
Si 8.632072404603054 6.500590062927273 5.739382792182084
Si 6.775019935176509 8.225208452591176 5.837944419240479
Si 4.9674135594489375 6.281283361700454 7.083769600924175
Si 7.4366818455706625 6.202545109578948 7.85399856752028
Si 6.10129285347811 4.19251533657234 7.589594818428944
Si 5.979743098408567 8.148680683559075 8.360777443210816
Si 3.619270898709507 7.242656367531153 8.734325386420023
Si 7.640241774813935 7.107302242754241 10.002149021168774
Si 4.204127710539164 4.722123176158815 9.004909202806203
Si 6.849791603482616 4.643197532691175 9.854444302256871
Si 5.284212543834847 6.478563690402401 10.37321496587625
