12
Energy = -55.62587641 eV
Si 8.41980812848099 8.902625384735092 8.803630266287461
Si 6.425846612983108 9.010328894763079 7.3243859671745755
Si 8.893407561347898 7.643824080909705 6.710858258159173
Si 7.259634817292628 6.959120155804829 8.442549105641486
Si 4.881546096944351 7.021150717566724 7.484727992848402
Si 6.116007347006574 4.904690212033743 8.499663363570606
Si 4.642969244808094 6.841193132377924 4.973604244171283
Si 8.050990746540352 5.256550157414172 6.699779498519317
Si 6.857924831023804 7.578877284765803 5.462928498488292
Si 4.821448315653704 4.529138819878616 4.077500498994842
Si 5.561743587891626 4.90409146726411 6.214396766761021
Si 7.102651497032789 5.474852449124695 4.36246917293235
