10
Energy = -43.46583676 eV
Si 7.503817314228342 6.1984173051103255 5.442023643216884
Si 4.9363845945592555 7.02331428401835 6.309685637974803
Si 6.531523244493178 8.496925283519777 5.299718505117865
Si 9.335273678966274 7.2178894831474 6.64357553240461
Si 6.468450646706542 5.357869769054999 7.492072260274863
Si 7.080626685481258 7.838313085641291 7.56634692793124
Si 9.083295454607343 8.810355792089108 8.46418477029593
Si 4.11740362504076 5.303180747795553 7.637325798650731
Si 11.134368753290927 8.05533303902554 7.662499162511299
Si 5.233664169288779 7.123209377260009 8.907375928284102
