12
Energy = -53.24051628 eV
Si 7.245209819031312 8.939857367310388 6.680645032759332
Si 6.872818879102464 4.359661163537553 8.611173614707756
Si 8.636928336620041 8.177638385982574 8.746797194867435
Si 9.52762478176094 8.012711218101666 6.4298942854039955
Si 10.737567298695403 10.028565628276983 5.822161928091722
Si 8.405297098938371 9.883207309436644 4.942149313495101
Si 9.050205116260923 10.486367581151987 7.297064568708066
Si 6.768452187752684 6.596219678669688 8.984343034543903
Si 6.9666247322032495 4.996119471833499 10.909529014606367
Si 7.918819065380007 10.277485262763626 9.502435642806393
Si 6.041693353947566 8.847376798333853 8.694386605914277
Si 8.775278309684168 6.339542252107189 10.357037139205838
