10
Energy = -44.30247308 eV
Si 5.2093075727180045 8.582951750329466 8.940560125889178
Si 6.7213208269689835 6.652222847893616 9.015814853091216
Si 9.108838882997217 7.159575424261594 9.224764437204072
Si 7.591771386353636 8.958114704076364 8.549013385651499
Si 5.541643123614846 6.637171060357894 4.991832670785975
Si 6.320186173411078 5.22941043525056 6.844604819239174
Si 6.053516592558688 7.936806038712317 6.84996346643788
Si 8.330436077638925 7.108650520460947 7.018194082365345
Si 6.874357084596285 5.909698722059049 3.2529041753682013
Si 8.072664620578417 5.677294067375724 5.203035839980481
