19
Energy = -88.3408461 eV
Si 3.5947694259024536 8.167055867419432 5.687345991405465
Si 4.8708960050895005 8.394371657590959 3.5230152521683387
Si 7.293990611671578 7.936876398224065 4.382374477386037
Si 5.707960264352761 9.710861585344574 5.443563055731806
Si 7.611593460075197 8.770521852991472 6.728835943637001
Si 7.113515204809292 6.4650991331736165 6.436503610941642
Si 8.46564400098095 5.547117230374725 4.352725688455976
Si 4.901902750764087 6.78139416297996 7.349552241817052
Si 6.861205258808696 3.8119783790121344 4.602181106635553
Si 5.250713581788739 9.077984922485792 7.714594490628478
Si 4.482330757780832 4.243326414513095 4.255623036503577
Si 3.8214386367951634 4.917192948988427 8.307877864326949
Si 3.0947296338384875 5.4944215797795835 6.021059453334935
Si 5.2466910858921025 6.4362486245569075 4.76103685107974
Si 6.546774289079538 4.789427919976769 8.355966943971165
Si 6.884466873295291 2.651556705381963 7.249937564896774
Si 8.483539324452924 2.4196961586692907 5.499832968109294
Si 4.885400425002206 3.621853075441485 6.57060311900997
Si 8.720901875650911 4.601479029680647 6.595833866175634
