15
Energy = -69.79143074 eV
Si 4.818802028154072 7.845333059577339 3.5189679511621037
Si 6.949205147182003 6.713822782976377 3.2139737537219233
Si 3.172828220016799 6.6301602497903485 4.807755625807102
Si 5.202747635720105 5.336413910013276 4.3380639196886115
Si 5.971656536383745 2.9876350562297387 4.6690013034711475
Si 6.922440562633001 8.611913263508997 4.864900152648032
Si 7.8067033196026046 4.005475876597355 5.842168225815118
Si 7.119896606658642 6.241758271530345 5.58660798957152
Si 4.459454866759547 8.578985127229519 5.89784867372792
Si 6.496151162013191 7.9687469834742055 7.225070982287815
Si 4.7236643150736 6.183567008693916 6.600021431601884
Si 7.906159534688234 3.4654296027386104 8.13452485665375
Si 5.639430114936917 3.4339763859883212 6.979142868553335
Si 6.71285333153407 5.542903068975982 8.169666494611695
Si 4.4725873897900925 4.8284601238223335 8.526866541824587
