15
Energy = -67.90469618 eV
Si 8.622781298376777 6.736805800712587 3.90028848676896
Si 8.613958853148626 4.271814098762958 4.022998433773124
Si 6.520880428984667 5.228745484718927 4.813620332215885
Si 8.852143410761002 5.311630441307476 6.03749335360267
Si 9.107012001951102 8.152082588253297 5.953310950347107
Si 6.894105221401397 7.418878588912477 5.725533508674327
Si 8.539723461577418 4.372591665455259 8.318305823556758
Si 6.495758090615388 5.012846205414002 7.282233607038549
Si 4.998555925782502 8.561975603869463 6.364423283726961
Si 7.399372028084405 6.039961113655762 9.667388871226223
Si 8.544046761081482 6.9861066174750945 7.904099589150604
Si 5.524661917455401 7.07561764176593 8.226404132909753
Si 3.2530491860761943 9.83718583459522 7.299832811328162
Si 3.249635497503422 7.465607182171921 7.718783113115056
Si 5.158511949594496 9.370366397161604 8.67779468575408
