15
Energy = -68.22909252 eV
Si 6.659071969745947 3.866956617202679 9.426696669907873
Si 9.0476193884952 3.770842103474452 9.320065500084317
Si 7.9771582311079685 7.349998749906964 6.742560313383789
Si 7.934860435427657 5.162498533515646 7.760634362599253
Si 8.309436620857026 2.7872709437662007 7.249524818538646
Si 6.158162682052156 3.711204119845589 7.150321455648714
Si 6.95474984366446 6.5066700443795655 4.722444523048839
Si 5.166409506972544 5.215011175786182 5.654394226227104
Si 6.202428911977541 8.95855568425585 4.827128493468692
Si 5.574474373706397 7.364633495022809 6.763447248057394
Si 3.226896772688455 6.635100134837429 5.8199192260562125
Si 6.08274186387788 7.534877614865042 2.754241217962617
Si 4.365012274996329 5.729199024469934 3.4671778972050613
Si 4.046619134554817 9.073522191612314 6.149701907223954
Si 3.9904017674991334 8.095162777462905 3.92734947745492
