15
Energy = -68.05367925 eV
Si 6.223490898825906 6.933305451036764 2.4268828430100684
Si 8.137990651093713 7.980752999045735 1.5411417897593915
Si 7.119169118709378 5.274398875489855 3.9794822838419366
Si 6.878763663088597 9.409712766748743 3.0223342567111855
Si 8.388120224900486 7.422074612074361 3.846052559565492
Si 5.1017053227490585 5.152414636669966 5.428434729978939
Si 6.147337678679797 7.940141502961701 4.637659652327536
Si 4.807924684913073 7.272256836126473 6.449802567523004
Si 5.410211988162204 4.543904870138895 7.6653786183667965
Si 5.7214016462886566 7.354786912835022 8.727433343550876
Si 5.691190680076951 3.1367755799259007 9.467179921629699
Si 7.141530022979874 6.253900601139138 6.578338327527735
Si 4.4385023747074905 5.485575612212706 9.673250510719665
Si 5.887215554894935 4.625941080697076 11.337485991331492
Si 7.031545625902966 5.340157798871203 9.345242740129283
