17
Energy = -76.69170973 eV
Si 11.024812973969535 5.497471488496372 5.81563581371758
Si 9.870173108524265 5.7333385003041 3.712524216221377
Si 9.269230967312932 5.395145128302849 7.630372351941781
Si 9.483504522012494 7.274656796488623 5.986157267239207
Si 7.897032386911582 7.08198330372037 4.315220765254438
Si 8.416857233162846 4.965727690078357 5.486521935221736
Si 8.939599515369807 9.472328779794545 7.428150851069247
Si 8.241803288862092 9.16346994000593 9.647391920742189
Si 7.733980757691202 7.205023073872215 8.239036109384593
Si 5.626220270196712 7.364698857157604 4.515975910654623
Si 5.866873559481251 8.814136570344196 9.376807202162126
Si 6.259260467300116 8.1964840635341 6.620874926141676
Si 6.74450066747484 10.357954779070203 7.656182828412665
Si 4.304891787471473 7.428459656449025 7.893432820860859
Si 3.8198586534683328 5.466970868271321 8.932801034889575
Si 5.894509899337362 6.233654867532227 9.642958044705106
Si 4.057748084806814 7.763267352803753 10.38606447946066
