10
Energy = -46.69808936
Si 5.480506012340745 7.428148405513467 7.209173437416627
Si 3.5452514033408655 6.0827338476187265 7.072579047164716
Si 5.480918693998161 4.738331145100259 7.208963923831391
Si 7.418768863354088 6.083312257314114 7.766349905218414
Si 7.236727942938935 7.334192987223861 5.374763369844337
Si 4.832665039757925 6.083803931850769 4.891685838958239
Si 5.236067795979193 3.7411228980779567 4.971114909126562
Si 7.236551631697889 4.831710777192077 5.3743043979879745
Si 9.127769163621332 6.082782458823926 5.991833672183567
Si 5.2371846515686675 8.426272489882516 4.97164269686559
