27
Energy = -125.53895846 eV
Si 1.1022671242329312 4.321285418304961 7.212045782186761
Si 7.029046571492046 6.873087876242117 2.3013460199338196
Si 4.413428230406526 3.3395297486617483 6.013946069066724
Si 3.6332925333957338 7.720739448823395 6.7149213324527794
Si 8.791586563649256 6.070795253081171 3.9653683840005804
Si 6.5986762628103675 5.939060392293445 5.171221601875218
Si 8.179483182818554 4.665758059994687 1.9914269546587449
Si 2.6531745430214406 4.193651529603907 4.173246192733397
Si 8.225723920236803 7.8085562657801075 5.568889214324568
Si 8.411101247796667 4.145115655763133 5.324256032906306
Si 3.470534605125943 1.7358015362553187 4.410454721455012
Si 8.778186692043501 4.344777196884304 7.754733529655635
Si 2.9735652172356177 5.461464467207128 6.219942532530986
Si 5.79737520791108 4.839132182400587 2.890845510220586
Si 7.75654573293553 6.480774412727561 7.505970705043541
Si 4.830976030366869 5.714915705479336 7.890016118688958
Si 1.4586393628163725 2.6097205585018193 5.492694870939955
Si 3.386753170950584 5.459570723432356 2.308231524681764
Si 5.842453166448464 2.832026363895454 4.04031126322361
Si 3.2573170030929623 3.801828887610085 8.059209321741507
Si 5.67783478077408 7.938592518407696 8.231653500320098
Si 5.888033576233758 8.323323715052425 5.74744207529354
Si 4.853966767658668 6.918343011189428 3.7096287158440746
Si 6.537643072512549 4.296662523188994 6.965314085580884
Si 3.9703769913121376 8.965694354292442 4.56109457268006
Si 4.103504280362409 3.064420542553409 2.297632070386449
Si 8.150917558018902 2.6646844328845787 3.4657589479035744
