23
Energy = -105.22956466 eV
Si 10.747930401957673 8.032904750954518 9.072029888015024
Si 10.804053385203789 5.693848227512016 9.43941251374903
Si 12.926235885471153 6.537295381396224 8.494905945457806
Si 8.875756696111244 6.625108312906027 5.880175557879454
Si 9.392817909619673 4.611319214727242 7.68824026833837
Si 7.85967873810099 8.334925110170753 7.385879426617699
Si 12.507159891268643 8.759996976108663 7.599905216101411
Si 11.051012507621541 6.499762877544091 7.095202685836286
Si 7.600745229918174 6.10043894284985 7.963878881488207
Si 6.3020776940110945 8.836737289128152 5.587394474128265
Si 10.0627265335243 8.813821007597092 6.713440659206194
Si 6.923993769959185 6.8222349134032205 4.311538184377239
Si 2.6161405281023433 7.3855524977555485 4.485427933992362
Si 1.800123854077428 5.565899719647029 8.860578574113502
Si 4.309569101503744 7.666587691349901 6.193429505889571
Si 6.036279979835186 5.822550935297984 2.4755581173901446
Si 4.341293383214648 5.87247262591911 4.1506732965480815
Si 0.9546405251653414 7.794863652507526 8.374096068002201
Si 5.808081566022073 5.7219791437782135 6.430229213398341
Si 6.130025465906196 4.316132924471107 4.572222256681968
Si 2.0037539311968757 6.5321925873260085 6.658455245061575
Si 3.3372407659205385 7.767496403303209 8.516554565032026
Si 3.918977444291773 5.467342900380441 7.900521769090241
