22
Energy = -98.97911355 eV
Si 10.87655644223315 7.1018049625417525 7.737739015988661
Si 11.259056681895263 9.12252097368402 3.857964544413407
Si 10.611707844898541 8.754597376618173 6.009390807285883
Si 9.27626236840379 6.5035873181884964 5.8953066720096725
Si 8.94689761952842 6.265975774544488 8.921416689888542
Si 9.222778880203574 7.834789101589478 3.943858898059409
Si 8.467757816982923 3.9064144065220154 8.704424356633755
Si 8.024296744993592 8.874524819023994 5.765773856225229
Si 7.545172051678456 5.334712620307853 6.999051802758211
Si 9.227971573266256 9.236673671468887 7.981441629556072
Si 7.342007706619 7.686631317422196 7.967969740174598
Si 6.167652263091241 4.107373655424173 9.34506103526876
Si 5.676385908500201 8.322639496671075 5.802918226207253
Si 5.14637056993296 2.2944728740153915 8.26299048355843
Si 3.888221513449288 9.356963792513687 7.019343071698637
Si 4.997298115051654 7.570011591618655 8.164142659106
Si 4.225615572722205 4.391708232614137 7.8718638859387635
Si 4.56610397915323 5.771635430891018 9.77134949689018
Si 5.234076483907808 6.713115487998273 4.0780864284242035
Si 5.287107627207662 5.868868267693379 6.324446717918518
Si 1.722367242180747 8.769751281028498 6.194065263731083
Si 3.335065489959687 7.879284834794161 4.937854495906264
