24
Energy = -113.74041249 eV
Si 4.2908204939449845 8.732834449489847 5.969327985841081
Si 6.165581109026858 9.868752964705825 5.005493217696038
Si 5.916439408468838 9.797575134634647 7.368528531440535
Si 5.431533926200765 11.910216527667535 6.185327668985761
Si 3.573081237949971 10.670543830112399 7.253919894562475
Si 3.8444207707135494 10.748015928844842 4.680979626664043
Si 7.602571478747923 8.672559763416523 8.574576347304548
Si 6.564345639019058 6.673450779754665 7.816351400435776
Si 5.0601184401849295 6.543943223524201 5.984515741770057
Si 4.691098725880763 4.257371763475258 5.876770175714328
Si 6.777990448459906 3.429523363582444 4.812123741037368
Si 6.515466583785424 3.3546331597760157 7.301802841220772
Si 5.465720536944107 1.0779990499718453 7.228907373958252
Si 3.4956815118305835 2.1477537236185666 5.687251201465886
Si 5.750416294555195 1.1592443124152405 4.529148423928977
Si 7.621852208604691 1.520160011741326 6.103417617371272
Si 4.605681101534238 3.163176683021746 3.6829148558356
Si 4.157257129396015 3.035179296736922 7.935625180172719
Si 7.95455283245007 4.853167112277722 8.47753624983294
Si 8.611047239068863 5.662215697128147 6.332448383426917
Si 8.366279320193655 8.02386522302487 6.377725781872412
Si 8.073061766538746 8.80691461952661 4.112620302748128
Si 6.912187428860623 6.772732692188826 4.517491251401254
Si 8.420996635292951 4.9863729570163535 4.053398472965575
