27
Energy = -123.89011904 eV
Si 9.07702937455362 0.7443188616808197 8.290010310954452
Si 6.951144275734537 3.2421720210857714 5.777268363079213
Si 8.940392340851014 2.870717140283651 7.169538988732259
Si 9.1422326983966 6.997327711323177 6.336429451262614
Si 9.789072652575728 8.327321725583195 4.464738109635003
Si 8.504755734208475 9.585404373060086 6.0098997254705555
Si 7.042320842669115 1.350116469871011 7.56210504832201
Si 7.290680256090201 4.369024866429517 8.15411460767203
Si 7.005052342777265 5.901415813254475 6.253854799982732
Si 7.175873786791239 8.231816260073236 7.545662198041904
Si 7.47141568857943 7.806124684570686 4.547139510210744
Si 5.147378269760935 9.680850796072894 7.827178465224112
Si 6.7098698510694685 7.058656518144417 2.3748422046848936
Si 6.088043321462562 9.791966844223998 5.647571995264619
Si 5.382594702329037 2.9967129855832373 7.960076818094534
Si 6.3571032241628 4.752574324251296 3.0345949983052973
Si 4.443751176492306 6.0800432018277 2.7216413550208802
Si 5.936045046268339 6.366045628218527 8.53035642805664
Si 4.744875170636182 8.199934860326564 4.388264692730598
Si 4.665568009038922 8.366174441138746 2.0273399020146985
Si 3.1100508499500537 3.095392097345089 7.558188847781844
Si 4.5031339617984 3.2765246896251456 5.501257485585037
Si 3.9231637058396984 5.3387857875670175 7.206486831958601
Si 5.0361089003263615 5.65612914220306 5.015532598412387
Si 3.843197146928127 7.707956411077312 8.49948213885256
Si 3.408692485705132 8.923498547633725 6.237684505751059
Si 2.178695236881268 7.0076110545616785 7.006995446403584
