29
Energy = -134.57250581 eV
Si 6.427604543008954 1.1763714839061121 11.154603098690222
Si 8.102842694354187 2.6505420687767045 0.976021910350115
Si 5.546115625480279 3.1205338988161033 0.8151660474126508
Si 7.086791742341422 4.598131688319644 1.9055573316651422
Si 5.334892444161077 0.9224903365030125 2.1848545643586723
Si 7.1521741660497495 2.2664786801977446 3.14885739968855
Si 4.636723613900677 2.787515891843472 3.446229588278281
Si 7.452105909498309 3.0995996055098964 5.367380357868206
Si 6.109349194110922 4.607836578473736 4.144309466491192
Si 8.662612844064837 3.9103566774847023 7.216813297292817
Si 6.412523162249207 8.254100581343145 10.084762998666516
Si 5.141428726439245 2.5144945480286545 5.870995716409986
Si 7.85649668519876 8.797724777092357 7.762439441895611
Si 5.345670706793345 8.79563753210504 7.6799859783249005
Si 6.592282518885757 2.918430225238145 7.843726687027122
Si 5.9498109620988835 12.096816268051167 5.910613386884473
Si 5.529604732215742 6.333156050896548 5.70996703995789
Si 4.847153660440848 10.100574962146862 5.467551838182325
Si 6.65603968597317 8.470630105077321 5.656468845204771
Si 6.73191697957993 10.504818652445671 9.10627473473366
Si 8.091682673485531 6.864673035028393 9.124086420333665
Si 6.714376166961071 5.43528992950513 7.644798246264592
Si 4.813805771793512 11.293674111910533 7.7708206496248176
Si 3.1255727816327563 6.182521956500038 5.643828621738258
Si 3.046712626676322 9.786193548110251 7.07821027324781
Si 4.869985465622624 6.701683739856102 9.198016500781979
Si 4.186250378561874 4.447921259657938 6.856792872721691
Si 3.3026390539451964 7.424079555746817 7.659088598580979
Si 4.972020031660357 4.314082313036833 9.107369451401572
