20
Energy = -93.92556946 eV
Si 6.533632143312116 7.741736430381173 1.795849966841773
Si 7.846895466375789 5.545890742540109 1.9419854295303292
Si 8.976633593919058 7.691944924475642 2.5279754693275858
Si 5.75639860238477 6.0956697662823 3.3460248599779
Si 6.948861630924047 8.436643193197835 4.0541807869031095
Si 9.295531797594322 5.672316086636986 4.018676073084727
Si 7.258407483818914 4.274177854403597 4.014765554170638
Si 9.13373627843462 7.93793306335428 5.0049246772285265
Si 5.204023166268308 7.356615492915777 5.245632487743872
Si 7.42277501440326 6.244760874776153 5.494792208904477
Si 6.937502219899381 6.086361818187519 7.8518682920313765
Si 4.565694047029574 6.85825347759643 7.5905599432654745
Si 6.300774511085422 8.405697947172401 8.593941756984998
Si 5.11157524314557 4.537123903175323 7.979014788881397
Si 7.9824215261165685 6.9319255099431505 9.853308192632898
Si 3.9033859913754028 8.239631740709292 9.453387121569442
Si 4.067402252385121 5.8534450138512915 9.953789706581402
Si 6.392396036882691 5.102816635043608 10.183009157636995
Si 4.5773374952728325 3.547389692919793 10.219722773817042
Si 5.784615499370942 7.439665832436202 10.876590752884892
