20
Energy = -93.66038558 eV
Si 8.224784665541408 7.370663366687869 4.34077458572866
Si 4.475190583659247 6.0923578279062465 4.134440941311754
Si 4.457707259039006 8.857632501304893 5.698135900883215
Si 5.151931251015224 5.120345330827545 6.527840565552768
Si 6.1424392581405005 7.139918684765535 5.5743218373123575
Si 7.183547038837802 3.883677550629267 6.951616301797786
Si 2.6790775714535013 7.451432406268144 4.940377955086523
Si 8.393787873892386 5.147741927143461 5.395712265750745
Si 2.966453255796603 4.908725892989529 5.604013722427567
Si 10.251367916858094 6.906110268206311 5.50482106566344
Si 5.155770647708702 7.24869929414518 7.8051094825748075
Si 1.415479581379309 6.4366751766994765 6.784981657420876
Si 10.398026712005795 4.735759134428364 6.838180771855936
Si 8.409876271903016 8.127432382883663 6.7977901015413424
Si 12.206628325721093 6.363381773985621 6.602467916778811
Si 7.33123092457079 7.605649291049681 8.836150436489532
Si 3.375735869557703 5.615936953570485 8.147960102065332
Si 2.9973588504698814 8.182793487725032 7.489440044054285
Si 8.380314522826136 5.655370203433115 8.004808399521963
Si 10.403291619622864 7.1496965453494585 8.021055946181011
