26
Energy = -121.09523475 eV
Si 5.05782434948027 7.072294199653086 7.653403681748108
Si 1.8598906297246052 6.541279020648661 5.2901257044762895
Si 7.341276072156142 5.4957383453217625 6.404700004074244
Si 4.5462230468185245 7.112030277895175 2.1771716653822386
Si 3.335748480337153 8.149824196305378 3.930500303761347
Si 5.679169917265094 1.2655226066740948 3.9891246764424455
Si 7.668902031411368 6.794445549219369 4.388723832076973
Si 5.462193879252808 5.917391988332459 4.188635068160844
Si 2.7550407161507637 5.879460342513095 2.980990427518615
Si 5.517032680431587 2.8590949218481456 5.876121554290729
Si 8.926627924834717 3.777176269321712 5.866594333071319
Si 5.265750601796058 3.4672629923622345 3.3745377536998857
Si 7.638617814682721 1.8384971517676332 6.035595082680953
Si 3.561317546171865 1.2990195881078141 5.442311933837231
Si 3.8977584679993584 8.73003978922319 6.368067903054884
Si 8.097218609074764 2.9606604620049244 3.8127957946943454
Si 1.0288223335030435 4.6457540333799825 3.853641257301442
Si 6.043694684866047 8.271861078727618 5.552294844291128
Si 5.458418285881801 4.568226159442941 7.689427334951029
Si 3.9220411244979516 5.576940129793667 5.921020028683711
Si 1.71029946853011 9.001321415309718 5.384032196888386
Si 7.369101033663143 7.651241132164813 7.484245958752658
Si 7.022052735294785 4.786714080371677 2.5239075425122772
Si 3.349236797327867 3.3271292416217015 6.915368835397388
Si 7.983004129966897 0.5607497721737034 4.019109364019435
Si 3.0843590699612293 3.506273805218242 4.423839051966612
