23
Energy = -106.37836761 eV
Si 9.984402969485744 8.482965316458792 4.843446071959328
Si 11.559164181032118 7.93143217648782 6.956524778037142
Si 11.977818043689494 7.144533567849068 4.555886014560219
Si 8.380659404884991 4.346402794373773 4.354949057443882
Si 10.17316306237257 5.7751856524401095 7.8594064405486135
Si 6.828441701338968 5.703303679468058 5.702204713993711
Si 9.93493290806239 6.014916770879271 5.353142278798198
Si 12.101768621538051 5.492758183501986 6.42820724494508
Si 4.810014312590052 4.635248759606323 5.927331065589338
Si 4.955995244835554 2.605315625876431 4.644533645637764
Si 6.067531098347941 4.497735794337366 3.694826618099734
Si 6.9026721562384 3.2343718580908276 5.892256805126957
Si 5.3879134974630665 7.017436532625109 8.775198009446179
Si 2.017773262980094 9.508812402013106 7.900751358740636
Si 3.7455162783982554 5.584201826667852 7.879163336192131
Si 9.0604560599829 7.638142333140229 6.881207427381859
Si 6.715477376082952 7.715387077429096 6.95192653255235
Si 2.748110984118845 7.919447776791844 9.478284578600093
Si 3.3520986603886853 7.798000576071986 6.657105335059967
Si 5.138672182450849 9.308607980336788 6.060031796601537
Si 4.847927421158607 8.497519248064144 10.489890722362263
Si 1.5857435059955132 6.597613738496919 7.859794342927387
Si 4.404186454601482 9.578825842088394 8.35077302515051
