23
Energy = -106.8436617 eV
Si 6.35116526405383 8.44157158082671 9.747314157172593
Si 8.719807273457732 7.873771711623988 9.931171922135709
Si 10.154700841943006 9.4502784963794 8.903043848105261
Si 5.591397570716815 10.661438496147573 8.482259525970004
Si 8.512786760531432 8.978871192217694 5.9257785981780975
Si 9.593194857221397 6.215577998944232 5.266782510973531
Si 10.01259582814691 7.521713510719954 7.381618355957009
Si 6.664618412730623 7.620958750315793 7.467247793802641
Si 4.753574980475864 6.694274195290412 8.872501792764886
Si 7.853233209878973 9.731255142343212 8.10767019069533
Si 9.542491637684078 5.852312644470077 9.058898976521643
Si 5.235957013338123 6.427332618444629 4.260921071815627
Si 6.309443838541826 8.319215262453065 5.141339926042634
Si 9.526569770597655 3.893461945710866 6.146317191683957
Si 7.341453873375794 5.30132047846088 4.8081463710328745
Si 7.955545434404447 5.7153158322056985 7.1569560860181465
Si 8.02695708466005 2.9716908781116578 4.567088517533055
Si 8.72462832482916 3.636488790100898 8.375549863715564
Si 3.862708453364738 8.87603295119888 8.360684666326527
Si 4.897415545643538 9.85614383191075 6.270534356277913
Si 6.926431286127649 3.5503661168205034 6.628688692044069
Si 4.333248454493744 7.151336519855455 6.441976741178439
Si 2.700143164610545 8.915265251539116 6.292165999269888
