22
Energy = -101.0165038 eV
Si 7.228403862413887 3.5914542247592913 2.3821498114376465
Si 5.262180441264334 7.9940556830064144 2.932025008739049
Si 8.192156202383023 4.906814106426653 4.461679806560329
Si 4.853868687073903 3.7377189778614768 3.0240736233589276
Si 2.432460069705756 4.0127332885230205 5.887036460752155
Si 1.591741434706915 4.08968745649266 3.529780372356491
Si 6.978146889114265 2.546775610623295 4.547756137872878
Si 6.576464114221376 4.241766821981904 6.245955937658463
Si 6.651329733172909 6.928170793306804 4.748182468589963
Si 2.97190083840895 3.940590526947201 1.5522519372135615
Si 2.4891308831712204 6.237292034568636 4.727790758591157
Si 4.391038252076273 7.666548224091337 5.293799108474194
Si 6.6313964091158795 5.643399447736811 8.202658428424701
Si 3.2832687278510724 2.3825969094720625 4.269874672244265
Si 5.1484345117415025 2.1887400009750886 6.072801154050047
Si 6.219207253796726 5.809829700673524 2.6762325911416682
Si 4.678929779729677 5.183712464323574 4.953260983681999
Si 5.9187533029673 2.938809490065332 8.24174586855212
Si 4.333505213815131 4.579883102834655 7.505008910344661
Si 6.083156766117071 7.978631448456113 7.001826957376832
Si 3.399630569967744 6.082366882065228 2.529427400457517
Si 4.51202926592911 6.739412539451191 8.388000489942169
