24
Energy = -111.72002458 eV
Si 6.609815673521201 2.934312250065751 2.2057482469610896
Si 4.682603017944581 5.661360508138349 8.911928490108336
Si 1.6969915554663 7.865394472170595 6.023850619524773
Si 3.9083453872986116 6.218678730567289 3.0097855735268295
Si 4.510644988343252 4.15052338998242 2.1042107957050264
Si 1.2756633314921628 3.7840944905671505 4.472908068664812
Si 8.399493780253461 4.179330551928524 7.838101489412773
Si 4.84336071918838 2.2759975853583696 3.7439977347619924
Si 8.169707353794553 7.847388709181929 5.506496101827155
Si 4.979499331808736 8.312364381474323 2.941941715356863
Si 7.305554523272106 3.392712004588063 5.719069704466651
Si 8.661436381576445 5.479528052685574 5.701130695771262
Si 3.8681069723638877 7.9819725320842725 5.1008417122840415
Si 4.8857588957541465 3.041411944357208 6.000178389807017
Si 5.204702208867745 5.153368193064972 4.806048911702364
Si 7.4814239865411825 4.697811525036202 3.6775952773299188
Si 2.0726937060905692 6.0310486847820375 4.460195274185899
Si 5.84390347188936 3.5469376563242743 8.174595564515155
Si 3.1756087967749056 6.290383337210955 7.146639826997916
Si 2.7665700208046227 2.7756391288888187 2.8086641182841987
Si 6.929703419958099 7.037963956150075 3.717846941399839
Si 2.8940128025777403 4.253246626350747 6.098591235891076
Si 5.910013119983475 7.1028334179119135 5.9903052829937575
Si 6.708168228312839 5.856168067289775 7.776434288104003
