20
Energy = -93.02381416 eV
Si 7.6515797029019685 8.102541315235927 4.839000344386417
Si 8.803226377215234 3.4561854039688864 5.225034480421042
Si 8.556387156418742 8.101929807518397 7.114839097621071
Si 4.497570238223872 9.411958937669418 7.332485458479648
Si 6.3847399853349085 6.315063331991757 3.632087133016799
Si 5.190764526497779 8.319238794424052 5.257584359683287
Si 3.512267485011547 5.042965761639309 7.2925071336980505
Si 5.020148935492236 3.304136817192605 3.720965963166461
Si 6.519039309841729 2.874685848514743 5.4671279262732755
Si 4.522493096222332 5.296939378017484 5.089464348753113
Si 5.254358938270647 5.0544140534507775 9.038590612044615
Si 7.254952538437169 4.102337783894405 3.4731376675452195
Si 6.769701383365763 6.187737322662259 6.025604548543519
Si 4.117327253830185 7.091199498263029 3.5003057931331525
Si 4.956041577986424 7.02465673933516 7.373814081306175
Si 7.1870059499522165 6.479183586515013 8.449275092371032
Si 6.8058017413808445 9.964565077498365 6.3703063073764215
Si 5.39908111486303 3.2010257604204297 7.58563602195344
Si 7.644924830647458 4.256369638237994 7.308463196837501
Si 6.557118294919381 8.885669703252475 8.549522344748206
