25
Energy = -115.54139357 eV
Si 2.9593756394782473 5.515715021146541 3.9256192212006957
Si 5.12811067312706 6.5000916393116475 3.9142317929709387
Si 5.993532595120549 8.417590214781509 2.7562239716379286
Si 2.782389096568331 7.922751495658555 3.8507500401351695
Si 4.645365011038366 9.288749889145585 4.5020473246664805
Si 3.3547993178098023 7.167247196253205 6.036154503604151
Si 8.372913175680603 6.313585348861575 4.7974661478866105
Si 5.437957233468888 3.4234196171958837 5.451759510323994
Si 3.2314842653989913 2.233588816909717 6.693799848734657
Si 7.318917407431002 8.50597369440999 4.79671598236068
Si 5.74922236753779 7.087979308294186 6.271759318924863
Si 6.863752936880496 4.607147131568595 3.9192507989613246
Si 5.622036853672205 5.03608718211308 7.425417823279778
Si 3.4838641602431717 4.6059224016565565 6.225540913193858
Si 5.5564520275464435 1.2355875252558208 6.325276782823501
Si 6.114821601896519 9.251655803571374 7.101194628959607
Si 10.402814270295849 5.1896343571606325 5.135589682063931
Si 5.312023868589245 11.028357385482817 5.844004360520007
Si 6.931480743979261 2.942479511479882 7.428391562568843
Si 7.845372893592605 10.480085242373168 5.991692171052227
Si 9.102095093565847 3.7156231346217914 3.6769718401948963
Si 8.254966001223373 4.224150269069538 5.892168121655952
Si 3.578006735925864 4.20841853137307 8.627001695104726
Si 4.605047064655972 1.9205615196497563 8.641423293368204
Si 5.969385945156493 3.9040314517739345 9.4857637652795
