25
Energy = -115.07398738 eV
Si 7.0437411541768125 4.140571003994615 0.47298478703656444
Si 7.200212507427804 5.864215543382074 1.9099418515265048
Si 6.413796726461183 3.65669334332275 2.6546289138283368
Si 6.452111562905738 7.825857252284202 3.0087543833107606
Si 6.696856161252066 5.6687902886054164 4.318900946667029
Si 4.230442059181685 4.705349684738076 4.716647023103307
Si 4.430876696060433 2.6305114210270704 3.6400067267312197
Si 4.698787569601667 7.041093865099186 4.400701712446971
Si 6.998672089412547 9.9166351250514 6.035771550719899
Si 6.330560429124287 3.328578994580565 4.99509662200762
Si 8.190038914981796 8.605768786721192 4.4726836174550995
Si 7.515950861663104 3.8192440679349913 6.992153611404522
Si 5.142994665737504 7.5822917008199635 6.695256159462696
Si 9.797277727774395 4.528627565113277 6.490422274406468
Si 3.9332430569012273 5.384530560264723 6.9834677469502004
Si 8.709258964103165 6.307237972874835 5.267208487496935
Si 7.537637637709217 7.835928261801477 6.841877731765727
Si 2.5622324017526004 6.604682808640948 9.25373688061731
Si 6.163917235229758 5.488499592832674 8.08584486436217
Si 2.4933006748641544 7.372372290164905 6.96014585898553
Si 8.66757958772669 6.059329689028623 7.894503480707067
Si 4.020302258741548 4.618454545256534 9.281185102650722
Si 3.931139077257375 8.805313196169141 8.390500823243315
Si 6.112887605536992 5.225944798250707 10.473157915438312
Si 4.784429425407162 7.04172469303196 9.82266797866699
