21
Energy = -98.2815259 eV
Si 6.7598254801393445 4.194183690135532 3.0594518163460576
Si 9.000420972382397 4.639119779813683 4.048933257512675
Si 6.327393478289431 6.422970232654117 3.8198203660113665
Si 4.380518065776555 7.781805555841103 3.422353982993212
Si 8.426451904912724 6.794314851127317 4.855105029436022
Si 5.441240489296058 4.255611251496582 5.02312345877818
Si 3.951139398311795 6.116973196236852 5.077017868350767
Si 8.52044505723323 4.757203124830588 6.3331893389472675
Si 9.406892524629516 8.504516210660796 6.248775668439852
Si 5.003837647494578 8.532875845801588 5.612403036898678
Si 3.944541920620777 9.234305442796746 7.578960976682771
Si 6.456686629209404 3.9798003804409325 7.166918348136051
Si 6.052281445188802 9.657136355222457 8.780243591382884
Si 6.350128473660059 6.340600782136082 6.473283618786809
Si 8.954255726793525 6.629047911660018 7.720631027897991
Si 7.084031382743775 8.75744974140527 6.846104164981333
Si 8.284621055346035 5.878592880916212 9.83607063333749
Si 3.6936180636027625 6.9168900335079915 7.269963562116808
Si 6.6722508808666445 7.439262032201626 9.153927916632666
Si 6.57753112065772 3.9819894980647335 9.57110426091939
Si 5.211888282845557 5.685351203050039 8.6026180754127
