22
Energy = -102.16710018 eV
Si 9.648495910415912 5.75824964887232 4.661937923505864
Si 10.492281095446472 7.576208046558238 6.441018924348519
Si 8.309179921765637 2.8238237317431123 9.02366183093143
Si 9.498737937796582 8.232788260213313 4.3632084117966885
Si 6.602845916883339 7.401732843687699 6.556958489019352
Si 8.665213587037902 6.1366179698767125 6.853340465092303
Si 7.9838551665253865 3.752171733145467 6.845116733329416
Si 7.967144562995052 5.185586567180077 9.012519736931164
Si 6.072477721528755 3.4562168291154314 8.537772835792575
Si 7.372994442950822 6.527656598561423 4.395823832026928
Si 7.069883120877958 8.919584122479508 4.55066529510494
Si 5.4849127771049355 5.099700341395345 3.8502932360389326
Si 5.760864909313962 4.699920114839411 6.208306294657227
Si 3.9560210681113626 6.661991433228635 4.912167108212144
Si 8.510639113751033 9.073211692384966 6.625865656006267
Si 5.640142364501774 5.889813559842228 8.266444758144873
Si 3.4227652673711773 5.2103584644749175 6.8840820574235595
Si 5.2697251422251945 8.544431884577927 8.304239572920974
Si 4.921718429735031 9.066873843360172 5.8669550274345985
Si 2.7402889570604074 8.701787987100962 4.848641833449402
Si 3.5327563159324944 6.717666799695181 9.070634189163613
Si 3.1603953301156325 7.663469075395591 6.966873809929351
