26
Energy = -120.57704311 eV
Si 7.428392821999868 2.63588890088749 7.230540780686702
Si 8.477975134084764 4.6834125263092155 8.12323345350339
Si 5.474830091375289 3.1431122257860684 8.511852965551443
Si 6.6444543870010335 5.827557123026193 9.12890260141395
Si 4.8711252693202205 4.664864628962313 10.291348353511646
Si 8.656045540053077 5.824308655800104 6.016512840650122
Si 6.3769427727193975 4.703950452609923 6.717724524699976
Si 10.15203381288201 5.3689920021852435 4.191442872284732
Si 4.016990720868982 3.463020172007273 6.659279749128471
Si 9.250794645320575 8.933306965279659 8.440375582099048
Si 10.134391010381105 7.633614174701654 4.946555180632532
Si 7.157900207288697 10.401717428489757 9.346641493421307
Si 4.324073583430172 5.513925647293036 8.142675464019096
Si 9.273762593781688 11.38216092945707 8.764905343750423
Si 8.212919764585685 6.591330284928342 3.472876046133713
Si 8.235352489250115 8.21308727719425 6.352788320856199
Si 6.252535976841423 6.106918403973436 4.848061090734976
Si 4.7148557602184376 4.273613917974952 4.402891083087131
Si 6.893561679596949 8.083973958393772 8.478057247776537
Si 7.933118198419943 10.67644881215951 6.997855308502373
Si 3.3460672651193986 7.399868428504186 7.136850001696545
Si 3.0940012747871912 5.428855812007557 5.772475282273361
Si 5.578334507350501 7.85108368595688 6.388137818414857
Si 8.537638811809465 8.956619130059341 3.716210411289744
Si 5.467133030387418 10.08000588825082 7.649405850182554
Si 6.593227041600897 9.808828190410662 5.174935282554112
