29
Energy = -134.59042386 eV
Si 7.771483095940376 1.296699238787223 4.902977465275072
Si 8.26305845763177 11.626038107002062 6.559882128987602
Si 5.876987927078998 0.211271977848038 6.028775801645164
Si 8.26751370358164 3.3308411748270466 3.564265546471191
Si 7.595471572535479 1.841201388041307 7.45599751271116
Si 5.806335736534583 2.522145835443244 5.880371440892725
Si 7.994983295995869 3.7478413775305057 5.895192487707722
Si 9.964653237260379 9.750134560021445 5.05993302338977
Si 7.201716344225002 5.804440075119041 6.758452708256979
Si 6.06938735359401 4.108555614418122 4.188322827537579
Si 9.124339014247763 10.362826862192472 7.486408452704066
Si 11.019122175523398 11.208817661198873 6.372495113716707
Si 9.048076500846381 7.560777002014055 4.7024256525531545
Si 8.584356278020188 7.72851447518532 7.086607239756288
Si 7.0594941197202905 8.05622733765085 3.4126744557883524
Si 6.032796976697125 6.41165947869144 4.852334467123725
Si 9.138906989742146 8.691897018380256 9.154563387445611
Si 7.416194002941603 9.388111019209433 5.352520583702293
Si 5.668693940067247 6.526568781240471 8.519044669055948
Si 8.288930090744287 11.626038107002062 5.680486668281944
Si 4.248815667770546 7.3189345776244386 6.193071046530176
Si 5.99806703866157 8.651380174101206 7.1803725033862795
Si 6.68213131205128 8.428649209904588 9.521452599835476
Si 3.852349248593548 9.710775730538298 6.500714771478275
Si 4.597329969996919 9.710835588350031 9.103636041482941
Si 3.432986649510235 5.8558210876463885 7.949667250020086
Si 2.675306932032537 8.341509292775761 8.031168978564768
Si 3.820774245215677 7.448560201478952 10.062770211706576
Si 1.5940193919450458 6.733957498749409 9.279981573803456
