27
Energy = -126.67240379 eV
Si 7.4976272451454475 3.682420000045002 6.24721980206754
Si 7.21828212183257 5.817289861280703 7.726169904751807
Si 6.365764531146949 8.274876952856424 4.527863579005274
Si 5.846117924185956 9.088643607710907 6.709280633059776
Si 3.0287166595291586 3.947820799225351 2.733218390396574
Si 4.723795820329672 7.061301100208256 5.8491356202100455
Si 3.393561996972449 4.247438287043461 8.444619902046796
Si 5.220341011625786 2.807496969234793 2.995768110087191
Si 6.947191408995258 5.782716741610793 5.14640892613658
Si 6.373685360602118 5.764602014262035 2.5363937350822456
Si 3.063408493160368 1.4761660346814585 3.1510247317735978
Si 5.698360153244282 3.7872320155125423 8.056033918087225
Si 3.5166656713048177 9.286439071936739 6.1403611367804
Si 4.701360367551315 6.225644534223165 8.035194139053532
Si 7.98566133907796 3.753427008358998 8.634091096615157
Si 4.107831650824602 6.395145533900485 2.4507424575886025
Si 5.683987578158891 4.073106986931868 0.9869272921243819
Si 8.16699855167822 6.949763173870033 3.535245848030857
Si 3.9884748025791787 8.314735810981073 3.963029804220048
Si 3.131566708181281 1.5848752263725852 5.657746130376714
Si 6.382602701140902 7.806783998900284 8.774728470468876
Si 5.1582281202538125 0.74504766844204 4.228761905411803
Si 4.7280723828517255 4.889839414736225 4.367291908563107
Si 5.308408664764563 2.7968268476420675 5.542803432977923
Si 3.1727854471024237 4.043001966918558 6.013700062132092
Si 1.5130657329352821 3.1489530991623935 4.505143826912831
Si 3.4374093083550266 4.993076632654639 0.6433606131825766
