21
Energy = -98.17786058 eV
Si 5.044011775493393 7.158274069253512 2.9705847420757725
Si 7.0272674688033065 5.75690375076047 3.2920006212535777
Si 8.80510650317916 6.47943535856827 4.66509483477255
Si 4.7204806063398745 5.3034107614105785 4.40451866027344
Si 9.628711304820888 8.657026979725531 5.191794701734253
Si 6.305935598521971 3.5500930841390397 3.8897974864466343
Si 5.399118647395508 7.680694713381241 5.224781324945879
Si 7.2889051521245225 4.7389141456875326 5.671077818143296
Si 7.520988831592035 8.283783032132263 6.039798887930418
Si 4.002846118820431 8.28025888287527 6.98847033185554
Si 3.7312505392807807 5.501817990000366 6.575113448098836
Si 4.546296647272958 4.344532251138402 8.501885541405104
Si 9.654111810916914 4.890406545017279 6.357696965446682
Si 6.390219272205703 5.482207224202502 7.691196924527442
Si 9.73953053771965 7.279778717052708 7.182027449285093
Si 5.179300149274849 8.631418293009004 9.049206933301827
Si 2.0788395902698777 6.995434575395066 7.443172218486796
Si 7.363682672724617 7.7489902882385655 8.354252113139566
Si 3.9168391209506175 6.624221678449999 8.946113319777837
Si 8.67012846001669 5.530331661305551 8.538411193565183
Si 9.486429192275692 7.582065998255863 9.523004483534013
