23
Energy = -106.27795205 eV
Si 10.885135098195493 7.944703858016249 5.3909664267628985
Si 9.986792170958541 6.503318139858339 7.143147739536984
Si 8.95461592780963 7.007131843173063 4.439148638939318
Si 8.94120465115375 8.890325436620852 6.444727982091283
Si 8.258245855595144 4.722741508604746 3.9583139987482467
Si 8.627480271053328 7.7547914233901745 8.60712341514506
Si 7.088034335852105 6.902743992643177 3.027368982475498
Si 7.8762579821236764 5.602176534716709 6.234241997272988
Si 5.871232283894833 4.845063647657068 3.6108378621385313
Si 6.869912722137052 7.721806298844283 5.865523059525526
Si 5.019815045492364 7.2328182643428764 4.4704939295537685
Si 8.365389557660631 9.056648425621294 10.50832831765252
Si 4.881882954808063 6.584390975070894 2.1609439722482895
Si 6.382500624003699 4.10833838761016 7.458183932956037
Si 6.620153343276584 6.174531733782994 8.719894344563981
Si 6.424892438489694 8.400386254597283 12.004122859034503
Si 6.118069142435262 8.668610996123602 9.744584218626388
Si 4.766014492738567 4.891154403015221 5.769959368891989
Si 5.313082264690041 7.919912864516841 7.639051587149331
Si 7.506372225604845 6.606143980077042 10.882840693950051
Si 3.4119885682053894 7.154097982047686 6.302408895543852
Si 4.391734022129283 5.545377709031327 8.137443329423098
Si 2.5503526218382144 4.899490521039487 6.699144359458274
