20
Energy = -93.83769067 eV
Si 3.9117259772380564 7.370466036969264 3.674340923113091
Si 8.877935118542382 6.766127452679972 5.014329223046638
Si 9.300038904715143 4.341172317278841 4.721245239542896
Si 2.9951439888092457 8.990547012699407 5.203613634134563
Si 10.8546896098183 5.487665607710139 6.134413089706509
Si 5.135031569474903 6.31665373595109 5.524536513397951
Si 5.584746546571419 8.77143070157976 5.089675292100248
Si 7.19988745339187 5.145715575919936 5.7990386318582114
Si 2.640094076476382 6.243566954222154 5.610772839583259
Si 7.879810759997332 2.8305775260099573 6.2555750777724874
Si 2.3197478215305165 7.925272653375246 7.292365938420122
Si 10.213946670726866 7.608473331265461 7.068919420329084
Si 4.366897981830269 9.786112420853685 7.005613560897436
Si 9.847860573970522 3.6449258077218127 7.3742766069071095
Si 7.917413241559161 6.774449435577873 7.355940386473412
Si 5.736754902659381 7.735787796233126 7.3145355919190544
Si 7.545419892419497 4.50410081081458 8.22209007592146
Si 3.9812045499758044 5.945139544748757 7.663863861187107
Si 3.9962230890718686 8.16226460793106 8.994412043337372
Si 9.695427271221776 5.649550670459957 8.680442050353452
