21
Energy = -96.22958805 eV
Si 7.210322211289875 4.424380964528819 2.1500428647955547
Si 8.677235686751647 4.973713437824981 4.181377046324793
Si 6.910426396129295 6.5665309652049455 6.714820075670963
Si 7.746979171959844 8.401144426421396 5.341074902550759
Si 9.34781949060224 3.4783262907721615 2.370457916945144
Si 6.48733522510946 6.253098760468564 4.177281540957451
Si 5.403565684397941 3.0586756054166098 2.7809500826577245
Si 7.633543386041608 2.5889972381263484 3.755876790971093
Si 4.908490504177674 4.551839220436757 4.630313962314637
Si 6.591820397760933 8.399930273739429 3.1981933178033826
Si 3.599298783858129 4.7592376419343285 6.591713980735404
Si 5.250380542205005 8.051193980251105 7.14406394083643
Si 6.972465430273885 4.062535248624207 5.698504394284406
Si 1.5322165616134307 5.417290809379749 7.499148614858311
Si 6.633098059537709 10.005475398962663 6.795936719109412
Si 5.32368214985053 9.188192618116561 5.049043917572233
Si 5.167737553598525 4.8234968526155875 8.211349671012968
Si 7.53181487069998 4.608585725946936 7.960099995058591
Si 1.6451717838081457 6.512784127237216 9.664614062846072
Si 3.50400031474539 6.802761215920081 8.092999102302116
Si 3.449422893068275 5.053743009783615 9.795918725352541
