26
Energy = -123.27183059 eV
Si 5.962800676247064 6.634254297679246 2.6757141887916793
Si 5.172174431400822 4.730159059354683 3.8559627584504206
Si 8.103664427084679 6.517475217051356 3.5497290874684544
Si 7.018925545603065 3.664960048998858 4.796639090181434
Si 4.80258283854298 8.700535187328343 3.4865962151832597
Si 9.126614742080735 4.531296989258847 4.195686807386477
Si 3.186936057000459 4.861562705648528 5.094199877711374
Si 3.7896661958307902 7.218841946106844 5.190880684384175
Si 8.631229135782291 8.437546098526003 4.7254534076040065
Si 6.623062620574353 9.748669842532115 4.893123566407075
Si 6.219637960655846 7.32487898106679 5.047415027851871
Si 9.13186153726121 5.666279649042176 6.267832350600002
Si 10.08740575495164 7.8449732738082325 6.512094599714537
Si 6.6192154053805154 2.4998196729979503 6.821088015916474
Si 6.721444583135168 6.174677784891722 7.084358249419939
Si 5.090551203759017 4.290987861353093 6.484747156710438
Si 6.373715096901066 9.137371794254168 7.178577250386271
Si 8.116457111429472 4.1355835178087075 7.820244329495274
Si 4.18360367388178 7.797013265284863 7.434602675588742
Si 8.257095542131884 8.011335633126698 7.972625558535482
Si 4.63978338352858 5.6963514747863355 8.336607622387776
Si 4.806300480899842 9.442885362397893 8.9473492174304
Si 7.212870995933941 5.435603053326474 9.589023735234367
Si 8.213197232734798 7.472437716884492 10.259948821685429
Si 5.850465451584261 7.633040301285073 10.131058971361512
Si 5.0587379156827925 5.391459265199407 10.648440734112926
