23
Energy = -106.68066641 eV
Si 9.06619866567827 6.4820991284740055 4.336796796061659
Si 7.860363809928632 3.1798488730267516 6.469655357666776
Si 7.415842761552642 4.726376839611361 4.632405383725286
Si 6.909810292282558 6.971697984449634 5.473914989622374
Si 7.59889198024584 8.766579039938025 3.9337137826268513
Si 7.455993418851985 6.720429880856401 2.3380512677971548
Si 6.73758354525864 5.083840587822969 7.124883490555324
Si 5.412278597556057 4.600570987852437 3.4680527488481787
Si 5.402889750037872 2.9364250405493357 6.398223969306411
Si 6.335496071491633 7.349842125090283 7.834114922467116
Si 9.327888820936508 8.0084106860706 2.4177249691520237
Si 2.0917650958031566 1.6048006740923106 7.013453919754833
Si 4.272701002458323 4.913183030394848 7.480194270003046
Si 4.443812669396361 2.509428882726745 4.245396432923684
Si 5.347274958532861 7.713419599591634 3.7478401523754266
Si 5.172132684855309 6.265775675376676 1.827560360092336
Si 4.870395287152118 8.301515807057463 6.018069520349503
Si 3.800673527906275 7.308919673724888 7.955699877620068
Si 3.9229192923767933 2.699647686054929 8.3330582777714
Si 3.4593544329536194 4.592338324252515 4.8766465098142655
Si 2.4757429352384874 6.190629744408684 6.2194131577957785
Si 2.027738980712435 2.6806734049458814 4.728549096707254
Si 1.9975950295377187 3.8863958139284085 7.019713985844782
