21
Energy = -98.17574584 eV
Si 6.329223817707452 7.3117549192949625 2.813259937208398
Si 4.031501660206296 7.941911186319199 3.7313782393262165
Si 4.989045507193951 5.3798351725871285 3.397198378414965
Si 6.562704673509738 6.211088717099222 5.26287871120538
Si 6.963405499697181 8.62381512448198 4.780649447688211
Si 7.990325419565402 4.346479779991546 5.798032009988871
Si 5.033583622384817 8.189448356465117 6.061705051586002
Si 3.4867667120083317 6.249879288986252 5.197704280108886
Si 4.757904489674018 4.108104422589182 5.424857649314915
Si 6.409758790261538 2.538001568532715 5.907810721267535
Si 8.416359278665189 8.12264122264103 6.5757221828759285
Si 2.9712139028436813 4.745279921309579 6.881335858359816
Si 6.4696361938188165 3.9954844793010946 7.821135913349024
Si 8.844479128032926 4.074008065578443 8.00049817398527
Si 4.580662852743198 8.092076908675283 8.41518778026103
Si 8.641005029518222 9.88847795177535 8.300670230117792
Si 6.96344233101179 8.121225073152534 8.459154216496591
Si 10.41744349236323 8.16496608697651 7.966619319646461
Si 8.709949477649442 6.395277930216859 8.234388651500987
Si 4.994022592881577 5.920557303221861 7.496685055929432
Si 8.937565528263903 8.079686520804996 9.973128191368263
