28
Energy = -131.1368926 eV
Si 7.812425786037526 9.858885988837859 6.101763114035751
Si 3.8191285551747827 9.034947375842302 6.3701578136618116
Si 5.919059237972803 9.403600432766227 4.744738505606194
Si 8.45038715415856 7.608998649376191 6.48460941292823
Si 6.990110747119411 7.029741077019054 8.9070283942432
Si 6.065666785427794 8.469672469285323 7.18082302799677
Si 3.9310495338114553 10.556619135089694 4.386042895038756
Si 9.302050946554404 7.414969510609434 8.7324048832774
Si 2.4099665767775753 7.188539292379475 5.550320654432362
Si 8.170090318230727 8.204022279998012 3.6843231928057314
Si 6.003012743605013 7.072310476135882 3.592122506976166
Si 5.764872997670067 5.598782677878451 10.354683758004272
Si 6.122167830948784 6.362507287466453 5.89133219669713
Si 3.8717252907756374 8.172828020777766 3.9731671263948534
Si 3.092111069526704 5.081318563748933 3.7104361454774994
Si 5.322783690823409 4.883248071199811 2.696253873996366
Si 8.522400821667915 6.000649261673191 4.7797509300227325
Si 5.026606353355134 4.747728085892708 8.31304212846901
Si 7.208137192587775 4.542357762534266 7.0370915796831
Si 3.9221003844906877 5.4857843849828445 6.234908027352986
Si 7.352530256110324 3.8434797160048007 9.644442579760517
Si 9.042067705102717 5.069769286787015 8.399941230578422
Si 3.8713440737366955 2.9474830319949143 7.209726167680756
Si 9.590062945049304 4.1873163518640615 6.249668600846129
Si 6.219984495156899 2.5011632692145214 7.853062891668606
Si 6.788742472617772 4.126832448760461 4.5185141634861425
Si 4.410919221297727 3.5296149661575096 4.871590760698996
Si 7.871781849501726 2.4813679843885033 5.87949692245748
