25
Energy = -116.08052034 eV
Si 5.383256417188802 9.581275306731131 8.175130027237687
Si 6.722104144615097 10.442974214580689 6.301708899098727
Si 10.11548396422731 8.17648669916411 6.858132035019412
Si 4.822810754789049 7.886857452221507 4.612476531440143
Si 9.6089894558036 5.50001931731991 3.814197103020579
Si 7.450665355029696 6.5539359315683035 3.714565972786633
Si 8.422187491620775 5.190124735330495 9.089478781183908
Si 9.025233402972429 7.54541775716419 9.746456842659361
Si 9.487943038757384 7.966686800044953 4.525915469766298
Si 6.531145107075661 7.878312881293024 6.747509275243293
Si 7.108540936091995 8.800885912282276 4.612036650203787
Si 5.297316228508014 7.553878781181649 9.474893515840309
Si 7.061413693904391 5.585832212650697 7.170394492228586
Si 8.321432266673318 9.070665624980878 8.07465429436288
Si 7.052779260740478 4.216603966160809 10.881361201707831
Si 5.670556009629492 5.142595512247805 9.123180906899172
Si 3.435743238897581 6.269964435100084 8.469501349596948
Si 3.8870473115664264 8.168446449057154 6.931451965215792
Si 9.261633001530276 6.006454236980472 6.164715360796794
Si 7.077017924813924 6.584762458285132 10.765379414691585
Si 7.436008990854157 4.456388982343411 5.059673590849028
Si 7.443556914755245 11.191891182311629 8.424029018948689
Si 10.618426623957186 6.166976527909025 8.31784568833753
Si 4.833087935301712 5.883714847034729 6.340025706531864
Si 5.27580459708138 5.529031842440686 3.9554699727184186
