26
Energy = -119.57774883 eV
Si 6.237209330145227 2.7115995213269555 0.7346396230559913
Si 4.116969065691466 3.5349914129219435 10.46110377962163
Si 6.289361968829687 2.911272379539525 3.2126121821400884
Si 5.6469274020423725 4.8523508854919175 1.6253618901968416
Si 5.572298742810106 4.93673190508531 4.365595653863357
Si 4.127647502409152 2.9094999150913226 2.214291046013223
Si 3.2725173915543593 5.148414920162271 1.6052270034890932
Si 7.077882365125955 6.852866071245959 4.189588863172949
Si 3.2597115585966563 5.448868393075766 4.021708093994214
Si 8.713310578894415 5.921921497249414 5.679400045905098
Si 3.438964237575897 3.237561963674384 6.933610010702483
Si 7.556575755611312 9.180425590000324 4.0050809963747405
Si 4.490623075160833 7.10291443743387 5.201261594531182
Si 3.1439026554249057 5.886959903978965 6.8001081255661155
Si 8.12899693940554 8.191977477829393 6.169399066330966
Si 5.8660550593388106 3.12203242980329 7.162615087396204
Si 1.7212457477802914 4.443592385218078 5.616013322673467
Si 5.751156321337153 9.010126874635047 5.644468372621984
Si 4.18470297535813 4.522047996482321 8.72953356864042
Si 6.443995503624192 5.515564514927416 6.570885063405879
Si 3.486909619250362 6.895601638354911 8.926444482338228
Si 8.209785735155634 3.8694090193560413 7.136896595562689
Si 6.716076238679518 9.09363457557979 7.836606557343265
Si 6.713068493126284 4.233880270166564 9.052382730436632
Si 5.455547251045195 5.67696383329958 10.461103779621627
Si 5.820496272728097 6.944284855027185 8.371687664704607
