25
Energy = -116.47678703 eV
Si 5.48995627528515 6.641499516693448 1.3819755381116636
Si 3.521960599485242 5.334060109013067 1.3913728767275817
Si 7.389801901322089 5.282268626217625 1.8636459274465094
Si 4.764021959099561 8.874638752657885 2.001282198730423
Si 3.4909350390691762 7.1309306091879625 3.0869074880621405
Si 5.8678318068333875 8.120381581459377 3.9531933760593954
Si 5.313951624473803 4.429274747009181 2.592777884177647
Si 8.304834474540389 4.063009440052637 5.194092549469574
Si 7.26222779460119 6.129057780492906 4.086121408130678
Si 5.7777102023781985 4.165079818532428 4.958928429802991
Si 2.2557308606280113 6.265497191647357 4.962755737904952
Si 4.683770560513972 6.318170819076396 5.101274014501228
Si 5.379546880981853 8.478521121693547 6.252450616470885
Si 8.873197094715753 6.420487058921391 5.918832437260607
Si 3.2952277843317845 7.474652380121058 6.775339742828029
Si 7.849241845176174 4.464137603331978 7.484055637679096
Si 6.190091509018306 7.322107522857817 9.543076276427682
Si 5.428943659466053 4.484789431083419 7.333934413325329
Si 6.699690374090686 6.717614647655059 7.245439337794445
Si 6.30534612184462 2.964035874178464 8.997618327581453
Si 8.385896768421194 4.090615276601176 9.795622315326709
Si 8.611802327943971 6.516090315429805 8.774177360559653
Si 4.288414902892934 6.104624788096083 8.65556175150292
Si 5.741765158978885 4.861507975762265 10.249568418473666
Si 7.576708103343853 6.095552641662931 11.148601565079876
