21
Energy = -98.17213099 eV
Si 6.219472341796351 6.422726940103607 2.4782645981925127
Si 4.141836576900097 5.994425493225391 3.5758108955477867
Si 6.351439001091828 7.813931282595236 4.323861424594333
Si 6.458145893834756 5.094960427437196 4.4624160552301895
Si 4.400778563106747 3.882039838306457 4.605255368998967
Si 2.4944376266403956 7.166224695797171 4.917499235537151
Si 8.829335285682838 4.634348535386386 5.222799328264285
Si 8.394931030800915 8.484407791364566 5.457711080892321
Si 3.834125412315819 5.5620109907158675 6.142574491741293
Si 9.846763132590764 6.6418937379482195 6.0055133678458885
Si 7.231834209002571 6.432390357458154 6.3783153862178095
Si 4.498391617188263 8.032441380918495 5.746141021377923
Si 7.33686247610036 8.618350867544118 7.544809936943555
Si 4.4180944636375425 5.188200123001489 8.428590734055803
Si 8.90502811992334 4.810735987195438 7.6141256030261575
Si 5.089038043839715 9.186656303473434 7.780525090919544
Si 8.478457177965083 7.230747146552386 9.093485880635502
Si 6.7703338381805045 5.194910286013291 8.651418883855005
Si 10.571312149941786 6.362701269603947 8.344536140997898
Si 5.327389794523085 7.253785696981745 9.065445610688668
Si 6.901993244935367 6.492110848376587 10.660899864436137
