28
Energy = -128.59824629 eV
Si 7.356161748467342 4.252791377683034 4.640662105958603
Si 7.8292719926228385 8.158703991377452 9.107262210480842
Si 4.509703759658503 7.683643798837751 8.002038220370787
Si 5.956966318545796 7.319114392244855 6.02043001435967
Si 2.305329704843365 7.005399107844318 7.42814591468242
Si 4.592394413930233 6.603827931542797 3.984153933589021
Si 9.438909861897063 3.1029665696818327 4.719201513567398
Si 5.150365785144357 9.625422395949132 6.701462289515628
Si 8.414122581211435 6.27932416387034 6.241721902644901
Si 7.392979676050169 8.351528091777196 4.278867630126461
Si 8.755479390383814 3.7932767870624144 6.830306033816639
Si 7.087848557078254 9.971320623559192 10.314546970102887
Si 2.6912121214923275 7.74654088604465 4.993182244980884
Si 6.499511438335094 6.244772578739082 9.28174374507337
Si 4.2984521265546825 0.23427651640673322 2.4181826068801584
Si 2.7080972368812692 9.331745269834565 6.7481841871088815
Si 4.0531365059269175 5.774853536903667 6.2247450992757605
Si 6.640320439437306 4.833966827871017 7.315849975638985
Si 8.124465896752598 8.599605333413855 6.607616945567942
Si 5.27661577292075 3.1269753586721873 4.876527286260501
Si 5.436709630618623 8.189501196235861 10.132847086135614
Si 7.172874980414921 10.36544929785025 7.862855567218085
Si 10.34780229919072 5.323176964499814 5.2336038756860574
Si 8.4555890365831 6.15977326091993 3.7668391375369836
Si 4.595730648522047 3.630594215104399 7.108798207366236
Si 5.553229962342247 0.8924577074182567 4.200863545768042
Si 4.969900134472523 9.052361476856898 4.365958200137097
Si 3.9962841985053483 2.410261100798015 3.050226157711612
