26
Energy = -121.55326344 eV
Si 5.616430719802052 3.885692869782609 7.064186720839377
Si 2.7615750077643924 8.24773949681892 4.471206498108721
Si 9.112946876012463 3.9494978794822186 3.007606135596772
Si 3.3364046148497 2.818961394925466 5.004567092230246
Si 6.231336966733432 9.422760400145396 7.01007735706682
Si 6.6080236004343575 7.097141577491796 7.615845289163358
Si 2.9270413775361237 4.34477380270165 1.682134377770573
Si 5.164635775259746 5.240571526601908 1.8582443535077793
Si 2.9690336332412888 6.79274669994089 6.406731631758186
Si 2.732330440859298 6.864380012811686 8.830490281377367
Si 6.115518739359305 1.9438971073362294 4.768966386593883
Si 5.867056679687334 6.158292930364204 4.226632989349243
Si 6.785050031250372 3.9859555070946673 3.2519264969062314
Si 3.313391718656945 6.1545290997757185 3.350385036411047
Si 7.578768200919899 5.413483108296115 6.312604277449737
Si 4.6990119740201495 1.7154861448367764 6.7046082246116345
Si 2.0542264885839967 2.3681762219832723 2.9374419936138136
Si 4.851282556711191 5.763327120285046 8.439409494040868
Si 1.6460976315863383 4.49301975802334 3.9730473920970764
Si 8.240291375397952 5.946478848018379 4.117722718602212
Si 4.0789642259420935 4.9872291192808325 5.387395049558709
Si 8.027911809409236 3.403565466185648 7.369981785230497
Si 4.986299490408209 8.120242248430976 5.403037135545536
Si 4.396251098928786 8.21679633901393 7.894544535247043
Si 8.224266999115898 2.914712092164857 5.004684432101246
Si 4.629049878006004 2.8890792056767842 3.0234898576312834
