29
Energy = -133.50494809 eV
Si 11.496089045951358 11.717905954041033 4.623610682199059
Si 10.547166538619056 9.490301956910772 4.955891387716501
Si 9.429815543246463 11.066716510316585 3.540696555197186
Si 11.340790081572301 7.509528327413361 6.027313580873239
Si 10.136318846977769 11.419770822480828 6.556690779894263
Si 9.59548779408203 4.377101789889922 7.18293538755972
Si 9.707268061472194 3.241658672606549 4.854458162404925
Si 8.119047482667739 2.6333412439089616 6.567196966748615
Si 10.503677351410953 9.237272900199953 7.509639866158502
Si 8.446304313431302 8.27195013558624 8.341458530243678
Si 8.72058772949224 7.017128129046784 10.43967174403821
Si 8.267886113762179 10.466359042788223 5.495217202547318
Si 8.000493231719622 4.798741131266652 5.157131717127294
Si 8.211385166863774 5.756611945267999 8.488614465751313
Si 9.07254994272211 6.780668808412114 6.2175369984885815
Si 7.340313988294484 8.424107013231852 6.241562036673168
Si 6.011718044361271 3.731767380769817 6.383272953715993
Si 5.886768434820758 5.459273056388202 8.04963138107441
Si 4.251098725570856 3.6327260050944417 4.819037999008996
Si 5.353905820320209 7.191378913121503 6.328184647171495
Si 5.764344053776925 5.511594120648931 4.477628687143771
Si 3.8457855788333357 5.293269939302218 6.471572896953241
Si 6.564228344020109 7.781447957067118 9.937471234878629
Si 4.538280938524444 7.707299784042921 8.513250392508075
Si 4.894794121552638 9.13958300777037 10.684683916264074
Si 3.6445548462456094 5.327326282680058 8.96072610033375
Si 3.094148194022829 9.605109802584975 9.125265633719616
Si 2.8327695798788164 8.359647373324398 11.392254538204046
Si 2.2577620099714872 7.22979386342703 9.386728072046639
