23
Energy = -107.04866796 eV
Si 7.560998558176504 1.382093935462048 4.399051839401238
Si 9.183413356961712 3.0720664840835625 5.411790551625188
Si 8.161000015047318 5.139885892602557 4.270003156500548
Si 7.469584725154301 1.9935260421774659 6.905689022347619
Si 4.193189859824201 3.5814417430304895 3.9094482701701105
Si 8.794901488200848 3.120582837366844 2.945724701599317
Si 5.61652162257028 2.4060287302174435 5.4113608754966736
Si 7.411806298813372 4.384922700254751 6.5889789256778695
Si 6.46372006016788 3.3632733528747267 3.211468510594219
Si 8.361740547606779 6.165366552942191 7.895009012294666
Si 5.7921482472249215 5.033818010600787 4.980288113259971
Si 7.9606886241948915 7.634801002351614 5.990620510125597
Si 6.418378759792351 7.528887208737322 7.963040392401186
Si 5.649324362344895 7.374299754852745 5.384854492112251
Si 3.941873654937454 7.118645828995565 7.280738297146053
Si 7.65315751154102 11.285824201190929 8.662879691153789
Si 7.27440742182875 9.686347720038027 6.929812376906461
Si 6.6626301130904295 9.385242540461878 9.716323986982152
Si 3.585290216177234 8.511369590875503 5.186948026685355
Si 4.943783779702481 9.78368060415928 6.633552070682041
Si 5.193952336887247 11.207220612940839 8.685975446591117
Si 4.2682581808612845 8.857976659617833 8.8530967206787
Si 4.582690498301341 10.100351530461069 10.774405833616894
