28
Energy = -129.81215125 eV
Si 6.769190872993171 5.636463064613712 7.994099883178198
Si 6.420144960277395 2.175285539004245 2.3829670209007148
Si 7.448703172358176 4.269425872179712 1.6718466161180914
Si 3.6267827351833266 6.2407898596577365 3.4316782251796774
Si 5.437469440596626 7.513250085205012 7.385240555040013
Si 5.2594201681314265 4.405955351627857 2.847874688905533
Si 7.1610366063343935 2.345335478354378 6.104442299706377
Si 7.935727204494478 1.2416788746551155 4.101362686686034
Si 2.4948745231950227 8.256706886636533 4.646535350609738
Si 5.226310401574143 2.3948906462359854 7.491852888791686
Si 4.264334562259981 5.264451217015137 8.544114528804057
Si 6.476934479942329 8.979982701189256 5.719341584428742
Si 3.601534558074854 7.543652899282601 8.96815772192057
Si 3.003863996734125 7.250337454202744 6.731374015086211
Si 2.150159306515604 3.5466526957670688 4.510281131250249
Si 5.23714392856217 3.4084240852418537 5.09582901300137
Si 7.3642037500399145 4.867224192566082 5.787580989357797
Si 8.198787863020133 3.530870969076344 3.8122610856099004
Si 4.979914988107243 5.8636027729183136 5.458296486029102
Si 4.639135597945871 7.7693059629018535 1.789091202636862
Si 2.972167082311541 4.105960895098511 2.1745915985005873
Si 3.454577789844109 4.100659541870281 6.562626423753701
Si 4.037319533248974 2.217186100517318 3.3523460008146824
Si 4.8486667302935755 8.420008989776365 4.052476100726579
Si 1.8380545061142097 5.839691469412908 5.250542894520069
Si 6.546703644210109 6.460058446732874 2.381988499783716
Si 7.079936474160418 6.915504929778984 4.636259669891096
Si 5.933586189640755 3.845996559131494 9.328343518779112
