24
Energy = -109.87063559 eV
Si 5.137525697339801 4.2311202679103985 6.942292896093502
Si 3.9929095461352864 8.415881277497013 3.7443545534500635
Si 9.48524671209801 6.607335081395445 4.864307972410961
Si 4.429522706774286 4.572904381136117 3.215485893355422
Si 5.4247721187439 7.884016351391665 5.679135074234253
Si 6.028177311359165 5.876958778133599 4.3702703887568575
Si 5.658971891170273 6.345297700030797 8.651548403225753
Si 7.005211434383053 6.007165111685662 6.736130929454864
Si 7.315200008429313 3.1467921814876627 7.002020009153374
Si 3.89351384847914 7.557017019649635 7.5922358578599765
Si 3.742410233990768 5.94216489274153 5.686319766256824
Si 2.3808832162500155 4.036926600718436 4.4307645535928755
Si 7.73035369271015 7.460618772008377 3.613339239114377
Si 3.765909862199803 4.970415905992615 8.851641101258094
Si 7.7085737614661 2.298844701230945 4.686198873006964
Si 2.5139045178516612 6.414164569728476 3.5986101125748324
Si 7.885591486418364 8.183075723394623 5.963791636042063
Si 4.170924617659645 6.497183750598289 1.785162783754406
Si 7.892194352054942 0.9610114593295378 6.672612707363786
Si 5.858917383723191 8.174928055655087 2.329841544882447
Si 2.660260759603562 4.056853038798707 6.877497407577708
Si 8.036054378878303 4.6294842925393045 5.0479892904636765
Si 3.347323353214367 2.1213440497179645 5.670561287571031
Si 5.4353196108800494 2.930547519873661 4.780998962739996
