20
Energy = -93.47511576 eV
Si 3.9127642958388407 5.309744529920835 3.5845421194274585
Si 5.262231808808636 8.944313889796783 3.3678929428363853
Si 9.06618539579916 7.800840258257885 5.24029566615917
Si 3.6526435586601043 7.548319032962839 4.534340016361231
Si 6.8309731042636574 7.482213189271467 4.349407179625587
Si 5.261968260387474 9.07498926273459 5.762369794911354
Si 8.66519748756967 5.543514198993284 4.342402715983106
Si 6.078671076256996 5.268193289892488 4.597780684548699
Si 3.7989247555353898 5.527858758511595 5.949625744886875
Si 7.70855956089882 3.7694894321645536 5.674489993470601
Si 8.591128502559517 5.916393729906286 6.754453397465579
Si 6.05613301182266 5.695398020121153 7.05997210315078
Si 3.643505122569548 7.7130186379256855 6.987103436702586
Si 7.098184407271806 7.882595068591772 6.9583340932980375
Si 7.876885455416647 4.139249160608759 8.40960156016043
Si 5.597785597657579 4.834115156857338 9.221973235124572
Si 9.60462130868953 5.948032709079465 8.88533630840652
Si 5.663243785076797 7.370830035777791 9.039832078461469
Si 8.098986458680988 8.191528388813683 9.173409751869222
Si 7.531407046236888 6.03936324981232 10.106837177150483
