29
Energy = -138.60347115
Si 4.877509970254274 5.22012005077029 3.291826295262714
Si 8.851290422721961 7.105979375963232 7.872647386472512
Si 8.379611861367701 3.3003964060823594 8.36712804299795
Si 8.997951792471943 9.522144746810724 4.701162110850934
Si 6.681099431545724 8.8084566617855 4.391841065986121
Si 6.932906538390363 3.102045290212214 4.687588881110765
Si 9.327607384214325 3.442857114333158 4.5921657601540105
Si 7.33086434360558 5.368275903098414 8.281362927914541
Si 5.014675339073076 2.816643349721972 3.2109589248122448
Si 9.424839832330534 4.724767880202132 6.683698967832341
Si 3.230302972078191 4.620170579775353 8.909812354237049
Si 6.540646576626491 6.5146323109513125 4.239735965975187
Si 3.167916647717612 6.302565022859846 4.5124831820775935
Si 4.203485356990823 8.08040930619586 7.967742037214832
Si 1.53964664946647 4.863564758658332 5.212858930271813
Si 11.063957403252308 6.424790869826512 7.266663551629904
Si 1.9074983053665648 8.379955772256611 7.408627872353381
Si 7.917162397587332 8.9215685521542 6.681982509397105
Si 8.648192865379697 5.611010317684071 4.398777065908747
Si 9.784709707742486 7.346977123060099 5.464385642165656
Si 2.3353408911281495 6.024450525479111 7.133967959528405
Si 5.639733437318216 9.354225965077946 6.641204348257549
Si 5.750383214748497 5.02465960817649 5.926787826416322
Si 5.048789091892931 5.8954223117636735 8.12274202834535
Si 4.333077113078718 3.4063999478580347 7.221315568038136
Si 3.4200011723122556 8.427681402259017 5.532370370992623
Si 3.6356346232095316 3.645915329200795 5.006220075747924
Si 4.774772231186045 10.278838707176751 4.659121800382721
Si 6.562853997047688 2.787536380710863 6.935282117771506
