21
Energy = -96.10444658 eV
Si 7.6964681247699565 7.320662756580922 2.400629932703344
Si 9.166438038272654 6.615994741288545 4.619006453349523
Si 10.251189882968081 7.990181266692757 2.692615037450376
Si 8.651043860443211 9.367006846967152 1.6793567358837935
Si 7.861823266716788 5.096836764630645 3.3334989924328076
Si 10.724924474862076 8.339863267099386 4.98371946050066
Si 5.652430702073999 6.074355407119983 3.1409155624462746
Si 6.876927529309118 7.240547730846411 4.813187952108538
Si 8.571990761260585 9.171237973386653 4.139298469498801
Si 3.971297842782234 2.9478068246915 5.029176594251042
Si 4.159651357648506 5.344615874500433 5.087469006929857
Si 5.604741826310564 3.501983433787716 6.655959427495155
Si 4.708103102025998 7.233086014522571 6.447767365814421
Si 4.639756934809502 3.2313281301050676 8.768229577945252
Si 5.753489183879274 5.602876937983083 7.80107271856354
Si 2.7793392401472388 3.589596399154471 7.036423234450302
Si 4.053352304817733 3.3395779340367016 10.979989500677172
Si 1.9404173056740166 5.575596342662648 6.0128348232172
Si 3.164885239022775 5.953639212313912 8.024424447979483
Si 4.586645962799145 5.482176515458372 9.987446167354639
Si 2.298106556946092 3.9853104588070307 9.387871982009262
