23
Energy = -106.28405499 eV
Si 8.314137473457018 3.6179172202523193 3.158696889644858
Si 6.151855013850594 2.2888959334029515 6.021330500931801
Si 6.3211561219084444 2.5457988595274257 3.6656546124186553
Si 6.778097130472095 5.197662138666417 2.1861662250737544
Si 4.179235932328067 3.15727449746256 2.9721354605853993
Si 4.013611992586584 2.522497944078822 7.0110515263569075
Si 7.439660883591689 4.23240705960824 5.419684760658078
Si 2.3046626016268146 1.221720968866248 5.694856014599322
Si 7.192128864619312 6.5949429411858995 4.012712942870357
Si 2.222765739863127 1.7477096418496638 3.1794052015127905
Si 5.2669456977831794 4.609066946736016 6.783596023759645
Si 7.95618062099302 6.349530159193009 6.261605234268602
Si 2.927173371276274 3.4958320167365593 5.019686555013877
Si 5.119379156822043 5.169430951447001 4.13660371770362
Si 0.5417544675732753 2.6007005134176673 4.8049812113334
Si 5.440871921403531 7.940976055556837 4.8121342589869185
Si 3.814298262742924 6.3283730304693755 5.925360698231378
Si 4.038076965801199 5.329221725128257 1.7056733814683507
Si 5.7703346927194366 7.10627432158475 7.1969252118578195
Si 3.5227810654046974 7.061398201419153 3.5456922345388677
Si 1.8489575635684778 4.150070562469995 2.368493700548039
Si 1.1611055591962207 4.940289927790959 4.455099268426133
Si 1.711195903434349 7.147254308577392 5.203872934202477
