22
Energy = -101.03792187 eV
Si 10.299248839641573 5.064655923146838 5.995517906503293
Si 8.909545674732355 4.916376749700229 4.109306431062677
Si 8.837441751548555 5.791053681585771 7.610382939242437
Si 8.525400294131444 6.289946052089602 9.893773207827032
Si 10.723576169768538 6.599894071744273 4.1113016213691775
Si 7.029528430572828 4.526943576591152 8.451797291412763
Si 9.146157128743301 8.610628078881339 9.33218268981774
Si 8.969090041854953 7.223055094897914 5.489659165040974
Si 6.033328098827839 5.982495292948644 10.280481913943772
Si 5.8901794496921624 5.788551530292054 6.729080483771776
Si 8.269131711130274 8.92138191291594 7.160765879074808
Si 5.88713599397406 8.348248755514511 6.903094539993868
Si 6.658502572475305 7.953915511090514 9.12428110926731
Si 7.292942645305109 10.336723892197568 9.30693921070078
Si 6.9739987607542515 6.147789693220619 4.574662523389166
Si 6.717990667233458 10.737266828474922 6.902193719545294
Si 4.632667632603119 4.6918377970667136 8.641865541669292
Si 5.004351353281488 9.872357908830729 8.541368359091408
Si 4.240558150410894 7.518598193627623 5.2839747113816085
Si 5.154148272243505 6.814957141529428 3.1656343543579633
Si 3.348517100229127 5.724112578128189 6.605033116259636
Si 4.631862236491089 5.076968738022316 4.718257064774422
