20
Energy = -93.9466109 eV
Si 7.413693099657826 8.778831069716931 3.0834123920087766
Si 8.608611680794402 6.501903201239014 3.726004232778092
Si 9.582589781239543 8.78869716822102 4.195976974057945
Si 5.451343795725587 9.070212427713713 4.516301090027588
Si 7.595140060152447 9.856007427284792 5.4531760094923785
Si 6.205672727602161 6.690792358348652 3.1295946938272676
Si 7.134428928169136 5.890243331281755 5.470865287490406
Si 8.754550251798374 7.559967972610845 6.133155987874353
Si 4.948323465904763 6.768176706836494 5.235967837378402
Si 3.21398406801333 5.653059948667358 6.401584153710078
Si 6.455463510983857 8.116268006390927 6.661512174584174
Si 7.630670827300971 4.4135882131505815 7.242059304352788
Si 9.293574127440225 5.966311529536776 7.987053624630383
Si 4.228397519745055 6.329590309852572 8.427406433494214
Si 4.465183532571991 3.922519029983205 7.502170884753476
Si 5.689314699317186 8.17631024259817 8.904735011797024
Si 7.1393640155762075 6.313121046585035 8.902648584223977
Si 6.402803341308565 2.4929246257357986 7.842642088659877
Si 3.7170543396177944 4.4380076094787695 9.737418294103612
Si 6.083906959261561 4.28753850694929 9.46038567293616
