20
Energy = -93.53481918 eV
Si 7.239399348245379 4.016827305061403 3.1051967446142106
Si 8.721368748870749 5.8909100342186145 3.0363387493909393
Si 9.08571688454668 3.936096607965441 4.85117014935637
Si 6.182614374841507 6.312471556735762 3.0035581968422655
Si 7.373630723303974 7.013393579350119 4.935833715439426
Si 4.022606968554718 8.64035353194646 5.873757460247863
Si 6.839497317809044 2.977845147691936 5.326398824663407
Si 9.62965139909244 6.285766086624115 5.397463928341106
Si 5.69310717310256 5.124158238367088 5.073965124094762
Si 7.680636720527286 4.958129426392175 6.560185756595829
Si 4.617934154709213 6.420603384478906 6.8553220727041255
Si 6.280097891854772 8.187100499996854 6.690383940174197
Si 8.721876835719238 7.155155007425977 7.781412974300655
Si 3.0450609912997058 8.017723923208212 8.021745625661772
Si 4.885299012066245 9.909068707332493 7.834781542848001
Si 8.042038918676255 5.169165421317121 8.889541904253797
Si 6.9968833883223915 9.058352853026172 8.870543343870104
Si 3.90529417959018 6.0377030144994 9.188001502133023
Si 4.825384232010214 8.226832938665627 9.991884369481186
Si 6.211900736856877 6.662342735695125 8.71251407498639
