24
Energy = -110.98836642 eV
Si 7.849068343345014 6.842381363477255 1.9049375944845837
Si 5.472778157611891 6.3866422434608845 2.4011688134145865
Si 6.714940800706811 8.665531619635424 2.880217207515071
Si 7.416836328281724 6.724469208279039 4.244616078568978
Si 4.473260161041336 8.24773366124258 3.821113271379431
Si 10.058771972669375 3.7207408285110204 5.947086935318337
Si 5.472214829099288 10.361846962442709 3.9712599051458475
Si 6.54632726418482 8.75822047131786 5.495230205427541
Si 5.59524007375207 2.987273966465519 5.733379206233885
Si 7.802595822611011 3.6336762636259414 6.476523687247037
Si 5.5194486579360555 5.250962574596865 4.647422485105763
Si 10.839713505542598 5.604894989785913 7.2503042434783636
Si 3.2963336220196133 6.204145899578587 4.313258656798259
Si 9.068252731389023 4.453522754686933 8.387400153628466
Si 5.180086610422993 6.949906194265788 6.336156896589629
Si 7.010188796641292 5.8033331566029 7.5792240304046565
Si 8.832864369088963 5.857053584265772 6.029734594868111
Si 3.2404908889369666 4.008000050513303 5.854990815297049
Si 5.135723654845516 3.8266539101708394 8.050696888592071
Si 2.6243346822786786 6.382340753308087 6.698761299042971
Si 6.105702710216638 5.298646302108762 9.656964863414828
Si 2.7629407256045653 4.342646988599962 8.134316631849883
Si 4.216949080707422 6.4605203912787905 8.665789138515912
Si 1.8578288626812822 6.4249119839378075 8.967150462379667
