28
Energy = -130.00002675 eV
Si 7.336629170638223 4.922954058213564 8.683080531305336
Si 8.491921791037006 3.0426006396888714 7.595844907003855
Si 1.110503920965753 5.323055406821555 1.851186863582774
Si 5.067080839336154 5.531476312313256 9.355746216361696
Si 2.391591735471969 7.541999124405191 7.258051859565047
Si 4.621020647126896 2.996441845537615 5.552597476979062
Si 6.593794136676273 6.409288695156965 3.1538517884205266
Si 7.034048562800942 2.7690398819007624 5.643763049931317
Si 4.576663740064587 2.648889654277644 3.0784893724667985
Si 8.50513466003 5.004468364445689 6.3056596246083725
Si 5.850223114146285 6.013387286204729 7.04739008553728
Si 3.1633577627867147 5.402924717038204 7.703233066388774
Si 6.215014532171635 2.7047304195511255 1.459689123448219
Si 4.9473673524311215 7.563578298579361 4.577852302225516
Si 3.205062109166088 6.100650600598775 5.355271533689576
Si 8.10422392020755 7.068273922912086 7.371950891536106
Si 1.7856910314380388 6.923277439488453 3.5579624459743697
Si 5.538126867324886 5.053400099623085 4.898752832737692
Si 8.032395809308671 4.742621709448706 4.066761577860091
Si 3.309879541790065 6.263774110619586 1.5738211226719112
Si 3.5248891484179286 8.288505694446265 2.7579839247947886
Si 2.6147376590367 2.276985705637619 4.314170449385601
Si 2.774461169417513 4.496925326880997 3.4495952688256812
Si 4.5390943571936475 7.703207667646117 8.341346437308696
Si 6.13271015459665 8.372401253070851 6.593527258352541
Si 5.163907301013117 4.853671142706633 2.072780605060841
Si 8.168569699470224 6.872108414862213 9.74650032824505
Si 7.802864868647906 2.4988790260295093 3.3940736871566326
