26
Energy = -123.74390356 eV
Si 4.5073513588084575 0.34317145465640475 6.23173566160511
Si 5.420578739391724 6.09889420804278 4.090318488818532
Si 5.850974500926225 3.9759106661890224 5.094627109128175
Si 7.523683724452747 9.111307385817154 7.739030884300804
Si 6.938938068214824 0.605909148822115 6.270111455096875
Si 5.396583708605179 9.239386707885034 6.501143066047607
Si 8.112339646851277 11.353246183136484 8.266223442864511
Si 9.299783179099213 5.877252291243549 6.418555973215699
Si 4.739943766574643 11.529335665206325 6.4424836699043375
Si 5.640235608187571 10.322236424893715 8.674030442645948
Si 3.9938847411403264 2.8528546378524715 6.26781648859088
Si 5.801805766661015 3.9217067309185434 7.568396732482601
Si 7.179107586381453 12.424792047947829 6.025135241850791
Si 7.509326109796116 9.067117569912767 5.323706663934843
Si 5.3536676037039 6.031158742638346 8.608595265334904
Si 7.75974857665739 2.110883322580578 7.9512214718540815
Si 7.969256108715808 3.9221072750184773 6.3770626775714145
Si 7.528535847377521 6.701511156118977 5.044555957392396
Si 8.946137148488948 10.834133702341411 6.0610775055181465
Si 5.469897274320211 1.7216506606157418 4.40271130231836
Si 6.065290918742357 12.76433220902971 8.194206319701811
Si 5.197167682205099 6.812821350149801 6.359569826787613
Si 5.4048562731363665 1.6370621238015388 8.139336163263547
Si 7.47245484924674 6.677182747675503 7.7130650039222335
Si 6.10540107559281 10.86867398470056 4.541453536893804
Si 7.816067011655769 2.1983784777383 4.696846523889573
