22
Energy = -100.25034997 eV
Si 3.1631002761671185 6.79288152233069 11.880983428492113
Si 3.320315688811434 8.34443090552151 9.924417005245656
Si 5.58236221625114 8.465023181256852 9.34091081418006
Si 6.895937267676289 6.711826184871218 10.146486638661052
Si 4.480789087672467 6.2351298615675255 9.939629623659538
Si 5.350307161132028 7.5650875617708575 11.869839925742113
Si 6.3174905965496695 8.13067205531576 7.0821243479403275
Si 10.610025585005788 9.444759727831602 7.374840460824024
Si 8.542588481488178 8.605020550381925 6.535703961809223
Si 9.487434312340943 10.28331284276896 5.117930843075642
Si 8.047107948492847 4.8072134219063285 9.188524844140707
Si 10.834386653181534 11.672979590617171 6.508979367774483
Si 5.63254426906059 4.387939839066064 8.927296832904709
Si 6.607902436905334 5.818871531126582 7.3167116076880285
Si 12.002863108477973 9.947654765877664 5.304975574774041
Si 10.713618566816745 8.065019418728069 5.232865179730194
Si 8.733663145150645 4.609339988129581 6.6683119129062804
Si 8.831589802727098 6.566104022141384 5.3621926520785035
Si 6.799106392079008 4.742229252294131 5.145886990337119
Si 5.951954916115105 7.368928432078811 4.849216911713408
Si 7.579152239675364 6.625693982675885 3.3319959863733652
Si 5.272490774535236 5.505735568908759 3.5844690711519194
