20
Energy = -93.88049054 eV
Si 8.254768057885334 6.770815098868027 2.895546968590767
Si 5.934347424783274 6.354879617103937 2.7847133345012396
Si 7.779421385920611 4.524374427278668 3.44954975021791
Si 3.6868114760380966 5.593593639642634 2.8839229605216503
Si 5.256203090271409 3.915960249720836 3.340698802788747
Si 7.129832749513987 6.387478588913872 5.012285945713941
Si 6.891108650325384 2.3828060905192174 4.00310880056256
Si 4.715675630233494 5.894369169351818 5.040509974318416
Si 6.49249764228322 4.074722067552566 5.66026739876445
Si 7.767657253727284 7.274761208115957 7.0944835325957625
Si 4.559290783275898 4.532065401580717 7.0258293356270975
Si 5.587612976338708 8.648363454117204 7.193174347720584
Si 7.819669255004795 9.582092600086694 7.571186009143665
Si 5.776677316589735 6.295605193498943 8.103161194608123
Si 8.130499474603234 5.706902078438521 8.861294551986308
Si 4.43089565277725 7.919670776049626 9.37037416056487
Si 8.489777413821468 7.88048690707481 9.804189422039393
Si 6.371461096054083 9.233363390193212 9.580351957587146
Si 8.50695881126689 10.240487139018395 9.856264419749179
Si 6.418833859288257 6.787202902875874 10.469087132400016
