26
Energy = -121.31353696 eV
Si 8.63915207924725 9.38443305928184 6.414733964560515
Si 5.466661011799067 11.274775537918776 7.651907515603106
Si 2.895261293137847 7.4578531238837105 7.0453587638456545
Si 9.48706934404237 7.251950872467476 9.808540839581305
Si 5.908382694556786 5.832212690946857 10.04813619839039
Si 7.239095311524555 7.823738722347738 10.08452325971572
Si 5.430641308422759 4.678527411659115 4.5178220490693635
Si 5.278882029844629 7.953982884926659 4.872219666827784
Si 4.22197399601751 7.174172301633748 9.043523178188051
Si 6.922494413452293 7.627301004469951 6.734885749861008
Si 6.949059333322973 9.455678982602796 8.325877517912895
Si 8.81599939120903 7.408683621116944 5.039408802992403
Si 6.275546947045776 4.09005944524017 6.675597547011846
Si 4.563433533140788 9.157306902949873 7.5707892724565475
Si 7.049789799112671 4.723246949919571 2.7680277418101062
Si 7.8817850710814765 4.9852139851800334 5.04656779053781
Si 10.207857688886486 5.528855946777541 5.269844169404713
Si 10.557678910322549 8.430452644875011 8.039609110834576
Si 5.059667797609907 6.122971529419466 6.951566888416883
Si 7.048592340634102 6.961202173479176 3.5909799222670062
Si 7.160821301350808 3.909747116604627 9.078436233121728
Si 6.206003521841117 10.028822022744317 5.621426932431226
Si 3.5966686014800424 6.297665235886616 4.965623658818764
Si 7.831400800948971 6.086900117357213 8.357646485881967
Si 9.6805473542437 4.815950217351924 9.506270460011049
Si 10.220137642138903 6.132899135742447 7.565279796861785
