28
Energy = -131.54151234 eV
Si 1.01538572970251 5.803208169445767 3.881608972517096
Si 4.19385689258362 1.6429672665751063 6.7741402847010805
Si 3.5615995442427892 4.3251967487814955 6.279503343458923
Si 5.0777092719932595 5.111979285317695 7.931849122411024
Si 2.646119086004346 3.921345523867235 3.913717777277492
Si 7.392941344695157 1.3588037015023748 3.315403537763831
Si 2.810443109753512 8.225424603240528 7.179365156424291
Si 7.155151784485724 3.938296371906396 8.226219905550934
Si 6.311498938957963 8.677676029324902 5.176530613673501
Si 5.138166953549666 7.478196843202793 7.307566184857707
Si 5.242113642509833 1.5881590173412954 4.471810224157734
Si 3.981905360873089 8.298054234239798 5.147842974590804
Si 6.063996347780785 4.834896727515509 2.128712365214132
Si 6.557322205788578 6.055512478290795 4.899749639477702
Si 6.849244553190481 7.583251249920081 3.0652777438572865
Si 4.471199606319272 5.500998779128307 4.0272867836502355
Si 7.2478511941393435 8.515685506671655 7.469085115515611
Si 3.091212763196668 0.575170643659029 4.829239278189375
Si 7.123478997192393 3.6070342197177845 4.113476026570195
Si 4.82984690077604 6.8826889064814605 1.9004535146820776
Si 3.4004430523697575 1.9954783158168306 2.734482809651396
Si 7.321174317716502 6.066848610771955 7.099098557146712
Si 5.629707964473058 2.5716370025051507 2.1933173998570807
Si 1.994839525644428 2.586051548095643 5.9348439958130355
Si 8.262673648390338 5.508824837371235 3.0110407592373094
Si 2.2848804201235824 6.340465400758467 5.801082406343388
Si 5.9022991703295205 3.3741423931435186 6.232447365030559
Si 2.9188569968441618 7.273624124737533 3.345488604111943
