22
Energy = -101.76714425 eV
Si 7.917988960346203 9.623555518808516 8.887484325252187
Si 4.89415297200985 5.869305215717748 6.862024963187599
Si 7.373092214035943 8.183668418662352 5.202812431230085
Si 6.612236491558184 6.025045660628063 9.438039465414265
Si 7.180723331293482 6.723055621254841 3.35039982800503
Si 5.115440835514944 4.2781389055260135 8.642290638683825
Si 4.9333611707162035 8.819249207853497 6.143843923455829
Si 3.7367816182438984 7.795315467859906 7.836472106052721
Si 6.918259667922966 9.933616661854948 6.706837141051705
Si 5.069435517439196 8.264310233014891 3.834121667857301
Si 6.019218689721467 8.250565439927106 8.63070210448841
Si 3.346777259921827 6.678088883399795 5.001022361437448
Si 7.575705115820952 6.74130722734305 7.259209212352613
Si 9.539020983080215 7.252273513339142 5.943956142442934
Si 7.331684977624712 4.071950703935611 7.878165678590303
Si 9.598130221482938 7.9211793709714335 8.2733082675078
Si 8.882731266624328 4.8306946650915 6.0415834640123
Si 8.98000070266661 5.777883914251997 9.147088640202728
Si 6.6103459238295885 5.263827151529126 5.187647882538853
Si 9.6077980507671 3.656331169395352 8.123813643353357
Si 4.3193412524221495 4.404417938751908 4.922368324167325
Si 4.80486934112284 6.003315675049054 3.0539044130656987
