23
Energy = -106.19390037 eV
Si 1.5059717956271725 4.357802879747415 2.8596599866885244
Si 6.380177953836132 4.392055678673757 3.597487507544418
Si 4.965184475214136 3.9334016382245616 7.362165278595498
Si 2.9890131942190554 3.089909261633428 1.2932941020438582
Si 4.54278031567512 6.1864772259201555 8.218115332057891
Si 3.491255641427828 7.118192097983022 4.507263268175208
Si 7.181163401029846 3.8814672242018062 6.358685159982383
Si 4.762826941539823 6.0679396539905515 2.7448953096807487
Si 7.1664965761524995 6.492441439872436 5.221482968124951
Si 4.9141493322902665 5.302759540425886 5.366805647246741
Si 5.08579379312987 1.7163435577655797 4.973648930678952
Si 5.652808800641942 8.21871461541643 3.529321954309216
Si 7.338539826589391 2.389482167728821 4.547779513453298
Si 8.698072024228583 5.623137437070845 6.894087568482319
Si 3.2095107345675293 3.56137906825929 5.247047730044551
Si 7.256960730491103 6.507182399644394 2.742864669278947
Si 6.773248765797302 5.437906349003014 8.275087469146206
Si 1.7137863722775453 5.372863053060552 5.0352274324367645
Si 2.970251865387823 5.45727638289338 1.2696220306492254
Si 3.6663128348748577 1.8875823712190645 6.906432806279115
Si 1.0558038900469409 2.1651035704959307 2.306212998536533
Si 5.214297365905508 7.548451066899073 6.162084352195226
Si 4.384604364523224 2.889995941138946 3.10802868244741
