24
Energy = -111.15822275 eV
Si 9.496270977425981 5.241956562169712 5.119763704939952
Si 10.507957496858236 5.048536993336564 7.272912054381977
Si 7.848440144424357 6.982716302990219 4.867844315275391
Si 8.985286487431036 6.901432690006913 7.1679203505234765
Si 10.11191228599014 9.04199206095746 7.055599698132619
Si 6.83736480105702 5.961358289282915 7.620263705185514
Si 8.277286551986805 4.0953328269767315 7.046888383642899
Si 8.199580599089087 3.1742063382946744 4.923715940382353
Si 8.091279272562833 9.096913638443391 5.787250970515652
Si 8.605396206854119 9.206446811295013 8.904544821941448
Si 5.29336519832794 7.186792981100037 6.219005581375027
Si 6.9943822405852005 7.446111920704691 9.414373091513669
Si 4.569624572448689 4.644476233581904 5.5417124020931166
Si 5.790499543205242 9.546284022990674 6.152646166768907
Si 3.090041155757844 6.033850452338775 6.6739890549586285
Si 6.300752505972675 9.511339961654931 8.45577795096957
Si 7.357902526294078 10.778177030256554 10.30556030268577
Si 2.405549205461294 4.925296578283243 4.454966028485613
Si 3.860149078094183 2.883610864332196 4.02058739220112
Si 3.726711776057738 6.97173876965874 4.295315253797263
Si 6.083713703522031 3.7147677551561458 3.9313662194171677
Si 5.915454454005485 6.084323963331518 3.848518987496377
Si 5.6894245069969305 9.050433258731012 10.828704369459132
Si 8.13792089130093 8.554344985906548 11.259180412085701
