27
Energy = -125.9761468 eV
Si 1.0618041136913747 5.5466669803296105 5.1921539176718134
Si 5.6870464522416055 2.62092718110788 6.135119188871659
Si 3.6593282112543415 7.8063937130350185 7.677350078823687
Si 8.414609580956679 3.1744040709276633 3.6085789978353104
Si 9.4206321025679 5.389612358756463 3.21198198355291
Si 5.358425585432106 1.0633139293341665 4.383288980208286
Si 2.544525024024961 2.3133882347943193 6.897495900294298
Si 2.649943380956415 5.697294530658942 7.082484978649499
Si 7.338965252605923 6.495148599044726 5.979794489398041
Si 5.512871233417201 6.332882350177552 7.507062123237018
Si 4.50456113052281 7.580820628831237 5.500484153438342
Si 0.6844092583254711 4.095413187964748 7.155031249961435
Si 5.5593409785168575 6.923257697312525 2.588209710910026
Si 6.802707700473548 4.938403605493872 3.3584595706786544
Si 7.480916572443749 4.152477741735636 5.596182316114435
Si 4.405010559849761 4.144535491698933 2.86316425910242
Si 7.95428557673435 6.877831339752398 2.212530244040964
Si 3.594790201175704 2.615632650796561 4.4955731104792545
Si 3.478012547150624 6.083654876641807 1.8049136808334187
Si 2.508470962985415 3.8873703388167167 8.826013599875518
Si 6.255835520573243 8.470801140706703 4.208752308107905
Si 4.520931471603137 4.102286584523195 7.582876008134013
Si 3.096598067409132 6.210393013475428 4.162008766415493
Si 4.956578635569221 4.929443593546041 5.281484947033256
Si 6.251774841191098 2.5354768569134603 2.5692045092803193
Si 1.2829758489581813 3.0795102637170433 4.944193804301625
Si 8.62596626966964 7.765545782549259 4.41522544086582
