29
Energy = -135.52102865 eV
Si 2.0982140542723062 7.146998646865508 2.4078204984720517
Si 3.436468859359513 1.2288422192595074 2.7359560260394487
Si 5.067852795061609 2.9732108461797937 5.664856163673874
Si 3.935732805748818 7.672600307608257 4.26046567520527
Si 1.4784060700499089 7.338407636281558 4.770861297810041
Si 4.418910497409186 4.668924783969618 7.394394600323528
Si 3.4170250823020765 3.671622675042952 2.152025850477518
Si 0.27836310986793933 3.51381486695214 4.571886979118549
Si 6.441531970637253 5.380071502483495 3.9368202664828438
Si 7.580337782400382 1.4707066827280348 3.1362314126014144
Si 3.080910753378985 8.441252859386701 6.422181246266934
Si 7.466378059114722 4.010633818282756 2.2384702280048185
Si 6.611464892161931 5.514619365748973 8.004566755553903
Si 4.162492288587037 5.181272179867341 4.89679073498029
Si 2.5789919666932843 2.9601817081069273 4.417400787971529
Si 3.6524228507900722 0.9935498247849528 5.372728674671759
Si 6.925399512256007 7.509250278114782 5.078803638098287
Si 5.416480192224691 0.441778815807536 3.7251504030173
Si 1.6460116214677416 5.129985659881301 5.637486303882255
Si 1.4705916557757213 4.869055255933713 2.950283919575983
Si 4.9939438539752015 6.891541133406334 6.479033614943027
Si 7.154130471332442 3.427332254401191 6.804316396127608
Si 2.537811967696935 6.212543613255947 7.551086299006529
Si 5.5167728481490785 2.8594310553219078 3.292525455810352
Si 5.997708116218491 7.692791583009927 2.8136176388032665
Si 8.00642836214811 5.591565312555733 5.982890459995482
Si 4.276886972913051 5.941043467400957 2.5407061031057636
Si 8.253637842789962 3.333563064189918 4.438946572478618
Si 9.600716529383156 3.8301455107806723 6.257921796377604
