21
Energy = -98.42514421 eV
Si 5.906356659787917 8.521753616057106 3.49719691899169
Si 9.32257830608722 4.307812674310364 5.615445879940153
Si 7.788950215104778 7.434924330615236 4.539895031791853
Si 9.882387752282463 6.287341465290674 4.2740535439327765
Si 5.251356325065873 6.445492360847962 4.440390381810904
Si 7.13676040134677 5.324863809802199 5.696998243823971
Si 3.240395813935341 5.303856776292624 4.8798986766751185
Si 5.584741445099253 8.672397444823085 5.843460724342835
Si 3.162971186671762 7.31969656804983 6.1690550470136465
Si 10.733519725950737 6.268379106350556 6.512170471118554
Si 3.788073718557564 9.321198158433958 7.24252923561871
Si 4.004981226657753 4.949218683436348 7.135462065109004
Si 8.680696449851547 5.356412850792326 7.730640199534703
Si 9.579233486673532 8.388274297145356 5.871440866157971
Si 6.047450242818888 6.037258514761804 8.425695357988305
Si 7.395057302723762 7.514764776453903 6.986601870301571
Si 6.088943125529518 3.7724513952951932 7.301421515463447
Si 2.1511494116276166 5.984183962910046 8.116515406398191
Si 4.035837838976772 7.317306953173161 8.625083910631117
Si 9.473170040133656 7.684553440849329 8.200857594944202
Si 7.245389325117433 4.28785881430863 9.395187058410674
