24
Energy = -110.99084728 eV
Si 10.405433974973478 3.52667372101835 5.813785974333298
Si 10.05435691701635 5.702097644591939 7.179824122239505
Si 8.639694996833281 2.5611274162675755 4.414990551362288
Si 8.161853586208673 4.996058424696153 8.417038929714503
Si 8.013590880044344 3.7435822367889413 6.402164787230915
Si 9.194406460148263 5.281285733196092 4.708026663823567
Si 8.160675169106389 7.401011459494997 9.969875627182311
Si 7.007033722495633 4.446805236402866 4.347805669354369
Si 7.92588774285617 9.765351294834032 10.009811482252953
Si 6.93403536687534 5.408787102516516 10.432721795024227
Si 7.814940571388425 6.734015413314569 6.659111799856239
Si 9.121720373059903 10.401426127421052 8.045298460300984
Si 6.157904591571065 6.6340931106467655 8.527711007156388
Si 9.608142459714058 8.114608030557282 8.250689229670298
Si 7.182589904877307 8.859517199502944 7.840750941508362
Si 3.8514734388783336 7.293831498886898 7.8624799125954
Si 5.807295458195716 6.447530928961195 5.302110193602504
Si 3.725006409828714 5.621060346710767 6.119832045477996
Si 5.711604956495717 8.415668966053964 3.9490730146744792
Si 5.100382074016082 8.729674262323304 6.384419939146241
Si 2.3397300760595385 7.77593751220175 5.985086300482686
Si 1.8745737856321965 5.775578435190652 4.64153161592303
Si 3.5805430754039436 9.540476630027 4.733036688629916
Si 3.689042341031595 7.143289895179814 3.8994604748782793
