26
Energy = -123.25045606 eV
Si 6.779933958435709 2.8983016197892146 7.879471526308364
Si 4.7567066644703235 3.1751518688636984 6.652246773335558
Si 6.799291921893927 2.77611661196304 5.4938752893531335
Si 4.98387007680207 1.0439373318425058 5.484006705611043
Si 4.964245193401471 1.17617769185671 8.038460086716821
Si 7.064457859264655 0.6995256888426177 6.79801155034736
Si 8.076604185732569 4.403768343775833 4.338217029526267
Si 8.498360261629292 5.181506336619566 6.580764258275188
Si 9.461877359107255 7.340698243896615 6.482172540826057
Si 8.159723125195429 8.847065684713003 5.197237989561317
Si 8.13897928748586 8.964635427701516 7.591401422627538
Si 9.270460427781973 10.760555725615742 6.312940023265919
Si 10.606014256045322 9.156344427049891 7.666233262368583
Si 10.628278340668933 9.032957200138464 5.146839840365926
Si 6.489361929626816 8.265285018806606 9.137831627477768
Si 4.90601244594285 9.033540377403442 7.563376128930625
Si 3.4752021059671403 7.516655733851826 6.4220240555304935
Si 4.926926849268183 8.913122619244323 5.1597524529455665
Si 3.8988542599933442 10.876245064004214 6.257001644249753
Si 2.4685347426798137 9.249293349726278 5.04161842930898
Si 2.4467364521812147 9.378172855854043 7.60523322618712
Si 6.538035214359342 7.995049611585117 3.698030926984395
Si 6.502502338959453 6.021633017129913 5.1348991908132815
Si 4.639272159000029 5.499312350657724 6.532511261617897
Si 6.479021027991595 6.160254723615857 7.902233535646067
Si 8.040737556115799 4.634693075452272 8.883609221818848
