20
Energy = -93.8843035 eV
Si 9.567229674683052 6.005845036827691 3.178057095164834
Si 7.193791025448912 5.918680872426631 2.9518736927963194
Si 6.387470500612765 3.654451212930098 2.924433495787814
Si 8.551798874093409 4.026503661568377 3.904129274807912
Si 6.196634376990442 7.290403920041269 4.601771632204609
Si 5.664311782903553 4.751027214467359 4.894282937885788
Si 8.611717066586992 6.383162830935387 5.403175012719936
Si 3.9891666459804678 6.49531625513112 4.9339701122377155
Si 7.909598439230168 8.684970584238906 5.506510828931474
Si 9.478106504133676 4.20501760262662 6.144378777876162
Si 7.231875418592164 4.557905968380773 6.628833024729219
Si 4.480302357325059 7.103207316730001 7.199300947111722
Si 4.45088923010188 9.492799895330696 7.720078546067498
Si 4.179330644315495 5.496574220383475 9.036726843651747
Si 6.6242372021349265 8.394430274205186 7.509860602313794
Si 6.460466958965175 6.061719172718274 8.244965546743103
Si 3.5844409475885235 7.888117204923413 9.40391976410878
Si 5.891427507978029 9.265001160977084 9.73002917349564
Si 5.755590263503511 6.661714260974154 10.52750516384694
Si 7.791614578832344 7.663151334184468 9.556197527519833
