26
Energy = -121.06748599 eV
Si 4.216967405146405 8.664707599866922 6.460428717825178
Si 2.831965496117697 9.783218152359444 4.874819221102163
Si 2.632230191056194 8.54585226018603 8.373955079083151
Si 7.54000556532939 7.844273526668867 3.9332308972979377
Si 3.698027936141558 7.816974375853145 3.9611493509940057
Si 5.595370358955145 6.522541708961184 3.39984870884671
Si 6.051736869400959 7.255884710262863 5.749928519607464
Si 3.4706597378424098 6.456831884485572 7.729895221968365
Si 1.759276821542691 8.027861428306865 6.1406309026961
Si 5.769062365436265 5.873156204234446 7.670785096786442
Si 4.075580452508817 4.744980458625611 2.4237889304821683
Si 5.407906598010849 4.818842253665754 5.323379174594872
Si 8.525755573371296 5.920228690854455 4.813248551658447
Si 0.4480126599792475 6.247962925963947 5.156274313557507
Si 9.943590627997771 4.085477266463892 4.300650381410953
Si 7.519317039224684 3.6595225786321532 5.566136462287263
Si 2.380970120845145 5.946512211934772 3.602581332417391
Si 11.6579327721124 4.435540751018773 5.98824162409386
Si 5.982293843262316 3.395629551916942 7.50606993296876
Si 2.3701161070804875 5.314081054510468 6.0282088673790035
Si 9.816466619888981 5.7435858886620235 6.742759045407158
Si 8.892610958289207 1.9689555795282347 4.706842607878314
Si 3.45439402759985 3.7097745648543325 4.631356479511989
Si 10.00639308395888 2.8753621049144167 6.669561994946236
Si 6.767126179074284 4.639755156200848 9.471518194054402
Si 8.437820034985059 4.166863623177323 7.890913493550833
