24
Energy = -110.85297303 eV
Si 7.151218678125616 9.660819062772228 8.501061778931073
Si 6.597196432083253 3.790775823727043 8.257553921809853
Si 8.132307711701333 3.5947273977112206 6.333863397836258
Si 10.276236433577214 4.624120871678918 6.38278931840591
Si 4.176013542535113 5.043656784776267 8.172472640656855
Si 4.390594778477146 7.4430788109923975 8.45174211697905
Si 6.600116514898724 10.711803001220034 6.410550559200619
Si 6.537465243815604 6.536534519847572 5.409913071323875
Si 2.9483497313607376 4.37627441850885 6.090064712088636
Si 8.537206552661202 7.745328237824145 4.433472724360125
Si 8.84452030413253 5.2141672629934295 8.291655194447536
Si 4.753267316513121 9.20169782574034 6.833626428224912
Si 6.469536215726309 8.94641154744006 4.576739017220977
Si 8.770256010355032 5.329659809006661 4.560612053936332
Si 6.650484659842379 4.146968677979714 4.3826366018576035
Si 6.5360927182709085 6.206725670818978 7.754531840235408
Si 8.721249175206774 7.705828935535485 8.527150201108386
Si 10.126657689574328 7.170346882753958 6.516331985538636
Si 8.512907156798773 9.150872727872727 6.417781160979004
Si 2.923997428666044 6.796217039528787 6.578380631560574
Si 4.457157696021659 5.4769887279937395 4.423854853573499
Si 5.216976507483958 3.6838658448849744 6.271770386034246
Si 4.3287498609571236 7.8733677662491335 4.832405133806403
Si 6.454458042466002 7.682778693209912 9.702056550765313
