25
Energy = -115.86307714 eV
Si 9.315392539121124 6.295894784671572 9.525758791973704
Si 9.286933645335374 7.211299677780776 7.366085149810464
Si 9.396858576780556 9.123504498043358 6.040262834125515
Si 5.6098976134689025 8.784108531907956 8.431181037041014
Si 7.191893285712915 8.753751717770392 6.771117196236918
Si 7.139566035176707 7.148065993605059 9.15241530354073
Si 7.900359409048683 7.619143971362471 4.810186546055045
Si 7.879450695934983 4.930035679020536 8.059004848300825
Si 6.137199270900906 3.24115576330801 8.178135868641725
Si 8.177845113834014 5.481599309150695 5.758846094149674
Si 4.385217894203552 6.861412668994185 7.510418968913979
Si 5.423218134645289 5.351352591929942 9.118045044112288
Si 3.380646396985036 2.6905086316892035 2.4037690526174815
Si 4.743740903671695 4.577653999471354 2.1150161033362465
Si 5.000820256382661 6.800879834477692 1.3878164238286883
Si 2.5594131933610194 6.599926803967767 4.712521323544907
Si 4.700420636209732 6.430772823053648 3.7746334538297144
Si 2.8926270099653033 4.39416167651207 3.940311056012033
Si 6.971045077410991 6.6592899984653355 2.8109959808366445
Si 5.519721562945802 2.589273939158151 3.757705088055061
Si 4.797142850406282 3.184129435966596 6.077287804547219
Si 6.584295741640972 4.724604152795821 4.06333996838673
Si 2.076449662776371 6.524581520862926 7.077986510694648
Si 2.8336692170511464 4.4020570350899115 6.325180465860861
Si 5.764477076224926 5.28913676013964 6.500280884742803
