29
Energy = -135.53330911 eV
Si 6.034929399926865 2.122076780438128 6.0071098756018895
Si 5.715450250943403 2.615840972570917 2.492761846905924
Si 2.681311323081558 8.56867545282258 6.201438977201429
Si 5.592667594792939 4.216081986305193 4.816613456659577
Si 8.612112783472869 7.066836129537288 6.448918565970733
Si 8.35409245375388 2.844367254973295 7.276582050847841
Si 4.215427506585677 1.1699783455044928 7.401685937769623
Si 6.448746124592904 5.946545754863069 3.2574168469942437
Si 3.154507190669717 5.635470519371016 1.0366709608777256
Si 2.073660711436244 6.291402384833645 5.1813120110015225
Si 4.676631639750153 7.857241642624462 5.181288975322681
Si 2.7046874605665767 5.255881850232292 8.691335636811274
Si 2.4640225868637575 5.018868929229535 3.2184120188595697
Si 4.258671657371823 3.443642406634153 8.127197794985252
Si 3.7108262111055192 3.094910693764341 3.791405878737763
Si 7.676790182385263 3.8995828167740028 3.556265898915675
Si 5.664986793348176 6.286743753602748 1.025781275818546
Si 6.349773660181142 4.2203520072466345 7.243330808581473
Si 4.013460748232252 7.089980809396094 7.594756777051405
Si 3.896448711663971 7.940134426437289 0.9949974239193538
Si 3.815875696450913 5.015624728808517 6.294261686076418
Si 4.892868593128948 4.097614939109998 0.7208732827458925
Si 2.9742918341381985 2.6436159467996685 6.00921350883084
Si 6.994105921783889 7.732161467705483 4.796398417115596
Si 4.131245513223104 6.738974098722356 3.112264929114075
Si 8.348631476116443 4.667042492946642 5.744481639794155
Si 8.234962495278355 1.9570795837207946 4.960530682464728
Si 6.300095188946285 6.594975059471586 6.918382419237443
Si 1.4334442243164445 4.510023526430784 6.704933260179105
