21
Energy = -97.30697002 eV
Si 6.6411575219530805 8.784273757989912 5.193397164678401
Si 8.396315096149745 3.907569298956435 5.638015438457153
Si 8.043487870961005 6.765946795322365 5.416601894493073
Si 10.105416806359992 5.6039837763703995 5.557866713793371
Si 7.852896154016166 1.6632322108348054 6.579468509302269
Si 7.591616156607278 3.404747126622235 8.013572095285266
Si 5.19319243379893 6.971900318854649 4.112977341626553
Si 5.840899582437504 10.31242414760111 6.808549787756064
Si 8.823537770672482 5.657242660421858 7.609302385517862
Si 6.462746221158572 4.965423907332462 4.674621399879789
Si 5.25818041021862 9.059742604281576 3.082258907639193
Si 5.434352940481503 2.2028864325166415 7.036984868073758
Si 4.058032324865974 9.688712572857815 5.275213115870739
Si 3.555198013599361 6.974425499551313 5.787486501870689
Si 6.294086334845017 6.0302653482797375 6.950282853703167
Si 6.964001511622462 5.325709901255503 9.237322247487512
Si 4.582610141681418 3.9547721728549927 5.747799946712523
Si 2.9169137105189926 8.269332897309102 3.8159844798613043
Si 5.133475066035478 8.102692857041083 7.200127226787398
Si 2.8207598521041275 4.95148498129745 6.936570111897173
Si 4.8504199703597735 4.239587513544633 8.238319085530376
