24
Energy = -111.82337644 eV
Si 9.771207897038861 6.175320257958664 4.001062573066139
Si 10.257225396506666 4.760647142530805 5.933267601795093
Si 8.077358141211507 4.934306365268237 2.7444935372341135
Si 9.144814934674342 6.154030076064644 7.589337078784805
Si 8.100552545613567 4.465208848941865 5.039531996078115
Si 9.064720111081957 7.971023706507662 9.25909524084406
Si 7.818092383801041 5.699937276851408 9.455101667290768
Si 8.400937779150444 6.898084032285708 11.545436578025072
Si 7.641387530218585 6.9791892551417245 4.4411153342921175
Si 7.030720856423359 6.131840693718388 6.595254975872983
Si 4.975803932145539 7.669787496727406 7.444024308133503
Si 6.736963905014692 7.932715514620122 9.11417732476624
Si 4.11280797310545 5.210653896347476 4.315842176252021
Si 5.369395312510599 5.9765937716980435 9.796912165143606
Si 3.758959195284115 7.510628636778768 2.741605555877866
Si 6.045323125716478 8.58589005582148 3.5698852839473916
Si 6.672951887499711 5.124869404559854 11.601861339494063
Si 5.905340150831735 6.056090021740058 2.867674672287628
Si 5.526054935408276 7.798125003883897 1.2783123055008423
Si 4.405346225621606 7.654841718965699 5.1590971625732145
Si 6.028394018251241 7.631440528230558 11.494100233287247
Si 4.868289708971368 5.295716767366903 6.6164634161345806
Si 2.2747118890563085 6.843500960904953 4.408695602544429
Si 3.4482392494121035 6.042121570024499 8.361380500438731
