22
Energy = -102.30295573 eV
Si 7.189126159092227 9.494806126023771 8.522312448686094
Si 8.462401897759799 7.48397632674215 7.445777921099762
Si 8.273536732740919 9.091581688302162 5.637633543777956
Si 5.799343205522995 9.012130528680418 10.484033035671256
Si 4.098353379245971 8.465788364658234 6.031878852923981
Si 5.982149029542238 9.828610348793363 6.3696506202140695
Si 8.042521606146398 5.1453692692954895 7.248359979569386
Si 2.9108149495562863 6.964342690193091 7.927924734601947
Si 6.7658984961054065 7.139003647580881 9.400898353301654
Si 6.608871503451397 7.315155216808582 5.917684269885044
Si 4.82497807138943 8.380793804103007 8.425606513328917
Si 6.7615583295976185 4.754962204128817 9.282202270270474
Si 8.128397447050538 7.564908628103144 3.681096600994535
Si 2.6242583679161746 6.773090271530294 5.495669296311223
Si 5.030761222185205 5.7928735087405085 8.036310948377652
Si 9.073104314314802 5.617846684716777 4.448915801171273
Si 4.794886304121791 5.705675782903807 5.646195459282872
Si 6.459032323765472 5.796796884914051 3.757742433532047
Si 7.868627863395936 3.860601588506218 3.4461948952690227
Si 9.343472016909729 3.6641943038683276 5.841721223861942
Si 6.65855024966149 4.001782818426103 5.665722945842202
Si 7.72816092618985 2.0102836408197056 4.962371151339123
