23
Energy = -105.57839699 eV
Si 9.98933466234031 6.509034941081137 5.637269561630079
Si 8.665794629295362 5.438018489876166 11.09250216870403
Si 10.180844457408488 6.534238631732567 9.484896637509875
Si 8.869827473523202 5.97056970271976 3.548438292816536
Si 9.730514378140908 4.190201268185758 9.19826698531471
Si 9.081551580701529 7.457294367706034 7.592381144867973
Si 7.768756667420708 5.865234742348112 9.040355424723586
Si 7.527666957515163 7.292791188955438 4.863834383850417
Si 7.531791438347448 8.961709916550287 6.572533717839133
Si 7.535426505886938 4.640972783498846 5.116351525099073
Si 8.995117893976621 4.869031080148907 7.057986277485812
Si 5.339920814829221 9.3710328530582 7.807654356713169
Si 5.355110855980861 3.765758480002239 5.202466214011468
Si 5.524499945961709 7.3020804843411025 6.660810868859288
Si 4.703203067904793 9.588629309215243 5.530203877974088
Si 4.880204928923673 3.2684682275775243 7.460712090047834
Si 6.297273163575149 5.136688363676173 7.229500248949675
Si 3.130240343159812 8.22713515456979 7.161735216347771
Si 3.1202738179954133 4.052630039454011 5.803155292574513
Si 5.121265533196972 7.354739147517586 4.099377109322802
Si 4.471316441238093 9.477598534247567 3.2423753499289596
Si 3.5122157325749104 6.361420765038176 5.549205922401415
Si 2.6681964772992264 8.4913774982356 4.68279162249821
