22
Energy = -102.30908157 eV
Si 10.982844200073007 5.8849714274207034 6.8562738279488
Si 9.579056318661635 5.643539333673701 4.594723143316626
Si 11.859783508881964 6.722379757095103 4.8229943057670095
Si 8.448545113812889 6.378670013792304 6.654354554793867
Si 10.452205201786775 8.143147428112616 6.029296586273281
Si 8.402993665395812 7.8659439104937805 4.473838720016583
Si 10.14743847392588 9.907950226025697 7.672825506167771
Si 9.812533340317684 7.383247160021044 8.330909858186805
Si 6.639670883872161 8.18543775354751 5.982868089368876
Si 8.634279708656017 10.015089041538465 5.648831828276871
Si 6.8183321659149545 6.020177975454927 10.436546794483785
Si 7.767617350322857 9.70600818437179 8.102311416753043
Si 6.735877283230258 7.708130534636177 8.808759428141459
Si 6.314484954890987 10.489485863796725 6.215309291843795
Si 4.880420751199248 7.484724675391085 10.85532161421896
Si 6.607277494317268 5.3899093259634965 7.854966944871551
Si 6.173889563124822 3.8367517169125307 9.670757157159397
Si 5.785009317590281 11.047000767064741 8.500139734106956
Si 4.320409165130901 4.910806332908578 7.2579202770659315
Si 4.636266682513809 8.874846624797412 8.918210514449358
Si 4.823186706444782 7.196390634116568 7.252367715495094
Si 4.394340224088016 5.493093259318656 9.662586273604692
