25
Energy = -116.11175012 eV
Si 9.043871358741322 2.8209935152427894 2.947759447454646
Si 6.581940839059581 3.209000167137993 2.893934448663967
Si 6.270707243422758 7.751877662826826 3.0009710124336277
Si 8.690716256678371 7.178840547964011 3.2956395872428352
Si 5.019700542560195 6.112393721459944 4.127421701327172
Si 8.232322368791436 4.888883692263812 3.538986024541472
Si 7.5385777772514935 1.2030734945356585 3.81500159444874
Si 7.673121955236087 7.527761174258624 5.357332768350078
Si 3.186673986270842 7.160363704891777 5.6424004055667805
Si 3.1069063454273733 4.989823801409291 4.75966663377092
Si 5.083764417286688 8.528513170918988 4.957386048833825
Si 7.970871217032458 3.1108058776256433 5.216508891391754
Si 5.676807526779932 4.008022017157543 5.047175157272049
Si 5.758022987182636 10.136376742326265 6.563252148498354
Si 6.591338671007387 5.884709110749396 6.7221480411736225
Si 3.7689426100863574 3.0686769823594227 6.114299655345575
Si 5.071632410425175 7.685891917284165 7.313398189550965
Si 3.035323407591698 6.530153163801953 8.19997192280409
Si 7.964753008527159 9.30618160790728 6.883473202763197
Si 6.3063333330158775 9.467333367102869 8.810395659103166
Si 4.5687543903884515 4.761742042933376 7.6161466698172395
Si 6.9017047299681344 4.582471204595249 8.761904319841427
Si 4.456500545280697 7.866984339770304 9.723898848657058
Si 6.830803938327788 7.00792312438088 9.007311562591106
Si 4.957667234703436 5.498962950140153 9.971375159601171
