28
Energy = -130.63874923 eV
Si 0.9346136878715962 4.264461521233322 4.015990593886972
Si 2.6399447379648384 5.885037994502834 3.6780335447195913
Si 6.157171205062935 4.417593002130802 6.668677725759677
Si 5.806045904378936 7.026534976290747 3.6460626760688726
Si 2.267304496439456 9.299340483347027 6.6192391097403895
Si 5.0158632204733 3.0806248432284336 3.0663527482942854
Si 6.598027223912297 4.729872242770016 2.263465192729287
Si 8.278002356389031 5.546116782274452 6.840267952990627
Si 2.056261569035251 7.048429105185343 6.822086080858494
Si 4.691745102442626 5.097683261117978 4.603600274231115
Si 7.320908771312509 5.328861965389496 4.604973263561518
Si 2.2279311475838024 4.974308104213709 7.916545977206053
Si 3.535810595912208 2.020397434555377 5.00764996002471
Si 7.809799421886721 2.8779248050260438 4.699049747892445
Si 4.981706966167851 0.2585123335344792 5.758578561134844
Si 4.491290135941014 8.074277633655894 6.672158018774738
Si 2.42885463687817 2.688577255341558 3.0281969609746877
Si 3.9280026299193502 5.185360708256894 1.7617432802326596
Si 4.285801793192082 5.737628894017596 7.035689257449663
Si 2.478935351620284 4.018009164141928 5.7438467803328965
Si 3.6964704002805426 2.9182913061446207 1.041826987571425
Si 9.755277726051473 3.9094327750567217 5.502980995277976
Si 6.303774290940011 1.246996065207586 3.907885015161506
Si 8.391865432292557 2.9714872515325013 7.243838114688767
Si 6.23879155865615 2.117135737420114 6.453973678237682
Si 5.184022993301971 9.124314731654101 4.617916790607097
Si 5.670840677657206 6.681044277540323 1.2829591328157923
Si 3.043117862201071 8.064175046063148 4.6193212353898385
