28
Energy = -132.96053631 eV
Si 5.830418459508545 2.473757247193914 7.3122544976857276
Si 7.449749022425262 5.777920071872418 8.540439372724546
Si 4.240879672802135 9.514089638645734 4.762035205731415
Si 10.877681395521895 5.747326122535481 6.295002718551003
Si 4.024304065278482 7.76277665151555 8.361006624864789
Si 8.30582867501054 3.184314478103072 3.675457521632614
Si 2.6323473147384675 4.920005830543195 7.194342122817349
Si 8.677290156988212 9.20984841274899 5.126716780062043
Si 9.168102527743692 5.229744623894502 4.6943282484566975
Si 3.8874023376281226 3.5668783759223324 3.771037553961865
Si 3.547391749234885 5.526949958263094 9.347564001489376
Si 1.37201667381946 6.3789867648474035 5.773863985702616
Si 7.506665283586912 3.4166108120360956 5.866992832544591
Si 4.366869289917156 7.4394835891366595 3.552048704342633
Si 8.303855910875724 7.900676889889971 8.921143268946384
Si 6.341130457206153 6.431354124281474 2.6133899047145395
Si 8.993077238743245 4.643697285592495 7.191525620858978
Si 3.187128804234574 7.879959252619375 6.140929357230947
Si 6.370991673097842 8.764342911386956 5.604085892909224
Si 8.040862424182144 7.208609811935214 4.119793234761586
Si 6.253412380831993 8.155489749674173 7.85834465015838
Si 6.163242192637757 4.265425200749521 3.715368881063687
Si 4.146599775724728 3.5437301236032677 6.0795691242144185
Si 9.252490976826508 7.473698645517932 6.718657860986915
Si 3.0258478337450545 5.704831283035796 4.237464412320371
Si 5.67923309817131 4.3415806010979665 8.87005348194825
Si 4.971672881783626 5.865777891299788 7.188650819886986
Si 5.978511623900891 6.267137548223251 5.0629372155982955
