29
Energy = -134.64083145 eV
Si 3.3470912402062614 4.870134686031567 6.798559628288644
Si 4.388209298518218 4.956505277208932 2.8374707897943643
Si 8.070816660927635 6.1532725564820145 9.116346540315746
Si 5.973862669912069 5.141128674902636 4.689954537962597
Si 7.631490468155242 5.943159168827843 2.729566382849091
Si 2.353557848868448 6.235792716835767 3.248535172342109
Si 4.5299316808999395 8.462235983506636 9.091243448583656
Si 5.838991910697206 6.7094539612808655 8.058697169187328
Si 1.3057182664318132 3.449743008792234 6.464331197227588
Si 5.556121104186172 7.500948297733619 3.889045028795375
Si 2.3654610543799324 4.22542230023573 4.456365675637563
Si 7.954940198212448 7.615432614785658 7.26700663040287
Si 4.002025074741886 2.5652749383903433 3.369863452786959
Si 9.048208417973445 2.962242688514694 5.724498492721589
Si 9.574294688816774 6.8858676609475005 3.7089676026104748
Si 5.9274343725014 9.53893663525654 5.266653042388934
Si 3.5622339271693666 2.550473813815972 5.817123017155809
Si 1.4490453946256052 4.985941545906602 8.172823770743415
Si 6.366687502779523 9.352263548202888 7.729381426436036
Si 7.820196840118528 3.7178912984788037 3.644508080087385
Si 8.19416138886701 4.470312673460957 7.425636949576315
Si 7.049370118307229 2.2725939520287266 7.054649882550581
Si 7.826022510333475 7.948411873696476 4.969160938941757
Si 5.7263519397725196 4.414542488652559 6.915576833783339
Si 8.446618981875647 5.480736152509658 5.287823948368492
Si 5.673530682197469 6.636988150428344 1.5773579065435557
Si 6.07243031966027 2.645344474823683 4.865781920834109
Si 3.6674027480864604 6.6476298198313994 5.197919334856389
Si 4.2937716780073885 8.339869461773214 6.751770483645881
