25
Energy = -118.07728702 eV
Si 8.418392302447732 6.01812191199129 8.175474946458047
Si 7.789315908422417 7.640934363625261 2.1300114788670004
Si 5.157393701117069 5.416769790227087 5.990005739433499
Si 4.576255661426831 7.107225479519229 4.395298384308944
Si 6.056490466658449 6.157791990778626 9.191658495043201
Si 6.877955038243274 8.569409043371165 4.170303875121748
Si 4.345895800697693 3.508041530355278 4.345345108423356
Si 4.743172858190186 9.393357166313377 4.755629983823196
Si 2.9501348333303836 5.361948831815944 7.186984136557905
Si 7.1443502083289525 4.071685239697954 8.13613510918388
Si 8.316849728875757 9.096589080169732 5.990005739433499
Si 2.9501348333303836 5.361948831815944 4.7930273423090926
Si 5.4885570445421195 3.8395253066149118 2.2495301167506847
Si 7.789315908422417 7.640934363625261 9.85
Si 5.4885570445421195 3.8395253066149118 9.730481362116313
Si 4.743172858190186 9.393357166313377 7.224381495043801
Si 4.633492382440531 1.7465515309850157 5.990005739433499
Si 8.418392302447732 6.01812191199129 3.804536532408951
Si 8.414317285358514 6.860757539366057 5.990005739433499
Si 6.877955038243274 8.569409043371165 7.809707603745251
Si 7.1443502083289525 4.071685239697954 3.8438763696831226
Si 4.576255661426831 7.107225479519229 7.584713094558053
Si 4.345895800697693 3.508041530355278 7.634666370443502
Si 6.056490466658449 6.157791990778626 2.7883529838237973
Si 6.4470501434702285 3.2933938169230954 5.990005739433499
