21
Energy = -99.17469092 eV
Si 3.861456778460235 6.893518088699386 5.711950204281973
Si 7.59974685052488 7.420266849522793 4.002900868988236
Si 4.972450116728195 10.035879552980697 8.536308664460728
Si 5.387297405617422 8.24447410015881 4.545279725488435
Si 2.644629029970477 7.850541841908068 7.444866109114591
Si 5.082798551656887 7.706250024661389 7.801517903107379
Si 4.909227706300237 10.56619021909735 4.609379651940036
Si 7.273510873313807 7.880662820272376 6.3021067883680955
Si 7.203771632188996 6.7803752166298 8.42933229946002
Si 6.248754507797114 9.985081442635298 6.527897672066592
Si 3.7324877887359356 9.827740956462625 6.5498135890267495
Si 4.953341509694332 4.802391622195191 5.743191265042864
Si 8.925120674299677 3.963332864952502 5.855209901831278
Si 5.080835247979248 2.8977194006657885 7.196169665425985
Si 7.119602593741428 5.179110679477974 4.659745818451514
Si 6.036243098429297 1.6779891242632914 5.346163140327179
Si 5.290290084058562 3.3940013215752733 3.8258281168225845
Si 8.471444583896094 1.4209724097109968 5.459962208035981
Si 7.431171401528987 2.4925661584255154 7.419939984816831
Si 7.65486121586269 3.022027044841955 3.7784832518540177
Si 6.974935850658317 4.812885762306195 7.107930672532489
