28
Energy = -130.87106958 eV
Si 7.160010877782651 5.330004164258689 1.9583689748242783
Si 2.582242232661845 5.838460918248562 4.959449481965004
Si 6.485089813923503 5.793780832687117 4.257071852132461
Si 4.071184282298775 7.71473209522571 5.039628769133272
Si 6.610892914220225 8.102425207336424 4.815279333412527
Si 2.824666079001113 4.682671909818998 7.43946767116098
Si 6.0149926621443415 3.00819679583276 2.404531025885564
Si 8.283797781268152 3.311131203571019 1.6486956931567227
Si 4.874495510807043 5.305119097760421 6.069839981930108
Si 2.445326902443003 4.3087486434298015 3.179386713377503
Si 2.421930422073328 2.375282776380634 6.943699053843784
Si 3.1799394227964943 8.566342465117547 7.106163406766875
Si 3.478595247793978 3.279807561372933 5.04121838758595
Si 8.009541183184977 3.8938703111243314 4.010086646830493
Si 7.340817731327204 7.82386046933452 2.496398311842533
Si 1.631439609008967 6.684091240613047 6.984514608589773
Si 7.498975595680285 8.25276161016197 7.074360819630491
Si 4.6142403429625265 2.520359049967265 8.535973064976382
Si 5.248810833959971 7.40262530369177 7.312595266677441
Si 5.252333350010923 6.946065193146932 1.3523366924216402
Si 4.174094900614825 0.6604708154421561 7.287008264976543
Si 6.515229724556403 3.89144392942599 7.28005743575391
Si 6.448731918909371 1.5690593742985577 6.845677158700647
Si 4.673545704800619 5.1240463392538835 2.797872992304914
Si 5.846220872096 2.9240067677742974 4.893244361867151
Si 4.889375975173752 5.111244015625365 8.575994463163587
Si 5.057017235078177 8.758752983480122 2.9612452560632763
Si 7.513528248067584 5.959018619856046 6.418369716761104
