26
Energy = -121.02207746 eV
Si 9.172877833947618 5.370406234317867 6.191637634011522
Si 3.7805322495818836 3.2549602577929844 5.914112088765768
Si 5.7617186933342115 2.085986879485019 3.432679479369085
Si 7.117800667279095 1.7965704961224418 7.769447460629851
Si 4.163204942119216 6.150443175434065 2.7909774787865165
Si 5.84542258779322 5.332938317835479 8.621018778436252
Si 6.425096309391965 4.243011141100107 3.077780920660003
Si 7.065971490408999 5.716325664955677 4.955238982204904
Si 4.573194978625144 5.429317258120696 5.2269213647440775
Si 3.2580362090260855 7.145534711507204 6.429498289486456
Si 2.8126367179949963 3.057917989642845 8.15953407824527
Si 5.902194921119027 5.616717801179594 1.2152953479074704
Si 3.1789341777137783 8.385036748702948 3.0999559789793905
Si 5.978963218237279 2.4311089203216554 5.805516035512889
Si 8.109960509019508 7.543093360653808 6.528486905446324
Si 7.031632755039808 6.990913812384881 2.8717443378128964
Si 5.246505889606149 3.0142129409440144 8.605403161742537
Si 3.8517740627221264 3.69315065978102 3.4134156068218178
Si 7.222982436546555 4.136826519872024 7.001375750139158
Si 3.647043038128731 5.168153075619917 7.645300907844958
Si 1.900651165768004 8.566402232497905 5.100895947081718
Si 2.1563321500875396 6.320004653193976 4.339356113373608
Si 8.26390488087226 5.950213714140048 8.47122233233185
Si 5.650339098863668 7.552805638067926 6.1402478417538875
Si 6.501830644822896 7.74387095793579 8.448176563233615
Si 5.427186212178707 8.296922049894306 3.910959964815976
