20
Energy = -94.03853725 eV
Si 9.30289442099862 7.162781641362801 1.410326169634671
Si 7.571086700516265 5.927795444291247 2.477624916382477
Si 5.9986045965625765 4.859498950577059 3.895566398870028
Si 7.919118468070709 8.405260130470126 3.0493677807609667
Si 8.527296992586596 4.434318056714426 4.279788496956974
Si 9.646270267832405 6.622286549237868 3.69708031038975
Si 6.0500432250776806 7.3560207473321055 4.12814808206532
Si 7.148228451251001 5.8002611872760825 5.839258397909147
Si 9.572668407888575 6.068257684090454 6.003819801418697
Si 8.209453719181816 8.086990229756355 5.412882323376413
Si 5.951570419636988 8.020350634225064 6.578820901957753
Si 5.9905678883451285 5.60755548441735 7.9258348609229525
Si 3.963498310774175 7.129439807277158 7.666987697372523
Si 3.731501001652039 4.705123283297904 7.903333796132497
Si 6.127438017692491 7.91190080958358 9.002425627554704
Si 7.1697629706121315 5.949167903575518 10.026204673579135
Si 3.8811321429335264 8.463237830889755 9.670769039026
Si 5.070686800876421 4.586413312189204 10.013108188819375
Si 3.051830673233559 6.0835587789465855 9.870427005867557
Si 5.116346524276313 6.81978153448886 11.148225531003373
