22
Energy = -101.76578734 eV
Si 6.367843232592722 5.207920177811458 3.4458764094443914
Si 7.893158602858198 10.000864931710424 4.149603397269302
Si 8.601554438735771 5.162786006193811 4.3437145422744
Si 6.827944638504847 4.906479862711207 5.8941509547967055
Si 4.563435834756607 6.73039556430086 3.054015351299924
Si 6.646224675934361 8.124354511557868 2.94203473165919
Si 9.72001605462131 6.342351394858026 10.84188505773107
Si 5.4513603530011645 10.203516116816656 4.230133997219898
Si 9.101360590235126 9.139221352617428 6.022084640373957
Si 4.537649843023814 5.337349426291089 5.139375787525035
Si 7.925957729858829 7.358866071432276 4.845981084660723
Si 6.798161431371562 10.187872354998786 6.357651855369478
Si 8.21811979188563 6.581880325185465 9.028595738971564
Si 7.8711964095313895 4.92799386258333 11.236047497991112
Si 6.972915806912062 4.64157522747928 8.353873903623494
Si 5.431136624092555 7.998452158214592 5.1192064464804234
Si 6.19120015311037 3.476165347614927 10.20550837628641
Si 7.189600332194098 7.936725147228423 7.159018664311684
Si 7.592991090576332 7.530584858671291 11.331425984830064
Si 4.456901148370208 5.033813486970908 9.001507228370125
Si 5.317404252194048 6.449987683453075 7.100773412681041
Si 6.045670630240938 6.2068383249232175 10.217981682111128
