26
Energy = -121.37828732 eV
Si 4.12703172052631 5.120861128269231 4.9439641854485945
Si 4.879841442347264 2.802836852322534 3.6674235613356094
Si 4.505680442221632 5.498739425055964 2.6105208137913922
Si 4.512769536209513 1.9543878344897745 6.015858953531731
Si 4.955886706193059 7.504049537840588 4.040701368342775
Si 7.209623168120227 3.489866402862588 3.355903747835563
Si 1.1663415026052038 2.8476453140759928 4.328502196076806
Si 6.765865288622851 1.0752085655831132 3.1126960063493128
Si 7.235724169494812 7.301698604358321 4.278589035101629
Si 2.763601400202954 3.146769935860523 2.4761218246889665
Si 6.056293542040193 6.041654559486465 6.135376022604842
Si 4.52650326591874 0.42180396836481465 4.158266263453511
Si 1.1624301007941493 7.468568044168911 3.66951059706819
Si 6.900158203258786 5.747604440600757 2.4185308554964293
Si 2.9619986188901746 8.57477339593212 4.921802827787574
Si 3.192077703211047 7.866413336990283 2.415009218091671
Si 1.6547121547455008 5.052716678428701 3.934334278901814
Si 1.6870234561251911 5.174997693075796 7.765284408885539
Si 6.356948927267388 3.7568100820728616 5.608866387001287
Si 8.244172761165276 2.177986101351601 5.136874783711701
Si 2.65597024181301 3.5079081155607184 6.116751575794128
Si 6.599835748846582 2.039723453416947 7.248145223888245
Si 4.074469861260621 5.221254377533795 7.371225661906992
Si 2.341020708411801 5.501115533072442 1.625088056090774
Si 2.226122800610343 6.517725134588982 5.896590234228469
Si 6.627565912439184 0.31667693051291634 5.4559883325576335
