23
Energy = -108.44286461 eV
Si 7.153463184044236 3.346489130209768 7.675089029325538
Si 5.180508596982312 4.1046038067351684 6.4511524688711
Si 7.200419596050759 3.369721333810263 5.291170591056539
Si 8.845941013867527 4.771684135125721 4.32209751585588
Si 7.406120445036512 6.577395833445389 4.988587037034752
Si 9.329562658850568 5.526785693686418 6.545648384826709
Si 9.162436822902631 7.86436330139298 6.565611392469181
Si 7.3466876875312765 6.547332406521688 8.047091268028217
Si 5.55073931109755 6.432423011508295 6.481128970107023
Si 4.8528655247385855 8.68417696166774 6.489234004546242
Si 4.628085335837584 10.229964467089175 4.4745559585644346
Si 5.4759373176244095 11.696526428840645 6.529718309173394
Si 6.700049365242425 9.694393923637492 7.727300917060389
Si 6.746679473123492 9.717157268632617 5.343274814389791
Si 8.574360923601704 8.57998895666923 4.35426260486159
Si 4.549175098757935 10.191744647566582 8.522548992492716
Si 3.225092159216942 10.513978560232154 6.474926661308476
Si 8.48759821010316 8.537334680795263 8.765545211970712
Si 8.760320983205883 4.728437960942399 8.73347729423616
Si 5.17538315140288 2.575754034577197 4.411143586828157
Si 6.224650953358681 1.2106561167702972 6.443433036997592
Si 5.095481842739538 2.535901813307322 8.458782979616526
Si 3.8284403446854554 2.0631855268377386 6.404218970380096
