25
Energy = -116.09306483 eV
Si 7.276028078440556 4.6988088239411345 1.324042841889024
Si 5.440963049373481 3.437511746012739 1.9757125378945035
Si 4.50439008105279 7.153150090232188 3.8117073640177876
Si 2.972957710746396 4.2900789727418225 4.257780461416137
Si 5.929474123812594 5.385215736147558 3.3186479227996015
Si 8.278178674404623 5.0515189229975865 3.4800523856735386
Si 8.179649013865012 8.381790856827697 5.699807306462331
Si 2.262917185605174 6.559802580409649 4.396795451806894
Si 3.466377037617355 2.420738802644411 2.8373175795953367
Si 5.828056772895342 7.710905224151731 5.762044623317007
Si 9.487050071805866 6.948506301633581 4.30817884307221
Si 7.784570914456408 4.339600462850095 5.677377389147159
Si 5.196601806047664 3.3383897169224928 4.413899901752279
Si 3.5910247161274587 6.637532126705313 6.363261495323457
Si 3.567472161976349 3.30460835735625 6.340315184556919
Si 4.597685925550976 8.704335919039316 7.554821690757844
Si 9.225559572552562 6.170113510063751 6.482480007613919
Si 6.778844499297749 7.33613223350354 8.14901262412189
Si 5.900110046396953 5.45223474247092 6.788664599820708
Si 3.887355519756146 4.9604483852112065 8.171664634327076
Si 9.019955377739576 8.043355037267023 7.947874947891591
Si 6.07624377988012 2.8988309166132953 6.686634881940745
Si 2.8752963335618946 7.258628832911305 8.56593455598161
Si 5.02510549896562 7.570297319092794 9.761202865759492
Si 6.090227590386948 5.189559924567966 9.16686344537557
