27
Energy = -125.77826484 eV
Si 8.693990402505706 3.9827728446009263 3.5249600217769794
Si 2.1351846743644236 6.393685722384503 3.851729134877091
Si 7.524583876054763 3.5129864198131107 5.572546010014501
Si 3.1392967181080786 6.43125513490083 1.6413043758199246
Si 1.4233060882429458 5.719939866815944 7.508170499400713
Si 4.087924905442018 2.4858584339632324 3.158650446284441
Si 2.506442418672509 4.769952311568368 5.477826899922634
Si 1.4369731055249035 7.604555990649585 5.795506397423899
Si 5.165815921943976 7.273427570536207 6.986330467811741
Si 7.647460260646753 3.8504895503039562 7.945919211653293
Si 5.911702115153276 2.0780516457708242 8.757745830247426
Si 4.2792053627915845 2.759561739532671 7.20571445360946
Si 7.020554661861449 7.26899968739713 2.819804227896527
Si 9.877960892643058 6.085248062069037 3.0911368432198674
Si 5.3845348435291465 4.330424822888453 8.94374877481392
Si 3.707536332483748 8.088791008625815 5.248362420374517
Si 4.580845691189045 4.734437256094973 2.5357591946914364
Si 6.945104369478011 4.872434641263138 2.230093021035916
Si 2.7717756230656 2.3072846542041607 5.156271688605802
Si 3.759445220406507 5.565684042478853 7.709959761439205
Si 7.925695572448676 6.041719622346772 4.548009238865088
Si 4.638954859530115 7.271112301733872 3.2486413180548253
Si 4.748852632830762 5.592388664740073 5.215571104957155
Si 7.018133761122336 5.790145571788687 6.6815799759149685
Si 5.255772635194786 3.1910295063278675 5.0791169395451865
Si 1.845071637634751 3.0746334967339215 7.2305244452045425
Si 8.382287120634869 6.40248216804236 1.0701694229636562
