21
Energy = -97.29950312 eV
Si 5.1797893934070895 10.221286533874382 7.7503857568971455
Si 3.0720384334873634 9.027174316854547 7.1265382400741695
Si 6.830265770737297 9.104345540610021 9.275286281960105
Si 4.0995613602594805 8.748281691331725 9.492998515843619
Si 7.1800821494949325 9.145165107168614 6.79091053836297
Si 6.2655911247645815 7.124081795599279 8.159659358913819
Si 5.055602917873215 8.105805712215256 6.198659683597354
Si 7.9338678128479305 6.835368541546813 6.229567544856252
Si 3.80525908438979 6.876072937789771 7.985156721649332
Si 6.976803361731741 4.86799898406039 7.73184954512923
Si 2.8159346913772634 5.32940728916749 6.418489337421913
Si 4.999219417404405 4.546876751660666 6.38162450814156
Si 7.418060992340185 5.894388790209309 4.088491697167576
Si 9.299253089932469 4.422248206570784 7.092636528528738
Si 10.293728943931098 6.45455458709447 6.403218657797943
Si 4.565146017041288 6.2950140189515045 4.72605606137546
Si 5.5892206278699 5.892689495444774 2.5346394663494975
Si 9.544464070103501 2.622034372171114 5.481019595212479
Si 9.66279336106564 4.942681191529618 4.603638300555277
Si 5.545651290303325 4.023916848561884 4.08748578109384
Si 7.524421882915672 3.760335247480229 5.307491646230001
