29
Energy = -134.93179463 eV
Si 9.105297253964288 5.10508644731281 3.4545194206446506
Si 6.53870639641829 4.224322929209456 8.279685361409262
Si 6.639275956491297 5.12121756797964 2.8268396481728617
Si 3.8861735613478143 3.5972030961973753 6.707883331004952
Si 4.2301996023667945 8.765189178479723 7.44004019733162
Si 5.690756219191303 2.1851778954694456 7.361288257234831
Si 5.545818720489936 5.438389377690713 6.384327715217002
Si 5.9126272486895495 6.9736014835367035 4.506746962554634
Si 6.019497333929397 7.40960293808661 1.898192482195294
Si 1.889426443690803 3.248717016877741 8.144286022025437
Si 7.341697870597368 2.0920683441659795 5.577783707059252
Si 5.14982029129411 5.236254252590963 10.032595292735621
Si 4.568216657351674 5.44523408313673 1.5369531413273063
Si 7.904937311343241 4.3673638869822815 6.277644657551154
Si 4.700038019846477 8.828805627191446 3.504355488929492
Si 3.145462751076247 5.214209749226887 8.617948730567331
Si 8.233076770149943 6.222834520639985 1.4193758179816678
Si 8.19537534980828 7.469338153420187 3.5566470800694963
Si 3.33186294680017 6.718320961335327 6.807247214792747
Si 2.0112957177779225 5.829191273555548 5.030115680300145
Si 3.7016453792380006 4.20670564251841 3.767493090182778
Si 5.939823683181649 3.744410547396894 4.626540438987577
Si 7.2214014760448615 7.495760999511522 6.511523088607913
Si 9.144510429989982 6.287885351566276 5.562245401711787
Si 5.833651210835515 9.271346370867613 5.685731051694633
Si 3.631306564987386 6.629708284729267 3.4787309998601956
Si 4.158087636743189 2.8532149888615814 9.12452663604339
Si 5.619965286084843 7.020488961811574 8.327443921234421
Si 1.908006823646634 3.424243831279471 5.325407051810426
