28
Energy = -131.47271113 eV
Si 8.528867205627032 4.18784949238607 5.808081399816483
Si 8.786407476634793 5.100267531082635 3.642791714750471
Si 8.546561567580433 5.859819134849229 7.488995369096598
Si 7.996286707418067 5.106631790271425 9.698634276812879
Si 6.557425257028527 5.224382862803561 4.409594984612295
Si 7.995778821550079 2.0520068741574096 6.66227581140219
Si 6.974918521593096 3.770746797688466 7.981430146491422
Si 7.165925602034909 3.4134803191141714 2.8253262576009
Si 6.161836234681878 6.160962067406031 8.552028086952623
Si 5.3975559476148645 7.154289026862926 5.131295996465244
Si 4.967622463475017 4.925479700072241 2.5394467496315145
Si 6.38613003017612 2.3674969666532313 4.887186381606359
Si 7.153445821085926 7.683788582217927 6.756718624697693
Si 5.801956029997615 3.400463138985824 0.870164925652178
Si 6.938139294386507 9.935216818072156 7.5238839929703545
Si 5.0290931183887 9.330299919334166 6.237824652896676
Si 4.050109726778939 1.7135481236896302 4.883970214513625
Si 4.621422719889846 2.429540110184199 2.7008519294237328
Si 4.591968852521323 4.400484589026184 8.084742082768022
Si 4.853923574036925 4.053419252817873 5.702505561386429
Si 5.386218662316538 8.470012037310868 8.656476501666738
Si 4.338952015855054 7.321075887776285 3.0145519746343714
Si 3.138290188032333 3.983512752441364 3.952092748307251
Si 2.8217456881460605 8.857972366578718 5.585607379276896
Si 2.0517553121835235 8.30933541811211 3.41474947399383
Si 3.036481854248083 8.352012784778314 7.949893930099233
Si 3.777933427669322 6.451112951740956 6.754047016407797
Si 2.7087432815653507 6.376701579875274 4.6419901530847705
