26
Energy = -120.62099267 eV
Si 10.400576585569537 5.347983259347908 6.663514807205424
Si 9.668143013721796 3.1756536379042353 5.797571021839869
Si 8.007239002383415 4.905283836497416 5.880148787698799
Si 10.158845573528755 3.1878583688478113 8.251421869864668
Si 10.534155004060132 5.510822328185614 9.10715388915113
Si 8.591698212848321 6.438434617734174 8.07707993944828
Si 8.862755133275883 7.154172619575123 5.828957757360269
Si 6.339589153365637 7.532027016932509 5.640651515305641
Si 7.824356957656511 2.7936158241010682 7.486301138515441
Si 8.373284500974597 4.266502531917238 9.608841680787327
Si 6.743720128665784 4.913737230794124 7.944873582353773
Si 5.299382063282422 6.213305872692203 3.915253731253744
Si 7.953730234607066 9.165024837222846 4.68845765692713
Si 6.89472285486886 8.024470825137703 2.9495057725864764
Si 6.502263281012256 5.956687680546708 1.932203610240209
Si 4.785125631158933 6.228157705106787 7.522159976887658
Si 2.885484489304501 4.438522171312366 7.5215127476190835
Si 5.777937623458867 9.93772423726978 5.514514462614438
Si 3.5279139943514846 5.824533747552825 5.48058164999767
Si 4.658184663319713 7.795891416529946 1.9894430108094106
Si 4.302624264329999 8.570597424609714 4.187769332969545
Si 5.029996307510939 8.673099896193918 7.529544152566457
Si 2.8595129589030868 6.181641672998921 9.100393644743972
Si 1.5059278274729462 4.585345354549878 5.596695771420167
Si 1.50003029187737 6.508295405395772 7.118063270248298
Si 3.0618940189175543 8.14840608681598 6.196339350373036
