26
Energy = -120.96700917 eV
Si 4.637187546972756 3.1313554355825124 9.252995367308415
Si 4.1571408027235055 4.0187411000179605 11.289271641392665
Si 5.031694449162176 2.6291366549328545 6.968757444403321
Si 3.4025103047809635 5.343265947218961 9.297298626567796
Si 6.153257437095154 4.629852964682178 7.807385062620956
Si 5.901745564860813 5.326184117765532 10.185953095172078
Si 4.539984443315776 7.366291824034267 9.963950399132656
Si 5.073142293870884 6.79239915315122 7.56783805811029
Si 8.072366146242768 7.6120141858227655 7.274859282301491
Si 5.142355981788546 7.9399571222330145 5.09688829696192
Si 10.062244203330593 5.644609679218392 5.3623273005796985
Si 3.7084938232086544 4.626419853977149 6.890747333113789
Si 7.947932616059266 5.417607829160869 6.505926458847236
Si 6.381328287042388 9.432512780637252 6.589282096858883
Si 4.169718649280549 5.307348237916819 4.419246011788046
Si 10.448662553261219 5.495123597225212 2.9917264019884247
Si 6.48893959394342 8.507360438118873 8.787397277220991
Si 3.0314058351284943 6.869109565849315 6.253344907219388
Si 10.299847599427887 7.78796114945232 6.378912318269053
Si 6.456476338881517 5.963684523314233 4.822996657889517
Si 8.408812799049935 9.380665352531075 5.404659416385174
Si 8.098770097548742 6.180901632753674 3.09478004519533
Si 3.1377318504757077 7.436124662948517 3.9287395962215292
Si 9.92954571007789 7.646170760132402 3.8894058271188197
Si 10.726766995651735 9.669660280220354 4.884417504079123
Si 7.18001232796565 8.27017203151877 3.6789185192767615
