29
Energy = -134.82668684 eV
Si 10.351612979858249 11.433936291324665 6.826777855720176
Si 6.821629496898545 11.25679723378986 4.099055733004562
Si 7.09067607527306 8.893015792226576 3.442819778925047
Si 10.873851856796936 9.56400059456095 8.265122746029736
Si 5.291936716316359 9.741808998723249 5.039848756795234
Si 8.495255418242852 10.090442271841304 8.210455277534479
Si 8.210073639578827 10.960152672805052 5.9931296960625025
Si 9.86024698801986 9.160795113687836 6.175753890777819
Si 4.813233503288 8.10207377750217 3.284876372794778
Si 8.322946093458771 7.701724779871163 5.0974920863709245
Si 7.668894669113754 7.882927215293832 7.3765599699656
Si 5.396735037212275 8.325746493024727 6.958147679703548
Si 5.75987561655167 6.888057799282081 5.0740596660441755
Si 7.78316270566499 5.84097017248814 8.667505747005936
Si 9.163961035945418 5.4924102117656295 4.915064457677841
Si 5.6488969691044915 7.362204061898631 10.538276185450513
Si 6.909332799141219 4.749388718773604 5.3290303429739785
Si 10.028243929126216 2.7649132796664113 5.742227633280002
Si 8.551864881652667 3.4443805772618803 3.783868913122886
Si 4.163413559347762 8.400907378246043 8.989035275752137
Si 8.886780367807658 4.5408766174038915 6.997828238122236
Si 5.897247004380568 4.470616680555969 8.269482188756227
Si 2.1916992358876013 6.8946404407569615 9.525200960700957
Si 4.202260442363133 5.992038667785017 8.787136311356763
Si 5.466740661332286 3.1253848437927774 6.321411599398485
Si 7.786840167440539 2.4334569684448244 6.06934775064539
Si 3.7650320857954527 6.139845652570348 11.283291777553268
Si 7.662856169376319 6.230646089257301 11.03742689384951
Si 5.686845666215368 4.839184153145075 10.674906758764365
