25
Energy = -116.16375563 eV
Si 6.811747012215774 3.928436071151919 1.7437620397838784
Si 6.696207895687549 5.715335450135634 3.431529841837849
Si 8.896755477931535 4.883361964291058 2.761111792994348
Si 3.3912810727046163 3.9981965651412397 3.4531567233293328
Si 3.679941216204177 8.439844479863101 2.9874336420919634
Si 4.1691059769368985 6.169845394017714 3.2077763033992457
Si 5.718679419817764 3.4748836013131688 3.8797722217540445
Si 1.3520069533797416 4.664675027700707 4.817572946023894
Si 5.809542296926504 7.8140983350249495 4.206060984100576
Si 7.912307915608915 4.371318720925103 4.998678385257047
Si 2.086835714076587 6.9278220233227135 4.4779325757447745
Si 8.247950550893854 2.540684321401488 3.321522571052073
Si 6.898652932080684 2.0122330949358096 5.347979873685816
Si 3.559923326352868 5.214227621753959 5.577455082605171
Si 6.974815515247524 6.6530625609153144 7.373029054025774
Si 2.5058632895672996 9.148011578176312 5.088813649165177
Si 9.020257928684828 5.6042589312463305 6.7786259950797225
Si 4.164662567500176 7.632195115098225 5.92921887193052
Si 5.032014009160623 4.959613299819119 7.409392413245433
Si 6.703247320068602 8.321276120686578 9.072093386713131
Si 6.918085234830992 3.6143806310077577 7.149103087076669
Si 8.062257333637966 4.756693531213467 8.840346867876193
Si 4.634881391108791 7.307177388704784 8.3404888142997
Si 3.9867650622312003 5.309501296676913 9.52795615491465
Si 6.300392772559521 6.073047060890912 9.813366907427893
