23
Energy = -106.22536315 eV
Si 7.855450565912724 2.8074557885163394 2.8992229616774994
Si 7.709835992811654 5.1903489218143495 2.2635471295348193
Si 3.744883323200886 3.247219291569853 4.313209812568289
Si 6.066804461897619 2.6787609138271113 4.53015708557217
Si 2.8790938619162656 1.8664186885526943 6.119793474075787
Si 5.363742507074166 5.628491313560693 2.3354475161415382
Si 8.261321410438446 3.9650477201581418 4.914332501264646
Si 6.864957103354891 6.48948280351148 4.093753273898792
Si 3.109532763005605 4.872056716819027 2.604107707555104
Si 5.3385791634075614 1.5095508962914586 6.50572917139478
Si 6.977966449042896 3.2139704896963925 6.915936144345739
Si 4.922941389664737 5.2015582798231055 5.07721410398816
Si 7.262054591926602 5.802119791598523 6.417769582361657
Si 3.9343035847361763 2.820061789508169 8.16491138226083
Si 3.2649229858097524 6.836549965522147 3.9510334631962185
Si 5.381197278458839 7.976906337142708 2.9138857893887273
Si 6.564411160041098 8.23935319797231 5.979738368076027
Si 2.999732393446745 4.322959081516802 6.472623357862488
Si 5.25921398797629 4.773886908766338 7.589944297722574
Si 3.2718593507011597 6.8101613371905545 6.414640880900737
Si 4.43985093631835 8.752577967579418 4.965564551522803
Si 5.183599203448173 7.186183886439286 7.810266180655004
Si 2.0048616336988516 8.436185294171878 5.211864552908877
