27
Energy = -124.5526983 eV
Si 9.670604834245536 2.933563223514363 4.956326976528936
Si 9.126101345007777 4.045552633837913 2.4617086022934567
Si 6.011685643191904 5.19441212948386 10.82008601429962
Si 7.593595520557059 2.897210221012862 3.9988271039848495
Si 5.217040818317282 4.364413470978862 8.609391342311724
Si 4.005648817533089 6.375631557998669 9.34674816423489
Si 9.18751432293569 5.175136575110652 4.693931031577087
Si 8.175607331751094 6.324754662132693 10.413768806908093
Si 5.380028418094721 3.6759432514308603 4.298145963843384
Si 5.83009219958663 6.288937170984319 6.938687909079429
Si 7.417575675268512 5.265111262120711 8.457696504840449
Si 6.404247954329704 7.683758209861589 9.596191769492894
Si 4.877409727426405 7.292651584950715 11.342782546416473
Si 7.32636742645054 6.64810402958916 5.084376306025014
Si 6.281622863311091 8.889408212640253 7.455853110166282
Si 8.309808683019103 8.698298514239077 6.03988652705474
Si 7.105340507360169 5.174177439274117 3.1073678526496287
Si 8.435446114543026 10.441832892076857 4.417330546345722
Si 5.15724703134783 7.044731394138584 4.025273854952118
Si 4.086975887693585 7.9681053128441635 7.5394714620781285
Si 6.557857433241554 8.938250782026401 4.058458732216325
Si 4.426092993839241 4.328956431569919 6.349538517309162
Si 4.866730919417736 5.35184990775108 2.4193355357664137
Si 3.4934412290340577 6.667503846652533 5.705132650794482
Si 6.447580950347411 10.520351759629088 5.780965044801785
Si 2.3122668777473323 4.670089448695994 5.322465630567241
Si 3.289490908867371 3.6756810065966583 3.1782001963217126
