29
Energy = -133.16889402 eV
Si 12.53869711910007 7.580870023889826 4.43055971467865
Si 13.117943633593125 5.307799315002184 5.204762721821052
Si 11.83335477518117 8.237959393503552 6.793794322276177
Si 11.117819676959073 5.581524617386809 3.679101096852338
Si 11.108809527968615 3.8859859490449207 5.393211005599558
Si 9.524265077566918 9.021392559287628 6.9613773384139455
Si 11.37554322172977 5.934726580077817 6.829658557645973
Si 10.183257988096173 7.285159573813175 5.120522500604515
Si 7.878214824990077 7.403897791294991 7.320364739999569
Si 8.13004755859733 8.445346822468796 4.850196951895545
Si 8.019290200857336 10.59503694520697 6.036157626826516
Si 4.891100315846902 10.045058089947803 8.767601705801315
Si 6.11966400563446 9.296857706758184 6.891032282881882
Si 5.2594486934989435 8.848247736385666 10.816823028799082
Si 3.123163746340608 8.450108516646507 9.690710367284217
Si 10.584426661450811 3.9672978130912164 7.827715044230383
Si 10.115944508389266 2.165420638522767 6.510971868610492
Si 2.570636188093445 10.155668368706124 8.127265397855407
Si 6.078235692635713 7.699060260885077 8.85632229884922
Si 4.838941471787356 8.077004827098 5.227023651948642
Si 6.721867849143103 6.356073579925418 5.389805247966519
Si 3.048237247040082 8.249918743277545 6.801302576235008
Si 5.012651717121239 6.37852435582786 7.186878814585013
Si 2.849859010717092 6.435885122305877 8.484332711532195
Si 3.1249146680283713 4.8323005914635395 5.971347377860048
Si 4.168754676711853 4.387295304151756 8.297319624850637
Si 2.682925102125843 2.8251733021662817 7.081353982443903
Si 1.4081319239204464 6.522473406256529 6.25519611617111
Si 1.3622388212172796 4.683832061408304 7.797327852400215
