23
Energy = -106.30288221 eV
Si 4.22194159264556 8.02871738520384 7.603622827662947
Si 3.6567837441530835 5.832445073011508 6.917008806729067
Si 5.623543515377095 6.2032028082458135 5.512543912244067
Si 6.054305316201123 8.348224837060908 9.076591996849915
Si 5.2652723815312354 4.711242991473155 8.375568832826874
Si 6.606322525117275 8.342588454993535 6.559791053001353
Si 7.742248784609097 5.159115347389801 4.5187630199715185
Si 6.749777268490522 6.135100859661303 9.523987885271746
Si 7.143595459112943 5.174839901780172 7.102498607663757
Si 11.16026676623418 4.5006121222878175 6.382643920294139
Si 8.883519620414635 3.618846754157971 6.169158119036617
Si 5.48763581856406 4.329545801003018 3.8247832218896574
Si 9.64204665927183 6.212883847481008 5.815783047001229
Si 9.124483943076472 6.50468272732056 9.872610542146043
Si 7.484734528710901 4.8031458384925765 2.270224646717697
Si 9.637967524420457 4.976371644656071 8.060526287106887
Si 6.260543840980548 6.82790244996179 3.2138738974331753
Si 8.37887243811628 7.278112204688817 7.7250555217436006
Si 5.210069938195918 5.306081318747772 1.709431989612634
Si 4.060892142058989 9.94379548754951 9.261324261836776
Si 5.516378861897602 10.491260471723685 7.308860035727561
Si 6.340997552143409 10.649910657023794 9.564907434441903
Si 3.1947623136438326 10.118618776539066 7.01415317107854
