27
Energy = -125.84671201 eV
Si 9.315600939347197 10.201728679043597 7.895029820321049
Si 11.628709033215456 9.529955626190596 7.698979195757486
Si 10.117256094442942 7.614551341693326 7.722062832641208
Si 10.601638907035863 9.031716561541131 9.743896773475548
Si 8.866109708391042 6.311512047038085 4.368451162306317
Si 5.347074909880945 9.332640549952828 4.047706588436197
Si 4.991518684647387 8.45157827684015 8.047399005363381
Si 9.593673261843547 8.555206069511833 3.742756393859233
Si 6.674491042275049 5.7130652405788585 3.4202394240535123
Si 6.18155130310497 8.360643196440835 10.231624510497525
Si 3.4058409713081423 5.368789455842189 9.773876373461212
Si 7.2745151422854955 8.101698687073894 3.355769111692218
Si 8.405115203173072 8.472026522297485 9.305669169918696
Si 7.159471306375683 6.374704481916631 5.96310798892639
Si 6.957738504332614 2.837721746600949 8.188418445692049
Si 8.75821990090475 8.67232724731578 5.976894547614929
Si 6.819891474745479 6.75549263045669 8.318936312293344
Si 7.557571445937218 4.815553134754791 9.55482931724051
Si 5.125764120331052 3.987951126143179 8.942987402478563
Si 6.015263468571903 4.346821412803002 6.570057530650479
Si 5.671435944577489 6.005936443391934 10.443467007760853
Si 4.336804107804686 6.1384517445500855 7.674651075703968
Si 5.101338359951745 7.1025017788019635 4.846676683599686
Si 6.406393852471362 8.883028842530637 6.105832273876408
Si 5.431679240346843 3.613307071343373 4.347474047580649
Si 4.149193509739078 5.466032408408092 3.3606746656522968
Si 3.638627737398567 4.963715734725659 5.654540566741311
