28
Energy = -129.73052268 eV
Si 8.250108714240973 6.248591363402542 8.213915276943945
Si 9.34394645780816 5.703732588778666 5.911841738052886
Si 8.076432267824055 3.977129282098431 6.974720719436981
Si 6.827328992941834 2.0571802831042114 6.3298807603364775
Si 6.891526944667445 4.468620806964733 9.142431256473117
Si 10.449429184019285 6.926420289629729 7.855008654316193
Si 5.1371601092920764 2.0568665829885067 8.018577049088453
Si 6.584790592739746 2.0229601400406194 3.9669122570938264
Si 6.468715437117604 4.1942322388500575 4.872350855722716
Si 3.298653959978091 3.394831797321869 6.716460760848342
Si 3.6033697186782088 1.1551274705607364 6.267468783964994
Si 9.406151592472176 8.74468234892643 6.807636829649732
Si 5.795506893326366 6.678723318977094 8.038527827971025
Si 5.5013192795328845 4.4376362655366295 7.094934980398379
Si 7.314791269793527 6.962771359103062 6.017144702767763
Si 4.3363818358410295 2.6086959233413354 4.524045842817737
Si 9.253080667405753 10.796000688268705 5.932930749294202
Si 2.3759037591190433 4.993252051509236 5.162946620876313
Si 4.063055030474995 7.104935899677432 5.676749386276017
Si 5.85322224804031 6.455420924876999 4.1528207940803
Si 2.7390636242860267 3.799575447047953 3.1849536714392706
Si 7.543172489271709 9.34195599843684 5.384132573965624
Si 5.214038559140121 9.377748231063345 5.960373532003651
Si 3.797529309612859 5.871113701588302 3.082720224919238
Si 6.3821608086402 8.720385563321527 3.3351032936744676
Si 1.7407643309406406 7.0904390954792555 6.0870834284304935
Si 2.3332715154799857 7.6290396681926635 3.7609323876052088
Si 4.153357894110421 9.076367743309946 3.9384523878032254
