24
Energy = -110.28659203 eV
Si 8.993140733561411 10.685502144896766 7.192723456527447
Si 10.151188499414975 8.608339612878323 7.798625876378292
Si 7.642211741575838 9.04938201793546 8.27740477969282
Si 9.884945427258115 7.336882154837922 5.754649873850385
Si 8.409762446551845 9.100418042402191 5.229824673218714
Si 7.0472409815331805 8.124355615773721 10.360665539930801
Si 8.392770896218726 6.749368354416376 7.774036351493584
Si 7.433913372844489 5.89858556012612 11.065367428117787
Si 8.655194297536168 4.796030381566156 9.085938612636754
Si 6.090135042944108 7.772081626042232 12.440387927035498
Si 6.245212377057963 8.795538937556438 6.344033378782405
Si 10.211551184968487 5.520980233224321 4.325991646238368
Si 8.513814539043421 5.160286476870237 5.848712808991173
Si 5.537122540739732 5.455880046895019 12.38001478245336
Si 7.430966413682577 3.412985251974185 7.2318526186343
Si 5.002950136098204 6.741488149980201 10.329366675764874
Si 5.0264351544151715 10.72106156335941 5.601064420916507
Si 8.353454054563912 10.560633140517732 3.309436806983827
Si 6.208162357459406 6.420006838389818 6.462282326910878
Si 5.101453185382689 4.154472569572954 7.138499862334197
Si 7.347058090632858 11.443851019174595 5.341800100671934
Si 6.278667668840895 9.614308193406414 3.910595012859348
Si 6.3320370868813 5.465248798474137 8.722745564290486
Si 6.2616587616311685 4.506065724548517 5.047395004224554
