29
Energy = -137.92197317 eV
Si 6.500254552082893 2.901190969874457 7.842991890539551
Si 4.316557650311456 3.7791863994850097 4.46468309417866
Si 8.763730230277362 9.898420856236124 5.053971491061209
Si 1.8262676607371102 6.48090631056965 6.500759649797365
Si 8.619847199792385 6.095122511101998 3.626027029193855
Si 4.36360181089073 6.122915913784695 9.854135666041053
Si 9.780030128908377 4.5082916824654955 6.524803608658088
Si 4.235867748668655 9.898109884660183 5.053973230097531
Si 3.4032563986759023 7.282914591678083 8.044158381123435
Si 8.636426609143014 6.1232441161011995 9.85418117528007
Si 8.683869754009438 3.7795385664497094 4.464762754349101
Si 11.173742830059089 6.48153707089912 6.500860794391652
Si 4.824359100842208 4.519201719066988 8.206217798104552
Si 8.424702849709218 9.144016862333466 7.295343016979077
Si 4.38030210566674 6.094847475393167 3.625970995238987
Si 6.49977114516061 9.343532353263766 8.773809462788936
Si 3.2202830618501173 4.507857641823615 6.524705015813412
Si 9.535620570074453 7.627814014581778 5.215810532098635
Si 6.499868337752033 9.010757772481222 4.952274284105096
Si 4.574806716141848 9.143810133204449 7.295415096596635
Si 6.499917072018553 6.964058428290956 3.8186755233412097
Si 6.499960627600677 6.966985456158731 9.301737268252962
Si 8.175872550584039 4.519472262041426 8.206273574884362
Si 3.4642602103665734 7.627398942858055 5.215755939727091
Si 9.596582491231246 7.28336932824765 8.044201532364966
Si 6.500239231458026 3.4918149098070423 5.505663272837997
Si 7.735145240761625 5.6722993490600535 5.868037051194928
Si 6.499810180215768 7.559312960353815 6.996862658637113
Si 5.2650459350087235 5.672071517727606 5.86793821232166
