28
Energy = -130.62701163 eV
Si 9.809050013928422 5.3567422344796745 7.254012976224315
Si 8.69227439100299 7.126145904123147 6.113247968088897
Si 8.29547603704646 8.974642316834396 7.830411380363899
Si 8.347074416169907 4.246632703887912 5.699791391893391
Si 7.676434719810248 2.16411229964122 6.778763282961169
Si 7.530573359097688 5.012540365548221 7.930524812788077
Si 6.125897443226921 3.1606736537045172 8.563443295955752
Si 9.000737057959775 9.449230496817954 5.3965557461322655
Si 7.837283399192416 5.812230326318819 3.96557391512266
Si 6.633591877816938 9.592141163506287 6.1629514270164805
Si 9.164023708507868 7.825170203712381 3.6044776450517824
Si 5.449919905464367 2.279705546438957 6.121878598967226
Si 6.310602505066847 5.926235449019209 5.825092826252378
Si 4.789357712372832 4.420648897246385 6.960039220164636
Si 7.08695878469981 9.287656662640499 3.7349906839447073
Si 3.2042379864121506 1.7100106018696068 5.422490608230245
Si 6.49934285650564 7.297009662418237 7.8076800591201465
Si 2.360822061169762 3.5113003541949075 6.919262815065522
Si 5.634614900448386 5.3443736301656175 3.078307856380755
Si 5.348864341444961 7.7001288214324655 4.238180598147043
Si 3.0753451324265715 6.030902377092507 6.716259920135787
Si 4.499317007511593 3.754241940542706 4.462594964063307
Si 4.61725341762891 8.404746505481516 6.365761593373853
Si 3.9610610115242797 6.945062924621146 2.463369294889497
Si 4.070676132536532 7.460790403340149 8.439018214018445
Si 0.9083516212989025 5.176515866807805 5.941752288273371
Si 1.9077319098487124 3.615376210005377 4.345746530527649
Si 3.030402092869302 5.7546258957488705 4.373642761752683
