24
Energy = -110.2452181 eV
Si 11.522794290618597 7.968140891865991 5.272729811115479
Si 9.898342816276282 6.42834793195289 4.229056835813922
Si 10.699557943587548 5.9588038428176855 6.375234406913343
Si 4.05506289460117 7.373789883654968 9.842432153095759
Si 6.177399727789377 8.605885707955913 10.136443283044532
Si 9.349971825222005 8.171924110768215 6.093056801559773
Si 7.539373343332619 6.786738439151444 9.52298432306546
Si 8.743540808422335 6.3465930830632935 7.531994270507554
Si 7.7772667885265285 7.467046971501679 4.332202564795183
Si 6.374173620852327 9.604036315699181 4.33710500590457
Si 5.629586593547684 7.531198472862445 8.046864383542392
Si 5.4965398329503525 5.513990052102125 9.460513312193951
Si 6.6291558241279915 5.371642440746471 7.048972598380787
Si 5.550161151591066 7.75377706874807 5.668715329235269
Si 6.6342937105434485 8.02675938799571 2.3115864984082326
Si 4.49430710386159 8.681401318375604 3.1513739576903634
Si 5.721559111299572 3.3628119353934776 7.960405913097294
Si 3.298138347023335 4.333360583240672 8.22098703837885
Si 4.004989271937517 2.371940348840409 6.466155478029025
Si 4.9844663516558425 6.17571894130538 2.540564763863697
Si 6.215660447623411 5.515415443320646 4.634715270815867
Si 3.8376528714276703 6.515862124262082 4.663461827331383
Si 4.232226806986332 4.648013666992457 6.105515718599174
Si 3.8814576178107303 2.141143641006603 8.871958424180155
