25
Energy = -115.3901694 eV
Si 8.87674228154097 7.042069481918661 3.3234239975392397
Si 7.088899917908569 5.60522912293677 2.372960403575411
Si 6.669902073212477 8.085901655317365 2.801516755381889
Si 2.921486836527104 7.250152245834582 3.8272282412134513
Si 5.237375002990174 6.487208750043706 3.834759122322166
Si 5.419918704380457 3.983962786386995 3.124571702655646
Si 6.3074869794301724 5.627504815718879 5.971245964381302
Si 8.637926010718544 5.341498336729053 5.003261928032525
Si 3.009206822833427 7.579573505357622 6.250941313316673
Si 7.345288639391189 7.6905937235984005 5.155267705903651
Si 3.4455435066516893 4.949347536918316 4.3794565266883785
Si 9.715842441789507 5.786247474727273 7.119307203497652
Si 7.086877851580153 3.5185148492499563 4.914889283287212
Si 6.115757585059086 3.473912546319865 7.299566774842703
Si 4.048897211029626 5.405547679427307 6.707184962718284
Si 7.014067447937835 9.244122096238124 6.869171769758905
Si 5.15551776913385 7.778392877311613 7.1807128220203325
Si 4.224758813345377 4.263135754890603 8.768730245793686
Si 8.330919732475774 7.759128498645989 8.242954674408498
Si 10.50249466868915 7.948927721615944 7.432156494366747
Si 6.586369980990529 4.1036689120265635 9.698791597748917
Si 7.595653728768057 5.396927391414362 7.972175462540758
Si 3.051537962426255 8.380637729945743 8.50163154171965
Si 4.672785232368011 6.676489641862743 9.215508181771717
Si 6.931861526743804 6.614423593485011 10.025704052435875
