26
Energy = -120.97795933 eV
Si 6.216863524862421 5.007178115556483 4.1477495006083585
Si 5.281285578906607 3.666851353354177 2.376959602103934
Si 7.3441670424696115 2.903700719359006 3.3451255446925434
Si 9.807405584845842 3.329955560839443 3.2871317546731387
Si 9.717927214192452 3.705585412096617 5.770578198358948
Si 4.026804294578667 3.878742016575138 4.442079964035541
Si 7.426347234284915 3.162449684584617 5.64227851578247
Si 8.71183472544332 5.269816984196944 3.9848117438444777
Si 2.7947729934269883 5.949586334810347 4.603708240524171
Si 8.781870715599247 5.880163317019675 6.323127361654792
Si 2.1035284618357184 8.269574226377065 5.028478116496134
Si 0.6877534623442136 6.189283773401997 5.676347409936741
Si 9.463587669317622 7.788255403719443 7.568293986235204
Si 6.155214672996153 6.946531446585971 5.515827055282158
Si 9.381248464118835 10.066470132664177 6.695075625264645
Si 3.3986169702600084 3.0527558832300454 6.719227800481914
Si 1.6515521528673933 7.544093518570183 7.437394199269436
Si 3.980265462269601 7.400147529019391 6.332582358226196
Si 5.550110758342669 3.9853178923748187 6.716464919809677
Si 7.907923003322053 7.1163962667606375 9.426659324360458
Si 2.74375131800866 5.396555761122454 6.875970813584025
Si 6.7676498805692455 5.840711879031064 7.588283071225288
Si 7.569213083223706 8.724333214211217 6.057685563728443
Si 5.737794373872467 8.077086947842405 8.032231804766182
Si 7.727367464704004 9.519705328988008 8.388789361737015
Si 6.393559830132307 8.886362606256563 10.176672542335666
