27
Energy = -125.84391751 eV
Si 9.989960717406127 5.972592690219899 4.8767498390443
Si 7.604218919136862 5.637388733895305 5.06535755068585
Si 8.538171761415143 7.524980585352277 3.6258306091949972
Si 9.169826161313201 5.924068989600436 9.239153115355897
Si 9.994552089722852 8.360205001954327 5.511307404141602
Si 8.902298909894975 6.6006676619566775 6.992208840292262
Si 7.469158593690065 3.1811357715502138 5.5433647800982415
Si 6.831005276627608 6.420077067518784 9.343241477336434
Si 5.848804547895721 4.663792614009725 3.7679381426936347
Si 7.95165347330238 9.747548144440414 4.782467867176096
Si 6.4614156283852395 2.276479480571383 3.55542986164101
Si 8.661338345968444 8.261642838333412 9.397077020844206
Si 6.458304802012536 8.470174925860478 10.548117835776527
Si 6.211788605997233 8.048424977424565 4.614277146236172
Si 8.269535014957409 9.063092085517336 7.141574315798197
Si 4.71426879003361 6.817991997342234 3.1455879672560516
Si 5.1893144294242495 5.025335763262728 8.22426376950937
Si 6.065158832714622 2.91986796307815 7.441921244986271
Si 6.126544236951398 8.77348559169802 8.254522604023364
Si 4.6345386889081635 5.119707067890523 5.849803598769025
Si 4.984798206322094 2.75338464958971 5.344594726658197
Si 6.260878346443062 6.868786577462902 6.7782060123658985
Si 3.3821077107841733 7.110879142665276 5.120564431024843
Si 4.581283624610843 8.983861980023487 6.400488882719555
Si 2.9811329463567566 5.691783681601808 8.731963745634738
Si 2.8909386997087605 7.695479155337349 7.494553674640231
Si 2.302834467256425 5.387668062229977 6.368532197282281
