20
Energy = -91.89396406 eV
Si 5.31492109613487 5.066165421013626 3.6783030171592515
Si 7.056835711688394 9.290361854434241 4.639254888430738
Si 6.472453521536769 3.1194110160544297 3.3373738339534547
Si 5.945771626334766 7.345794620994452 3.5384958745270674
Si 4.0024014705298265 3.045040525407961 3.6845371210047717
Si 8.151458497075916 6.624445453862775 4.400256311033092
Si 7.481460352843205 4.2682293377399345 5.237240914349762
Si 4.629288175704392 8.572977669341133 5.317430760305323
Si 7.723512871538795 6.421065835654868 6.866335028060709
Si 3.755921540556292 4.493650745915015 5.512963595338706
Si 2.9167832410143215 6.718533983238556 6.124146627816904
Si 7.3949594330282515 2.7641029618131405 7.025781379218517
Si 5.449443672097388 6.323846911284209 5.8711755829837875
Si 8.032810932061656 4.727047004807038 8.50627127047673
Si 6.42503700861094 8.469145748576196 7.038724854151358
Si 8.820760133636897 8.366094591393356 5.998517813211234
Si 5.595368294736103 4.259195713594141 7.2183685730360025
Si 5.395172855742389 8.158549770504989 9.211795839290515
Si 3.916173425173789 6.602526107431238 8.250490291766374
Si 6.043939064215592 5.888287651199793 9.067009348146359
