23
Energy = -106.10479279 eV
Si 9.456625818978557 7.8709562306074545 6.59248675421029
Si 8.666833687574515 10.251268103862092 6.592500831253449
Si 7.8790343145282336 8.853607125419042 4.703128418207407
Si 8.94087110512538 6.592496832409918 4.502979477542218
Si 7.879042232864983 8.853612404310063 8.481884681897071
Si 9.456609107183214 5.314025481313288 6.5924981918078664
Si 5.373331104033184 8.742039057836413 8.695456523292286
Si 6.575033818291851 6.5925121732046605 7.787794592703447
Si 6.2731207904808945 9.719610174169764 6.592516667927097
Si 8.940897499581359 6.592512669083277 8.68195795845529
Si 8.666874724080406 2.933724864869092 6.592507869774958
Si 7.879086037989669 4.33137226399361 8.48188580292925
Si 4.073281245132275 6.592522186172539 8.515434737871795
Si 4.073290043284124 6.592515147650886 4.669545809070151
Si 4.073795845540754 4.724591599015738 6.592517547742048
Si 5.37335683292647 4.443045764879307 8.695528881225789
Si 6.273136026489021 3.4654279094217837 6.592560658686771
Si 5.3733443012611035 8.742032899129857 4.489543379584127
Si 4.07377664232533 8.460424601743869 6.592488513840632
Si 2.4838908986839954 6.592540249691428 6.592483234949466
Si 6.5750531742261735 6.592536808030153 5.397264257791333
Si 5.373384987012935 4.443046644694551 4.489624989310141
Si 7.879047326121164 4.331366105287345 4.703180965902284
