25
Energy = -116.06689415 eV
Si 4.738941492998428 5.518086121321417 2.7581914290629057
Si 8.568321405870002 7.300514317484983 3.936829776391776
Si 6.682288668038386 4.292044181992715 3.444390973030189
Si 2.2218893361564853 7.069715593933844 5.809690608097659
Si 8.991156951106136 5.099045398401078 3.0371367868593935
Si 5.9376969808687585 5.964669138745619 5.008878153905088
Si 4.908091522460055 9.714298638512716 4.544052903377548
Si 4.181475946164514 7.552855619059334 4.15773607473295
Si 3.442756605597756 5.163938943530827 4.761455019981833
Si 9.037855197848168 5.326312611614173 5.380791434196644
Si 7.0964902549320215 4.377494768782691 6.3431292246610695
Si 6.691646373937926 8.245756221307493 5.059898304556324
Si 6.226581103324812 2.5041635112506966 5.120854538541827
Si 9.516091029596083 7.634865548482882 6.245590376701994
Si 4.580757940781369 3.8385326383950913 6.305758871615482
Si 9.730205736217135 5.510263359213932 7.6599366906118815
Si 7.65740153855805 9.106353586414254 7.198473971348629
Si 3.6205435030878776 6.081479252050686 7.425559367689492
Si 7.076947997832083 5.353255803678632 8.508242043197017
Si 5.919928962936127 7.505911253921223 7.655767082099254
Si 3.8637006325297905 4.004696046787121 8.55436458805141
Si 4.051414163171034 8.616112469320731 6.57152805527696
Si 8.523627881371159 7.3364199301814566 8.634194274445749
Si 5.6916826175017645 4.279254037109357 10.15132536369101
Si 4.822147458142836 6.3836023095360535 9.505865388904626
