21
Energy = -97.00296687 eV
Si 8.62210113320497 7.529030291759897 10.487336484491077
Si 8.998476786510295 9.626528947454373 9.01998197804238
Si 10.450788202521286 6.045963383035563 10.495273901381998
Si 10.335163642239854 7.543537314652948 8.572855947414503
Si 6.721241496429463 8.843203629003845 9.879423148145417
Si 8.787870353027092 5.38108146316064 8.882871985112759
Si 8.82850942291632 6.6646736211273625 6.8052272030021275
Si 6.864998335697924 6.774193866583701 8.712768561249023
Si 7.582913475003605 8.62058580900632 7.3580882431856764
Si 6.99415503494893 5.654160809295042 5.4639710287462915
Si 5.811771425673738 7.939626552320162 5.809420010865898
Si 5.2378225216128875 5.98545171479935 7.2362111039130195
Si 6.196909630517909 3.7921819203927876 4.169837179853497
Si 3.2447451254436923 4.717082881439938 7.069475179137451
Si 5.392001482663483 3.6309675229707343 6.436388857983496
Si 7.0499424411391605 7.684205630605619 3.7328245586296105
Si 5.061570779082986 5.94282150486353 3.631202297743534
Si 3.4750267264891743 6.790621642455448 5.545669673410025
Si 3.6184330831749487 4.298289758867146 4.665890747286312
Si 4.482902327431915 8.529592670267505 3.8497580387979404
Si 5.533116238360916 7.391133091021209 1.9091463908296613
