22
Energy = -102.24922381 eV
Si 4.289890276644665 3.0404487220950127 6.415671344616909
Si 3.306034462942325 5.409347219047178 6.659418232984792
Si 7.095885736706958 3.8698059833714935 5.902014340955545
Si 5.314027288751168 2.9415154125312766 4.023881726069819
Si 4.880123185222497 10.221682075979393 3.9077961022069463
Si 6.174326372178994 1.6656800922160577 5.946600361598414
Si 1.9473406887758238 3.4517025105201484 6.318752890019565
Si 4.93141490478646 8.509633384789142 5.577066970281032
Si 5.571535283766106 6.807835590168852 1.887830178053164
Si 7.692424175621617 5.242583375696972 8.39865752269965
Si 6.668309786595509 7.544233963229174 7.421110071515641
Si 6.259914205386065 5.093108665832991 3.5931852621626135
Si 8.595167254273582 5.376871644569572 4.340688148413031
Si 9.292205708785303 4.5018511955644085 6.639459239947774
Si 8.893854272392835 6.856535587026103 6.421620394012998
Si 6.50728346047071 8.55402910221756 3.1789146399671186
Si 3.250796197247102 4.1327049352305725 4.36850834883339
Si 4.364894771935559 6.287780125731162 4.565645433055032
Si 5.670556435579486 5.336508276105848 7.077335059972386
Si 6.816490197510357 7.010297309978613 5.025914293084976
Si 4.129839678655885 7.446906142990881 7.665905175357825
Si 3.9633010879051325 8.13474971057292 3.0644410510687354
