29
Energy = -134.46600599 eV
Si 4.415255090576166 2.55414608224448 8.645438894342286
Si 6.790584570186001 2.0889925429659173 4.987220166372303
Si 5.606701652324241 4.581038589171583 8.44970356169779
Si 4.280289201220802 9.816437369641536 4.004109720867039
Si 7.751174404468485 5.887853090385465 3.1103385967158275
Si 6.413923078276892 3.827818088719716 3.191252875313143
Si 2.2772126989362014 8.39780554699655 4.0965813359385574
Si 2.9931018670409815 2.816227510173037 6.377640108798004
Si 4.258093186455307 1.4798153605049156 4.4492671250841225
Si 4.206891756702659 8.272140282400214 2.215830859531045
Si 6.194161723900263 4.267859389593991 6.20299108232393
Si 5.520617753446485 2.8782831911516826 1.1292326028105262
Si 6.81155881067911 1.4454620427071303 2.5809863407970965
Si 2.2078661289550263 4.704032623904522 4.678682300632155
Si 1.249848474695687 2.588848208564216 4.008640541889621
Si 4.724491823380307 7.524182311219033 4.535692021888684
Si 4.47685233125369 3.919625362168984 4.615615462028366
Si 8.261977560941974 4.136591161741046 4.930706011074344
Si 2.1155404945654634 0.8669381416909576 5.499400645380113
Si 6.7352946037975325 6.378816685302596 5.314576855581042
Si 3.830074871250292 4.7234605648550865 1.1404213259947829
Si 6.324301371361872 6.871546554124243 7.879971222798223
Si 3.022262624291114 4.368053274487695 8.183501623532207
Si 2.8078982558923546 6.301993499156488 2.9115293336918544
Si 3.2761507071615235 2.8632353575088603 2.6370854635183285
Si 2.7488602526559993 6.738741278977531 5.768104379120409
Si 5.343439595584266 6.198129986469719 2.3561835520604983
Si 4.528968536602266 0.7629971242281117 2.080465618734932
Si 3.9722286785075758 6.532362046837655 7.719736300617509
