22
Energy = -101.54653665 eV
Si 7.804074789253849 2.1483663211398407 6.16635530750759
Si 5.725822270561322 1.293941740836265 7.038714001028444
Si 8.13118017675507 4.257964003816997 7.058946793668196
Si 6.653103673504817 2.98079657505681 8.559651895048006
Si 5.821063327600145 3.509704884096422 6.182897463760627
Si 8.772115736480135 7.994268852402834 6.054305926740808
Si 6.857295977408441 6.664327940713424 7.836453483512117
Si 5.250495455604562 5.025028148969326 8.222901031021422
Si 5.464205407323779 5.875767670042674 5.762592453211619
Si 9.19894441362521 6.4568045961169975 7.92814887431906
Si 7.856497985506594 5.963016213857708 5.340430830548183
Si 9.868700743601385 10.062695959633931 5.681887123680889
Si 3.2692519146525085 8.356043711301394 7.837331979541219
Si 3.374380342370656 6.086890888541364 6.9653326110200116
Si 10.859282510613932 10.749253315375473 7.766114739179577
Si 9.298051269910031 9.006854469744079 8.340359230682498
Si 5.611034570827298 8.644400044577402 8.209788988988095
Si 4.60298032694041 8.306832748138367 5.886238838992914
Si 8.528072443048881 11.38327841630982 7.4283095083320365
Si 7.859467327856981 11.30712756971801 5.155474132775423
Si 7.332033733205971 10.110372254372395 9.104550902291836
Si 6.914803785908856 9.45361637638904 6.337198965146362
