28
Energy = -130.80996615 eV
Si 10.262617153591718 5.6481056574519295 7.588014570418052
Si 10.456473850324537 5.991493472635825 10.033637300277578
Si 10.655805445379626 8.149339081270087 7.639837845593654
Si 9.57513245511067 3.5373531417564466 6.593716913323533
Si 8.133474656203282 5.566420407667442 9.854152141634938
Si 8.733601701882217 7.360832843944107 6.618847998076233
Si 9.229407845584056 8.010595358887675 9.623758525009878
Si 8.513693095356933 6.647839489719665 4.354669156526744
Si 6.4984770803863645 8.220084313989 6.770112818650053
Si 8.444721806879027 4.370209807954764 4.591109241021889
Si 7.916468099619613 4.955467151680334 7.622502332833397
Si 7.334481003889307 9.474787162330697 8.742810682730479
Si 7.063103305335335 7.582692598656288 10.428649683178516
Si 7.395656185461767 7.878208065388165 2.6879645831155576
Si 6.797197733672469 3.5966861753692734 3.0119773626051605
Si 6.113262094946998 5.809401940643594 2.612695167143525
Si 4.603293058740018 8.924933375585518 8.062936012153973
Si 6.602608378405681 5.629190045496128 5.813199180427117
Si 5.83713642688556 7.99321211368774 4.458531983951678
Si 5.009873547700212 6.43318368098373 7.6897132733881985
Si 5.167360350512764 4.304609675908571 4.59845864442173
Si 5.442298722356436 9.330286564657468 10.30876716177464
Si 3.522527152871276 8.313106993443377 4.2663064850326355
Si 3.8942670803460295 6.171911899286678 3.3093630778779417
Si 4.279976845578962 6.976457782772568 9.873221120191646
Si 3.275968406400456 6.625623362299783 5.948710312436911
Si 2.8174631728674133 4.582143389777887 4.734893390222363
Si 2.672679910165258 7.610705095911823 8.081689171836032
