20
Energy = -93.64361745 eV
Si 8.306459450990818 7.028784361590747 2.8233552181700765
Si 6.4256951163248255 5.649329505093695 2.143136818000987
Si 6.105429316988395 8.059848724110784 3.261317137518774
Si 7.919242180531981 4.341341745498402 3.5481028018953067
Si 9.351041939484283 5.952719837395066 4.785716867870141
Si 4.265866879460949 6.231546015761716 3.05437142169441
Si 7.5274179449924725 7.610094298262642 5.189104292537004
Si 5.545098184504039 4.300737190637893 4.242147225307814
Si 5.322394227646935 6.6180132989857325 5.211359450859749
Si 7.1704019080425 5.207192498485084 5.824740693581358
Si 7.960196401987369 9.143522669462113 7.035283089059074
Si 5.168204926549929 6.828612807655974 7.566467218047443
Si 6.607178219923055 4.941665677559807 8.20820966085101
Si 4.231537583810502 5.083528520303648 8.821858163155566
Si 7.632306450320575 7.2047912293852265 8.336901854567623
Si 5.877303461104036 8.909618880343144 8.557366933166914
Si 4.205305523429397 7.477756312311135 9.796100931487493
Si 7.998470703142748 5.688557030708457 10.133119441656964
Si 5.557837685469944 5.821835158147103 10.910254222114645
Si 6.830581738128387 7.90847408113538 10.559056401291091
