21
Energy = -97.49578298 eV
Si 4.816971745946427 10.24877198767548 4.055686642945577
Si 6.481396765679403 9.096014411406493 2.7838196343607358
Si 6.94355025446307 9.491946120061616 5.123817962592196
Si 5.106629150522051 7.738846285904019 4.173728968927493
Si 4.412035193180133 8.876491008839212 6.173890741924994
Si 3.5033745936798715 5.544973825833728 6.712926243107197
Si 5.22302507209051 5.550630440568419 5.124957159596772
Si 3.007468268445655 7.697332266486838 7.628910587317634
Si 5.388303923510125 11.050000591628313 6.203746304150741
Si 4.358415755884931 4.324921034250702 8.550512884001547
Si 6.651060103984007 7.236468706761967 6.271245924613705
Si 4.9758592037878095 6.663451579199853 8.400729836110278
Si 6.350075831989782 3.6327246479264854 4.296917609026956
Si 6.016424948907389 3.6738586781623344 6.976229528140683
Si 7.842980162316833 5.237115890235051 5.671351467047255
Si 7.296919834458113 7.128461388459491 8.552222463022474
Si 8.585057602216558 2.8876861810416736 4.866875938326995
Si 7.866337445269183 4.777101065548087 8.058384365235973
Si 6.5243439044649 1.6822481074656646 5.839880503608757
Si 9.830711250980904 4.351340376166285 6.573279737097094
Si 8.355969058103296 2.481681142307835 7.451555039995266
