28
Energy = -129.87899763 eV
Si 8.701448059852865 9.71745239987052 5.343131609710041
Si 10.759323640173573 9.688377737204377 6.3855337886705446
Si 6.287921043246018 9.887414332286454 5.904521980368033
Si 9.474334864631155 8.875130093338653 8.266991827865672
Si 7.07365989520437 9.25508227758071 3.727338089380585
Si 9.735917537770039 7.476901256332235 6.247351447267417
Si 5.162410354990082 9.414653124797141 9.279425387579902
Si 7.12601600330248 9.012673857646854 7.996172062966041
Si 4.352516375088425 9.117796287910581 7.065913286421927
Si 9.911702353656406 6.622663191617638 8.701783940131278
Si 10.870557640342993 5.4426224504391145 6.773802185162056
Si 7.509477847873412 7.356249787958825 5.175108540084851
Si 4.5692742881885495 7.352035452292971 10.409602587063286
Si 8.571345308012924 4.866430094807844 6.479274569213928
Si 6.880060769505334 7.8388587335635735 10.964913169982891
Si 5.595523843663132 6.349009375166966 3.470799420899132
Si 7.828494960491106 5.103322121748114 4.056554794938824
Si 2.8706684637213877 7.335782520275941 6.350014143257512
Si 5.39501832563521 6.78145992561988 6.153331232564251
Si 8.258231549129476 5.896158034500704 10.268515450345449
Si 6.514059740113255 6.893535828010107 8.753374031593365
Si 4.045039543423928 6.43626782496177 8.257772917168943
Si 3.91091200378895 5.296018093135757 4.9060193800308145
Si 5.753338788695036 3.9097917964603006 3.6392984272399365
Si 7.1357338381601805 3.1338541711144177 5.487478509554378
Si 5.2690023592523145 4.598410454454255 7.295790228166177
Si 7.361872460782995 4.627143194237561 8.443542791578613
Si 4.689539329435481 2.9212340548362943 5.736345294009227
