29
Energy = -135.95162465 eV
Si 3.6434904212815846 4.786144799542507 3.274109628640392
Si 6.70638387618292 5.34642821565522 4.726319248262771
Si 3.5116850445468244 6.8983021512794425 6.755918519995306
Si 6.134529758856877 4.08340350779964 0.7867849803120949
Si 3.4814851115983148 7.862315470770238 0.8126561118339031
Si 8.361717939610118 4.561338240470307 6.3013549696370985
Si 2.45693827488822 2.705876947139195 3.1764006918138072
Si 3.1355531415010147 5.839331272344212 8.955258830723787
Si 5.543008190517349 6.263370000537949 7.923299945767219
Si 5.149957313921987 2.877550815217576 2.7044743932354964
Si 5.977682939894302 7.591476224063707 4.339141540132123
Si 3.9008776435208032 1.7253469578790033 5.064205299017704
Si 4.742329438430433 4.814402376557144 6.046185736315373
Si 3.021664699617576 1.4162025702042949 7.28358147122708
Si 5.9465496455127145 2.981455208679138 4.97020803773245
Si 3.850989467186241 0.8237763455960778 2.820986683414184
Si 7.7324728669554625 7.954764885465436 2.6658019693558073
Si 5.141135867024142 4.397590919554565 9.661520148071999
Si 2.458787874204419 5.1933386044149605 5.381221835965966
Si 1.6967881734659969 2.797686435073147 5.5631261630017095
Si 6.912413572628272 5.671036272408218 2.363603474419479
Si 4.40647773132673 5.679198984046643 1.1411349654668113
Si 5.105611050758198 2.8802903596617435 7.730555010416493
Si 7.203935099173087 4.513747298656692 8.343635979312921
Si 3.552076898076436 7.283525443605302 3.1723795878081495
Si 2.9195388583095547 3.8731939743030903 7.499180403961796
Si 4.017372108520096 8.61689134104116 5.128653914017085
Si 5.590557765335935 7.899477074180819 1.7984472070468485
Si 7.319079503731182 2.3587133420810784 6.880013493423411
