24
Energy = -111.55980974 eV
Si 4.347754436863147 2.8901953843432193 3.8547844320370155
Si 6.700129028414306 3.214120739429267 5.614477068674773
Si 8.208644035166316 4.354474670231879 7.191104383473296
Si 7.434064292142382 4.4498127429947045 3.7464207036199446
Si 1.9915216175210015 5.029940571961861 2.7598222587163717
Si 4.523096844261577 6.194197098177957 8.466013930805318
Si 4.1721217821581025 2.6172494573624276 6.438460742440719
Si 6.794977643017743 6.252089345407129 7.470141654432315
Si 2.3644431934565966 2.3557330211481515 2.5490442758811227
Si 5.520241918565262 1.2050418258195097 5.093597976923704
Si 1.9200008103984352 3.4159930721920815 6.9771914262619665
Si 1.9795413737941627 3.396276820307477 4.598263293794536
Si 7.21813217915656 6.998174704201597 3.782408087322639
Si 9.281499150902947 7.983916711166254 4.566765509448673
Si 3.3978976069479447 4.047104367277218 1.108566194293822
Si 2.875128910512788 5.684951762766043 6.6251014366776735
Si 7.442125304917595 8.15075550623744 6.09040586539615
Si 5.3236266326070565 4.723636918736169 2.5343208451766626
Si 4.938874095584975 7.098074710087178 2.935596224084509
Si 5.15115360974133 4.857229702095568 6.44242014147379
Si 5.2981882591486285 7.279140171979857 5.493425998626471
Si 3.845024453179028 5.436232294644681 4.4029707100444275
Si 8.680353364093362 5.80622975299136 5.355968691124066
Si 3.5634506267428034 7.965023749174528 7.045362885335243
