20
Energy = -93.94012232 eV
Si 8.274986168906723 7.134886205684433 2.3975431636757154
Si 6.003089377836446 7.000399812236321 3.0775451256329243
Si 7.48351150523947 5.030620699599555 3.4198814112580598
Si 8.077642531145646 7.541989659907122 4.713808153486996
Si 5.105447538905426 4.807283388295426 2.981102824951872
Si 8.000304410935238 4.863644116586705 5.823425423749505
Si 5.687652635452899 8.299482631211852 5.059441775876638
Si 7.385783161293227 9.740402008792989 5.732725124809911
Si 5.499821159272746 4.73962775223619 5.304321408417199
Si 5.176992074223604 6.650488774710315 6.73744256104884
Si 6.587319978428392 3.170589394497143 6.71775319747205
Si 3.668255502485165 5.835010110219555 8.36770109457786
Si 9.4757712142606 6.554360054458408 6.45204533215419
Si 5.936791235952376 4.862119669023611 8.35813482816208
Si 4.338347364254285 8.2232744146643 8.859258061712119
Si 6.385880620626126 8.692719744718486 7.642417504020173
Si 7.625452532782651 6.679364817710986 7.9114717382868465
Si 5.009267800713477 6.429735023862342 10.4241427163053
Si 6.807389123440355 8.062240641938848 9.961164068992984
Si 7.470294063844998 5.681761079644812 10.05867448540859
