20
Energy = -93.8205386 eV
Si 4.691807573095463 7.304889813142332 2.4962480850561994
Si 8.712141726395558 6.285859626149204 2.0457791395313394
Si 7.140809552990808 7.891460792035926 2.8433776145460077
Si 6.524996127771141 5.554743031691278 2.641858194390878
Si 5.419799847478464 9.237315871321531 3.937500179087815
Si 4.330845937239216 5.067461799398989 3.593042250924707
Si 4.263573559458097 7.210198192584995 4.9874129624588095
Si 8.242962926913494 6.209186538542514 4.5036592516135485
Si 6.6796416886746295 7.810361130475161 5.409095370537465
Si 6.0602997428449905 5.448972389548969 5.218159780632314
Si 6.303829644312326 5.177405658120708 7.591851739756055
Si 8.611362823006816 5.787174227105226 7.980654801103875
Si 6.951173851428458 7.535558744503507 7.774992483062346
Si 4.656527162220121 6.835523938652689 8.558942622043359
Si 4.933860330271473 4.449350812340501 9.425626807111383
Si 7.290558470151117 4.749444884325109 9.988679745577187
Si 9.579527762358882 5.350125510116285 10.248115170941364
Si 6.075946262009069 8.60610123702833 9.738382927751632
Si 7.940189547214767 7.0799063977738514 10.145718476814855
Si 5.590145464166159 6.408959405143638 10.87090239706021
