21
Energy = -98.3240987 eV
Si 8.813471886510545 7.301718864468576 6.709823183964807
Si 6.437683529998878 8.08003460577145 8.554248066147252
Si 7.289224422683901 3.7114566396144357 4.4081558102543035
Si 6.774733411546084 9.736038245835855 4.158275387017738
Si 4.640232652583481 2.7540464872549104 6.758806195966157
Si 9.136678711768775 9.318572218756907 5.2279447595516775
Si 6.12860766907549 7.4317282997841465 4.34993417043467
Si 3.3925210664196257 6.702769476629434 8.350445341638904
Si 6.903918889346349 8.789671979619998 6.329148702816322
Si 5.215005458494973 6.596965082439115 6.762640597535536
Si 5.2175285379875485 5.5430328130857145 9.958147520038299
Si 8.585150861640571 7.101476644017987 9.03248155659015
Si 6.959189913530651 5.587945017765644 8.224854427092751
Si 4.016168614276887 6.49518286591573 4.693282880818002
Si 4.061814304321535 4.50422739887573 8.218518363658395
Si 5.053608666796004 4.377513568636102 5.084772869164232
Si 10.131873279053108 6.964985604637366 4.753325616179653
Si 4.578701096978719 7.861651703217141 10.106242744979323
Si 7.9643563582382235 5.925288043006872 4.831212159785661
Si 8.366828866221997 7.958296412805461 3.2513192827189705
Si 6.832701802525182 3.757398027859097 6.73642036364587
