21
Energy = -96.88511502 eV
Si 6.235421226912474 3.471921280350258 5.383582548270235
Si 7.916759692692132 4.319830383370182 7.172023213009822
Si 8.386973308281611 2.4525711406771302 5.728966406188806
Si 4.288747954294437 4.622746329458914 4.797129271903873
Si 5.7844395813517036 5.51258242345073 6.8426114799227005
Si 6.246657265200908 5.3031050955379975 3.59459207066561
Si 7.638790043946778 3.391649389762683 3.293967200529536
Si 4.237624322171836 5.811024939377485 8.572167669678949
Si 3.6194450940515908 6.472078440051306 6.219904906783551
Si 9.052698261161476 4.637360485161726 4.849984308477624
Si 5.6434246210519285 7.730872856894542 8.949268460677127
Si 5.421849795319464 7.786655271776291 5.436999979228018
Si 6.973375354984512 7.612741006499907 3.6716350937856665
Si 7.72492955362178 7.688335102543848 10.220197990909313
Si 7.707956497675354 6.564525858149175 5.702732300662535
Si 5.950080815393558 9.478862067405686 7.066414478211822
Si 7.81736528823075 7.924792234447014 7.681922094368432
Si 4.803660926922919 9.935167111590998 9.093480842588276
Si 8.218761929715152 10.353128043962904 7.29750984672542
Si 9.38423102676821 9.06092277367905 9.089847714752379
Si 7.219732253619615 10.114394452209197 9.619348079866118
