27
Energy = -125.41139739 eV
Si 6.6376324279455 8.567993537597 2.857003185464127
Si 8.546952462027562 7.509366913849199 4.169248244573885
Si 6.636316914981997 6.187774159287937 3.28020263204111
Si 5.985450469835952 10.134427874646246 4.626807463792708
Si 7.467372612245208 8.810889509309897 6.059643655608075
Si 3.5551640796040678 9.704920294675663 5.2817268208705626
Si 5.407619989854502 7.835813715162391 4.926389316102442
Si 9.413922497275703 5.5969022172815075 5.357904916855428
Si 3.850059085825105 9.150570897944808 7.645949946886014
Si 7.103448206257783 6.32027598920682 5.894295810018134
Si 5.675312087507564 4.564938716287144 4.836541186309877
Si 10.831308800833888 6.279841030626942 7.201005404764172
Si 3.317070207263969 7.340378066299352 5.859015121925119
Si 9.1269481552552 3.271107631457359 5.119131932158321
Si 3.2857868022793433 5.027439719891556 4.984613991625487
Si 8.50508969182659 6.681680414963225 7.840941765212825
Si 9.682182216968794 4.002387600577411 7.2632761311079745
Si 6.163795542844894 8.921430610791477 8.194918014491797
Si 9.926509667778458 4.975520252753405 9.324387115973764
Si 4.3337010165818315 4.795287267298323 7.080451339821968
Si 4.679041487900424 6.848583416519567 8.128510595112486
Si 6.737244148688912 2.4527605816461238 5.352840480345727
Si 6.547538533564227 6.8756488442968715 9.571207911661975
Si 6.322538294560564 9.016999950223733 10.564520879885334
Si 7.511909686154133 4.658079541276542 9.187568173519447
Si 6.4590424454588975 3.8128296552830765 7.22900531538462
Si 4.000405663120329 8.297299115825766 9.944323324373379
