21
Energy = -98.231129 eV
Si 6.28009474062649 5.428993890331333 3.1883198653880687
Si 2.743145815512667 6.440920194353319 4.897754266564541
Si 6.562364497793322 7.895790774693057 3.4939109624739175
Si 4.113529772760649 7.033994536874587 3.037707375877433
Si 8.58206738886722 5.248754271195441 4.435532400303101
Si 4.709533646864842 9.2038846991655 3.934174251892786
Si 6.596905825667001 5.946151308716536 5.565756728568004
Si 8.352109831355055 7.659835243007479 5.125379376472714
Si 4.471082410813464 4.8681315632776885 4.776718811850225
Si 7.742857922794076 3.8686170566664106 6.394422978919882
Si 5.974912320295723 8.426588017638998 5.8809546748909325
Si 7.997330142681401 9.449590935941385 6.687096512099174
Si 4.357049859198318 6.730265095083127 6.643582479521765
Si 5.397335844054425 4.22907082235722 6.942034589667897
Si 8.276200984164774 5.30765355848903 8.218617015989874
Si 8.042906498333943 7.705060701031873 8.302173320755928
Si 4.209549529433896 5.469728161231036 8.644089317783912
Si 6.3620011627153055 6.254844127831969 9.267377338348034
Si 9.809913941660145 6.618155971336422 9.624428002317538
Si 8.048075528605153 5.114717994321309 10.63392234756166
Si 7.850605349732831 7.578824090386972 10.785620396682853
