22
Energy = -100.90632171 eV
Si 1.9855002923355503 6.232240346433785 5.954769016258281
Si 5.564393901628567 4.331308654871247 5.231295366644744
Si 3.783967954633922 5.049434533957173 7.154712419616071
Si 3.303718456464314 4.785596059838643 4.608900974026337
Si 3.552669234240282 7.837228554381604 7.3924634749464575
Si 2.262121842613614 8.633813677047458 5.3192635296576425
Si 6.402790096382186 2.4953223599231253 6.572160162247598
Si 3.477598860997435 7.067390448570799 3.789259862417797
Si 7.123268769856582 6.018830128884343 4.469750716491628
Si 7.132382667032086 4.618018543494143 7.527272337417637
Si 8.724745789169859 3.1363545851131565 6.209557677454458
Si 5.639186710900347 7.83156958618084 4.541995544228966
Si 4.32756592147271 9.863449133106 5.6071512926833265
Si 8.90474171631241 5.489947127083343 5.812144753214541
Si 5.782007434933683 6.406820106585287 6.659612393472052
Si 6.669681547717367 9.904531769350719 5.048759841259778
Si 10.315709039074436 2.6376453777728734 7.901993298336869
Si 9.422772282063965 4.854788546677697 8.346431067447188
Si 11.113394598213265 4.424283272927518 6.517548930239825
Si 10.538615771531786 6.639237789873209 7.090385296365472
Si 4.570075841307421 10.049860334029777 8.063897936050925
Si 6.3071986100815485 8.672624800342666 7.117348457979994
