27
Energy = -124.75117224 eV
Si 5.6135220756114474 4.751565726239478 4.70810682988552
Si 4.014502856300501 5.501322253888195 2.5602513205279367
Si 3.593227954126727 3.3193622705126367 8.240523850639816
Si 1.8709457676107808 1.8725381116313067 3.893726590228779
Si 5.158692747177674 2.4328717160313547 1.2426338093616032
Si 5.838781387155198 4.020977603145345 7.392804537478263
Si 7.456653113565334 6.147343762465592 5.363893457598373
Si 3.9766267016397023 7.039014874979959 4.391478036082914
Si 8.042450770318887 3.9254369807721554 6.118334713283122
Si 6.251475439297811 4.3899823081106435 2.2252616971288695
Si 5.7943438546910055 8.126073244805951 2.7986293729873433
Si 7.435200927618689 6.42640646688497 2.995756039034173
Si 6.397549790799291 10.303494927117464 3.583645310371827
Si 6.2537514925305775 7.822748513946063 6.8858832722490995
Si 5.2830920298608595 1.6784576614699838 3.51783569186658
Si 2.8439343261317456 5.6309326154155785 8.3588213378841
Si 2.3070925732811394 5.96692098538758 5.776166857351433
Si 7.193456821178867 3.033612329822518 3.980346188921194
Si 4.652889204175261 6.037114469624229 6.722760553273975
Si 7.425976568096987 8.50651571221954 4.765046091809518
Si 2.147564933724457 2.3747981858620797 6.308492956888076
Si 3.741822687864103 0.6084607823017004 5.037166627897424
Si 1.0561584001724442 4.513624163925932 7.282276303022078
Si 3.0144338409694376 4.059193554791212 4.594549520344015
Si 3.1899566278275637 3.202066098036124 2.2936179461013637
Si 4.984168831815213 9.059687188738284 5.146862414118996
Si 4.550100007255631 2.7295042334355437 5.86811712379026
