27
Energy = -125.67779367 eV
Si 2.4060978337062897 2.8012159565792056 7.52510939612098
Si 6.106924467852075 4.431045293540574 7.036234524058709
Si 1.2751080709116434 5.137202250711632 2.981244951853582
Si 8.776357634781048 7.101019010307087 3.3042152955816078
Si 6.343305271167288 7.106899565172093 3.591672691543461
Si 2.222749113466608 5.323858660449782 7.481549881425385
Si 8.488001200161724 1.7010743367614285 5.2567335736769145
Si 5.382963821883208 1.9492332609342125 4.045773891440071
Si 5.838551833134247 6.029919830952957 1.5086343322707627
Si 8.118158087505378 3.9152643936207707 6.053074826521268
Si 2.1682993183577914 3.6544909640342103 1.415333562431745
Si 4.688364529050996 2.5830670604590837 6.6693298480520395
Si 6.212247560529412 0.7964190551601407 5.923392475184384
Si 0.5591852062213275 7.335636904519191 3.6102098926376565
Si 1.9458502573561982 3.519306571961907 5.342212453791287
Si 3.9312807997833135 6.182784022343374 6.016695166266706
Si 2.9809795672218535 6.968295518258753 3.6855235989748207
Si 1.2520342489372642 5.862835105449815 5.351119884045589
Si 3.126678215259059 2.7205451596264667 3.4168319646381446
Si 4.649485629274347 8.233723166096652 4.9066770007172495
Si 3.8295356615309895 5.066291576894109 2.428611203525258
Si 7.528052166996684 2.8293993846025782 3.3429742314960804
Si 4.404903369960572 4.221553932793572 4.844423988615326
Si 7.818860404707371 4.918774881587447 2.281982848910306
Si 6.542764774600838 4.807595582071609 4.37517378420439
Si 6.162879574636448 6.8469465012585 7.136227513292253
Si 7.996715152304643 6.345906384905738 5.47950862387306
