28
Energy = -130.41126538 eV
Si 9.269673276227007 5.57068739591461 7.235718342832408
Si 8.739457815818232 6.958186850034438 5.380295084031775
Si 8.899282646606606 8.185785564873704 7.724051367448026
Si 7.75074090224189 4.8469828908989525 1.687512313015096
Si 7.440558634088219 1.6931152086629864 6.769459288094986
Si 6.339204112269331 2.1298153901988566 4.6539294120063
Si 8.167725200673543 3.165716763628979 3.4343141159623762
Si 6.9926746474633035 5.614720966886827 7.959048408405517
Si 8.171287851260068 3.7900824485859705 5.776960091197291
Si 7.244661367598158 6.1552336318572705 3.621031732512907
Si 6.865518797623321 10.822654648211804 6.907557728568152
Si 6.07527213268009 6.557507460222852 10.017777254634268
Si 8.623101500690085 9.27476523120058 5.515875403033246
Si 6.588320403032602 8.345097649798392 8.168109208301436
Si 4.785464327108158 10.095166242413509 7.924738890417744
Si 4.5271092857589625 8.333582909235693 9.655249433764583
Si 6.586704947836354 8.330163800189055 4.532730978929759
Si 6.021211363075194 3.456710820224846 7.501380100391884
Si 5.759134903112301 7.0411514701894005 6.351917604861962
Si 5.1952832236290245 10.079462647069146 5.375072415096736
Si 6.028864053674022 4.852025707377316 5.298580743233583
Si 4.284098939875664 3.342275070925436 4.294156339348321
Si 5.836304917042239 4.204494069226785 2.7957485558042015
Si 3.028244501221107 9.756706837195726 6.353994408634519
Si 4.233519854654807 6.102258338477991 8.494482036349302
Si 3.6767309018887833 3.8231538761745063 7.946275765859302
Si 3.6720483783118705 5.074589623965718 5.9332641808361375
Si 3.419853764304025 7.3867415931909095 6.630638737161189
