20
Energy = -93.42602539 eV
Si 7.314203109138286 5.576300738079744 2.0994881928582103
Si 5.537800896058463 3.831165251658582 2.3384055994915975
Si 7.991919578871926 3.3098454843882092 2.8685786412927143
Si 5.5805518673594285 5.878038868596379 3.784746460822505
Si 4.249523076897429 3.9276613053029146 4.450614416007385
Si 6.135827126486985 2.287477788186787 4.265193630936347
Si 8.213016603107368 5.319735683810035 4.355888598528156
Si 6.700812796473452 6.472271228838794 5.8218394482245595
Si 6.195824032788184 4.172948343960591 5.906267833332289
Si 8.282539156690625 3.054638392834195 5.309942523023235
Si 7.022146555330365 9.716750846141261 7.110736117258055
Si 5.302307777041182 8.054790889660998 7.232728190808841
Si 7.769831828349087 7.560147187960178 7.829225028409117
Si 7.020334821951032 11.610813945780825 8.739071748490275
Si 5.320189898671422 9.955417363430175 9.003933417914684
Si 7.698865591155175 9.476200178105174 9.579091235780188
Si 3.9169402780119253 7.9965153812392336 9.270746641049715
Si 5.8884398420553365 6.399498475265846 9.037450955527135
Si 7.99997093605436 7.159481130730917 10.241684044546217
Si 5.858954227508078 8.240301516028953 10.754367275699364
