28
Energy = -129.97779644 eV
Si 4.888405761430506 9.001860004111913 3.785971342515554
Si 5.517857404978135 2.4385754060875886 2.3772452729691866
Si 5.1873280924842895 6.302720434364068 6.648647861615626
Si 2.6582368446303026 4.857189101263242 4.928349166989954
Si 0.3514055661348624 4.439193534195119 5.561448457444228
Si 3.6464900769044997 7.134463556825984 4.842883324784284
Si 5.630057206241687 5.595926023321169 4.263190538676123
Si 5.103797656240607 3.2803531468602003 4.717314172834975
Si 3.926791271077651 3.576506379213013 0.9619629036147994
Si 3.1760530014074178 3.2779577232952124 3.221835077281025
Si 3.5085452979547145 1.9105193778560945 6.5584929611982625
Si 5.809624199152579 1.4487375779848317 6.104505501674399
Si 5.582406001904354 5.0714724477670385 1.879783086662683
Si 6.187440239867072 7.355612104561178 2.5877271311870893
Si 8.025797342581221 6.357639342557641 3.7194843047584873
Si 7.523639139258091 3.134331920532196 5.3186395293778235
Si 8.855328670141084 7.5494709844144055 5.623011149737974
Si 6.237413001931157 0.6756317207141186 3.82793751664245
Si 1.6998789779743388 5.376768307825341 7.377619538115693
Si 8.013247241637561 0.7177953237490555 5.316054471627165
Si 3.0625114439439485 7.5866007873811725 7.196887657537938
Si 7.465319792725046 5.616350452437803 6.141477523098356
Si 3.930988853101896 4.244522616508524 6.86931548626769
Si 3.537485835499398 5.660506438043256 8.797928809487965
Si 1.237286450853952 6.851583687823965 5.3794409550120355
Si 7.3407035428622915 3.910144715198117 3.02038358081349
Si 1.7306716217234557 2.3051410230067177 4.856246077350066
Si 6.617084689635453 8.134908815656974 5.245306682632097
