27
Energy = -124.68692587 eV
Si 8.67974455891654 6.002445877841892 7.7316494239901985
Si 7.507136005269878 7.048147094274754 2.452826384617528
Si 5.201603507286187 4.320965694985013 5.902719769129429
Si 7.572974862919642 4.1101610931723815 6.530377162567971
Si 2.8414935556278387 7.812402759599706 5.839796642305973
Si 5.298350878367236 7.208175434648608 3.238549833412481
Si 7.942160097068699 2.262331475576982 8.238390407342152
Si 1.918920650054992 5.221895258351995 2.615481647771424
Si 2.5640949718245865 5.6321229611795145 4.984276003248474
Si 3.89903587622395 9.277926976641883 4.230212681144388
Si 4.597915923672837 6.460099504902163 6.836640605775181
Si 5.746734272765032 3.1591003055896794 8.491446365482027
Si 2.877754776219704 7.506392171140603 3.1657842691115183
Si 1.419673684554997 2.6682493767467665 3.5916614957260986
Si 3.4354119696739747 3.4214179118428074 1.9837919081610962
Si 4.222149965072811 2.2578727921060175 6.683338288102319
Si 8.378267423954362 7.620618800885778 5.84700652174779
Si 3.656343428350041 2.2975623037491 4.195878531128919
Si 6.195124534482539 7.220493979621031 5.367392623822447
Si 6.827577120075024 4.802702340418793 2.5645836143104854
Si 9.590081588430166 7.1727472813766475 3.7818763717159025
Si 7.982128684034091 5.5286240660202495 4.540599816875905
Si 6.610659508569931 1.8821952492232044 6.378820461985919
Si 2.0870778849535583 3.470652821721593 5.835432707402385
Si 4.504906258856847 4.85639863400696 3.6049644641296688
Si 0.32194059007744463 4.801935714116128 4.312440109653586
Si 6.373334644295739 5.547603746996547 8.132391755955867
