29
Energy = -134.85243757 eV
Si 12.070332473331558 4.784249753286984 4.911876978389637
Si 11.069121816420235 5.489496243187733 7.036756852062326
Si 9.885498101662467 8.368439166975595 4.488641675004316
Si 11.830311010436459 7.159214690470948 4.975658122096857
Si 9.714942635024272 4.697269859560871 4.837447029746751
Si 10.833046384663016 7.974925137322141 6.9234302001258285
Si 7.33385683595387 4.79862110146306 3.291349998719284
Si 8.213541092104713 6.682223554654289 4.570972012884528
Si 6.303505638343536 7.8620330986441225 5.4284767496102635
Si 6.848836951567114 4.435471628925645 5.698930879190166
Si 8.40150129123125 7.963594209338304 7.3289664229172615
Si 7.289698615506249 9.905593423099956 6.256222632211166
Si 8.62604264910691 5.646829371862136 6.856938689909791
Si 4.426200742718974 7.508007988797195 3.91643727125219
Si 8.1757054934658 2.863333063514502 4.5073461066395755
Si 9.735168730675905 10.06737221965275 6.12924123498304
Si 5.745065139701372 7.967246677644752 7.703655605859447
Si 5.049064515304725 5.153349940396898 3.9314371411401283
Si 7.37676059594571 9.382914765946564 8.88188731457209
Si 4.511758764499839 4.389021435055083 6.240902714637112
Si 3.5888915087720052 6.541591751608076 5.877487118315724
Si 5.495544065718817 10.388083467969537 7.794720037010984
Si 1.6612467871793604 6.318783722253725 7.168004079546643
Si 4.161906468186573 6.256207093226506 8.25183218210115
Si 4.595378156270546 3.832250256895939 8.555368943303629
Si 2.064226150828804 7.100568757792696 9.423201019971954
Si 0.08593375732404977 5.330590626150301 8.566509678415317
Si 2.3356874971856585 4.544082599918485 8.89318236221787
Si 1.1271723947031511 5.390541404306139 10.76445871000091
