20
Energy = -94.1282358 eV
Si 4.866924290593479 5.799213131529393 3.637076847986319
Si 8.925337836829748 4.682824944190611 4.239709431509313
Si 7.084047497051642 6.2718021664990635 4.446436299419707
Si 7.6535015349256215 8.653254602294275 4.919608611372994
Si 4.484832032644887 6.773852376656269 5.803141039276251
Si 5.39637700348349 4.250779840188228 5.267794006863407
Si 9.504890385104224 7.129921838385197 4.233498891826183
Si 7.8216673092301665 4.808510514870573 6.417704914747203
Si 9.393594703532045 8.04478539185372 6.573572669456724
Si 5.249220978849345 9.11545288148357 6.110748633289595
Si 10.214679960325903 5.716728805444951 6.1232432968103545
Si 6.839225270280164 7.201072587281729 6.8794363221709744
Si 5.243886614223084 5.338422844168042 7.790985591917277
Si 3.3060020752876325 8.34591185903647 7.468114382405299
Si 8.883978985140033 6.2169768761455755 8.16683005078424
Si 2.8895706702126334 5.873699486132171 7.425424552759808
Si 6.187978182608945 3.214006307453361 7.175938066879648
Si 5.5015995694229005 8.85070484508324 8.564060787341148
Si 6.524811280653743 6.756164612059599 9.393711542758068
Si 4.040848707904589 6.968888977548244 9.375938948729607
