22
Energy = -101.85977524 eV
Si 6.616066860614889 5.947644537725879 5.073283278644966
Si 3.3648063287041534 7.506052930760657 5.66786044055079
Si 3.053509446450423 5.914035141636469 7.375937754174722
Si 4.013316593530007 6.78448984411208 3.4406722122140656
Si 4.653420279877947 3.195848140054623 2.7020039641199247
Si 6.720804679686757 4.555724226519845 3.182671301798611
Si 5.31255658656753 6.639394994052173 7.190004511440496
Si 8.399635540237398 2.8196117526570554 7.185280944165723
Si 6.8329108938760905 5.8766828131757505 8.818436589224335
Si 6.585553747298652 2.7861473970478574 5.667085593494036
Si 2.6864310890295675 4.979749827767378 2.597490605223945
Si 3.6646809415304 3.975571085882667 0.6303304871821438
Si 6.37392913541394 3.6428844634753634 8.19343535920254
Si 5.1604354380044395 5.569573894116068 1.7414692827332818
Si 6.826553330697309 2.2315659996114428 3.3540241320175683
Si 2.9441758667332407 3.356509362525231 4.330313462442204
Si 5.93387934861039 8.250150154293951 5.477911327484649
Si 4.320536041564332 5.089329312998909 5.368461048846759
Si 2.566390730096054 3.498347652107299 6.708679902599822
Si 7.938867566420429 5.116205184155905 6.866930806944489
Si 4.7501056980857825 2.3888296130776494 7.014203581383779
Si 3.9890024252620737 9.091407451504065 4.068594313230593
