27
Energy = -125.84543413 eV
Si 5.3801471397993135 6.96512818799187 2.1711827885150354
Si 5.989134258452751 8.615169980018631 7.12673325128836
Si 7.633000934680236 7.081040364264121 2.6269496738609317
Si 3.0886466260413212 6.652172782595773 2.1868769146157234
Si 4.402315581236354 9.375498555027809 5.308017396629459
Si 3.2672278555363494 3.535061212893817 4.499208809210289
Si 4.183816345623399 9.397923564678438 3.74145546051997
Si 2.251748953527081 3.7897439331908545 7.042928204518017
Si 5.105058935540752 1.9376927456872586 4.451673024760963
Si 5.604510387548325 3.7876993456878396 6.813690200488826
Si 6.734838788961265 4.7855371705724625 2.897891955803128
Si 6.263173881264305 8.021529660846658 4.520223923595799
Si 7.079075722485689 3.2137635834924194 4.930184356638194
Si 1.9609288015506359 0.6026344980263507 2.71646806658988
Si 3.606803501949276 1.834309225291509 6.370830787662522
Si 5.565833923052179 6.203168543350418 7.801244542619978
Si 3.891216606702511 2.1113832623927387 2.285416568826654
Si 3.7093617691995995 5.565429004772715 6.196147818505371
Si 1.5447556535894182 2.980832515591075 2.814573175643757
Si 5.933232834596101 5.5492800505028885 5.037433276334565
Si 1.2008015538656778 2.4991968642399325 5.21583853022346
Si 3.6819502219873996 7.7885949239773975 7.195757166768975
Si 7.534779392608187 6.794917810966212 6.311622670163679
Si 4.360281301063006 4.637540816388484 2.684184191871041
Si 3.9562559385303633 7.163847187291048 4.372842689365974
Si 3.7510833750935486 9.375498555027809 1.324525889416664
Si 2.20257571623666 0.2641954158372396 5.117416974173371
