28
Energy = -131.64295243 eV
Si 7.411395698777292 2.0015561119382586 6.138412963272852
Si 9.436327358187707 0.8777840534729086 6.750541393993436
Si 5.200917835185557 1.6175847634226876 6.940611072311756
Si 9.678111700818754 2.978248113422079 5.772338522674975
Si 6.489073594111991 2.9042234362997377 8.501917246378285
Si 4.882002867113113 3.916272925039625 6.665932739594773
Si 8.986880963296699 2.8042470241382094 8.242454624390392
Si 5.949308969726392 5.154079763191216 5.037012565319735
Si 7.585039017519344 3.57315063518329 4.253820223530452
Si 2.7675426943217993 5.087326031058041 6.581288248433321
Si 6.073679775966462 5.200267292685499 8.781329390286373
Si 4.163800181024465 6.379827080674344 7.982220397058358
Si 9.83484932773588 4.339083447246398 3.8563335751214045
Si 4.400867366823657 6.802572913914104 2.427180285491237
Si 6.898322028085946 7.346902641417337 5.325266292692938
Si 8.524987784042976 5.674326542209019 5.328472834935447
Si 2.6931719163157615 7.693270108728287 0.9490517415442286
Si 7.937094273384611 6.598655937145178 9.235847746427622
Si 8.437556669104492 4.995994123901711 7.5715051008629795
Si 3.6282361111037926 6.396491260400722 4.7376968836096305
Si 6.457574475593143 7.536743856174608 7.601576724423391
Si 3.0976974581912375 9.191065434523878 2.6526015157509426
Si 1.867374168632525 7.045317605395951 3.158558910699698
Si 5.169077302807273 8.387000076818248 4.115697135689246
Si 4.047435447526948 10.473921950346652 4.460798046423679
Si 3.6739702738988584 8.543907462070672 6.023680564060478
Si 4.465087350332342 8.696542714619978 8.267722797961397
Si 1.7640553427972616 9.025857157912267 4.738220592197697
