23
Energy = -108.78528054 eV
Si 7.0307703274915 7.252165296090862 1.793108473340279
Si 8.319201613183182 6.934879804098859 3.779333604964464
Si 6.537602979118118 8.759620124879838 3.639573295084148
Si 5.90299124113991 5.831028283241639 3.2832838050593094
Si 6.368876433839267 3.5062048911332795 3.7739365464479566
Si 8.566266449329515 9.046849195186123 4.7624916151498695
Si 7.86403235792197 4.8906312178606575 4.949266389406715
Si 4.444259251939141 9.349898227158853 4.7614681885365
Si 4.542313465410329 7.030708226939179 4.7479562733082155
Si 6.325556419389039 6.322630773163451 6.469540181526202
Si 3.976754419412044 5.4573714765928285 6.387578785839773
Si 5.326542334670376 8.786607582049525 6.956854700803856
Si 7.623386778564066 8.387403966834498 6.812083063112669
Si 5.631683629171144 3.7991730272760162 6.028808067646383
Si 4.6630246554440316 6.350231665540595 8.440456533403385
Si 4.589888764012418 8.520304791188767 9.258808164091283
Si 7.936960116814569 4.45796203095483 7.29483686481825
Si 8.701082736512701 8.280856223620145 8.89846387252075
Si 6.49866645881807 2.7300485686300577 7.983682929935609
Si 6.094892215371484 4.72272720832202 9.29854611990868
Si 6.741246613570605 7.593783769880015 9.967709622567414
Si 8.48970217613018 5.954489801225266 9.084769911923358
Si 7.324298562746352 5.534423848132859 11.127442990604624
