24
Energy = -110.68216544 eV
Si 1.505258853043779 7.175959889742388 4.891897428133292
Si 4.41870887444229 3.8452582181414425 4.631179051493699
Si 7.278732751320334 3.5938861084273177 3.167931264206151
Si 6.338665768587659 2.51490480855838 5.407651129234905
Si 2.2201997237676614 5.877093439830744 6.740405783497216
Si 8.541363874188814 2.8400450629081235 5.619434642212596
Si 4.865860241565667 4.052310075856883 2.035018432821539
Si 0.4431909782166367 4.985551226704824 4.77574477566303
Si 1.9693656975636997 3.0883671821265066 5.279732312041962
Si 2.614278918053914 3.4011341359201124 1.172482843662466
Si 0.7733275145552025 1.0766518455865395 4.580139510081784
Si 5.73743323245985 7.147893840357674 4.41604091608224
Si 2.031096187042181 4.498378192188747 3.152193514877992
Si 7.084864054043272 1.0776041783640904 3.717265146840502
Si 3.463258042237705 3.691807505727447 7.032882781371828
Si 6.830153289650484 4.875956250699209 5.36882062614004
Si 3.5035645970530336 6.2479543298785565 3.812307677766837
Si 8.541363874188814 2.026351531407071 2.0084336058187713
Si 6.213949464934938 2.2673350342992458 1.2528789548369694
Si 5.245445990772564 6.420465194093826 2.0345400445447708
Si 4.6053303283008535 5.720375079850415 6.148602339092169
Si 2.397103318949852 1.927017783592392 3.072225130381385
Si 4.814260148945638 1.803729855783251 3.240455515438863
Si 7.518139631464712 6.118729528612696 3.2813675205432915
