24
Energy = -110.67624444 eV
Si 5.226092827614515 6.969326788065855 2.1671675942576223
Si 5.24469933156263 5.294433263443071 3.8022576233826504
Si 6.755810244196334 7.483003577546281 3.9172580180131074
Si 7.309889377112514 5.619822577216031 2.288625226508182
Si 8.041108954422846 11.240560269024739 7.944418883559433
Si 6.029512049765444 10.20755771773547 7.127933859606543
Si 4.76805848881355 3.0165314498918634 3.980762487944561
Si 6.358339989179098 7.966507162079662 6.211178684808379
Si 9.017947875653592 7.053183388044653 3.318785742235697
Si 8.079721893491218 6.601834952993612 7.075607832172557
Si 8.23544111499232 8.914058369149037 7.787625180861019
Si 7.068251387337762 3.517058284100085 3.3453047374727367
Si 4.595302314636728 7.246966755961249 7.540218065426586
Si 6.6556563875085795 10.275993804387273 9.707237763034183
Si 6.1866016214033275 3.7699846458259643 5.744448507216282
Si 4.5828868296502465 8.958541152532874 9.174121614555666
Si 8.516938762657666 5.443499747700917 4.920273936550363
Si 8.490102084482471 3.154539153452634 5.266177030177531
Si 6.870897502198801 5.385238833267807 8.760137160082845
Si 4.234801504612505 5.1545051747932895 8.46285476678644
Si 5.056164719167795 6.736055776089692 10.033424331047337
Si 7.2084577275871435 8.006740681594604 9.751097047769925
Si 5.839423710234567 3.3730290778180443 8.059492023620393
Si 7.132255160274051 6.053317433749969 11.031074400719579
