20
Energy = -93.91751285 eV
Si 6.505020143305979 4.955446143770676 1.1546206609743834
Si 5.37100828375215 6.598333196904321 2.4482401889658307
Si 7.042982990957736 8.532026141545511 3.034425213793403
Si 7.888761734200755 6.3308279110665895 2.486755555519261
Si 4.572083405132523 8.353382811573542 3.7831749283944323
Si 5.997971804209802 4.4210398983779395 3.500936687586054
Si 8.705897419751196 7.20538579185205 4.554636982940499
Si 4.661572563680755 5.97852589914777 4.831931240938578
Si 6.3690325542291975 7.7546656385158546 5.315430707538559
Si 7.1935948779112975 5.473811223918317 5.2538144268660245
Si 6.7909292857017585 4.753756860949227 11.782110017643053
Si 5.5713076465372895 6.426366631950718 10.607109516760527
Si 7.196563864106491 8.391299683232836 10.001547447992683
Si 8.08667979856542 6.181702458317635 10.42461016390318
Si 4.689071176321407 8.219379033092084 9.374760213986725
Si 6.161023011220934 4.291489158614098 9.447088223395449
Si 8.788990101586059 7.13490509821256 8.349833993762664
Si 4.7435564023293235 5.883043655451446 8.240280143561101
Si 6.413827437695724 7.695365305892692 7.736691038192107
Si 7.250125498805132 5.419247457615563 7.672002647287087
