26
Energy = -123.57947423 eV
Si 5.241401402635733 4.852625997190803 6.36283741642311
Si 6.997616026329269 3.9602879114904854 7.844540724614101
Si 8.08928982992547 2.006920683732852 6.772797094042884
Si 6.065753489555128 1.8088204397981102 8.375437798473017
Si 4.401504318291921 1.7294151333471797 6.361090952991985
Si 6.475942986310069 1.7555575092029145 4.760164087316678
Si 7.304485482898792 3.916846072860242 5.402030157346535
Si 8.947228333736238 5.441965418903504 4.58141105802779
Si 9.189655999896173 6.230764476473192 6.831782986315591
Si 7.140492672130988 7.381488391271751 8.148313875558724
Si 9.11432329995878 8.580427568246547 6.782185425470966
Si 7.537892418695397 7.329598532118955 5.008993937650347
Si 5.592939529773094 7.1691040258436045 6.360015127094802
Si 4.834198019598819 9.39756788374424 6.232393342113917
Si 6.85585236660036 10.401907503291515 5.272118099488721
Si 6.560144759778184 10.4377386296322 7.632380294208449
Si 3.2341427459574077 11.23569523456964 6.005973059779205
Si 5.467391727307041 12.400758207734766 6.27020692258332
Si 4.335108843311603 10.953847756988836 8.188768087707153
Si 4.839312545468819 10.899975400194725 4.171163603775932
Si 8.249137301748089 9.36667361311887 8.879330759494877
Si 8.796912696081849 9.298332384315373 4.5133369517224695
Si 8.395971123533638 5.522362079181085 8.97918355389433
Si 6.256160848141489 0.1293313837348124 6.5820024327574025
Si 4.716022744901767 3.3431621910180027 4.589252572849796
Si 4.35330311473686 3.4410101992978706 8.08447430560034
