21
Energy = -97.00038883 eV
Si 6.528795532376076 7.438836712348236 3.770916804783411
Si 3.459507837999262 6.380331611279286 6.8480031446210194
Si 4.355982796505198 6.476774275203856 9.185865295668073
Si 9.587354082827027 6.629277361446142 6.838700714878342
Si 8.341099738470149 6.790472127099932 9.196526974383717
Si 6.466963677976555 9.864494949114219 4.713147107435339
Si 4.542560544276248 4.344061745202289 8.07615788958922
Si 6.688662526993991 3.38574603890494 7.578271642325259
Si 6.4536730598081755 5.7968961603996885 5.619860336742274
Si 8.793447568220063 8.826020539242943 7.779420640717158
Si 8.705601524346033 6.51651433963431 4.3777036751237945
Si 8.42408073521549 8.62355584978202 5.4562780333648595
Si 4.624893552874737 8.47934718743241 5.542996244329568
Si 4.353974338670872 6.464770076609841 4.294217675393974
Si 8.677054304879277 4.658739245067412 8.113759572429212
Si 6.47461603902474 3.3146687782226496 5.14640838176908
Si 4.383218749002447 8.64614982404432 7.853125947170434
Si 8.614031847589795 4.365768293577164 5.659737367629477
Si 6.54390653244812 9.38584016496405 7.078696669842516
Si 4.221563731737984 4.310341438014966 5.597469757063147
Si 6.433777153102652 5.976159216938875 7.947502841671904
