28
Energy = -130.65686713 eV
Si 7.956338416924709 5.983440834183534 3.955576179232417
Si 8.87390280912554 3.8652185782125135 4.57488113069947
Si 9.102708623229562 7.782199733368374 5.094815584988528
Si 6.607847403361131 6.393010061907395 1.9222526497509058
Si 5.4734297785337995 6.223365079959622 4.045281479123648
Si 6.948349167795878 2.9704747901609885 5.622274952502295
Si 8.5434049364938 4.597608785849707 6.839932995643524
Si 5.889412720680715 1.048494092624814 7.040668452529273
Si 8.301256771239553 8.198497468967783 2.602787899425712
Si 7.5886748381599 6.531395722243185 7.844532385334745
Si 7.52234258578541 9.546055738960986 4.665874825477812
Si 5.9231379970323275 8.495161153491074 3.0931291881694043
Si 5.088725503120514 4.463459944032664 5.4659449496282075
Si 6.68275322827227 7.457550939747906 5.775894150618906
Si 7.639055484214319 2.582981966406639 8.01802680857679
Si 3.4005874859488543 1.992462344220255 7.084621280167138
Si 4.711958863953087 2.0458959181201326 4.992547060052434
Si 3.2854524836930588 7.180293087461365 4.230285589370296
Si 1.5349859824668766 5.503318541591347 4.167303264694669
Si 6.129717936135822 4.676878630278034 7.68741285313587
Si 5.327140549261614 9.820557256577041 5.9456653079157675
Si 3.894070710778888 9.517571785943968 3.8575034434026216
Si 3.9500331149101378 5.752887275010555 7.395076701847875
Si 5.318109432824507 2.671040000497942 8.868074870216427
Si 2.7810104558275803 4.153094609341839 5.839015152108327
Si 1.8783652516664497 6.664399260639097 6.265682896050065
Si 3.951310101410528 7.928674270244853 6.484287687023255
Si 3.212671951694973 3.829708380104327 8.69075245241703
