28
Energy = -130.95584339 eV
Si 4.783737948928122 2.2625085520998307 5.605715156586234
Si 2.719313610574519 5.169455662464357 6.002630982130266
Si 7.905274714431412 4.60631056369185 6.758053053694754
Si 4.914408708297296 5.755133910558639 2.8912470302291085
Si 5.203222798131803 4.701756376667732 5.026216133554517
Si 6.976187794570668 8.753446482782238 7.5981013434220905
Si 6.381935756747213 6.702852296643588 5.811872326302257
Si 2.9058193530683405 9.259449358520401 4.983578779250574
Si 3.886024288150141 7.843560012464658 3.358521822769189
Si 6.929306215258422 9.034715254283805 5.186937009794492
Si 2.2759079527385238 6.336014367129026 2.596613878087998
Si 7.062596635536114 6.371766638745914 8.125680816931482
Si 6.857557306813264 1.125278888884 5.355275191819279
Si 6.959494027653712 2.5133605024205283 7.319193882090695
Si 5.123333221880447 5.459067631842062 9.273405445353152
Si 2.6176302258560247 3.03952799126481 7.164225032672069
Si 1.880391732522734 7.032027036755472 4.795739779659832
Si 3.286935744956585 4.330928921844428 1.8326050006914407
Si 7.312398085159083 5.5995415399269755 2.600722615640224
Si 4.7653778209577435 8.509686411547113 6.374066801367313
Si 9.028405191068217 5.177064833232421 4.7310918499532155
Si 4.37375825566346 6.350169484183913 7.266230501718604
Si 4.880861510158951 3.647711854335893 7.705579859126566
Si 2.624053624153165 1.540448611348694 5.179467507769903
Si 7.134646008255198 3.354544303142916 4.574172035292016
Si 8.819082159771824 3.745645915701753 2.8223626113716844
Si 8.066731049851821 7.228433198144775 4.0878024725107
Si 3.084748096363923 3.6740978038562764 4.14974765941499
