22
Energy = -102.14075129 eV
Si 7.470473039483745 3.473239024068654 2.241601105689866
Si 7.624579088538746 3.1710017602603995 4.591243698789797
Si 7.459240100657305 4.59910141322493 6.55187072959284
Si 6.95432693619836 0.8673534528776643 4.929079215656244
Si 5.462967630839115 3.5024992760205937 7.487776045473942
Si 5.673754825724605 5.0360412576679385 2.504552054055445
Si 5.774750880308882 2.0659766624820124 3.2666376153924888
Si 5.236375957297286 6.634241987655345 4.198496921791426
Si 6.078089426632681 6.692941785497246 6.447220897272279
Si 4.0845683135484885 5.456885152435986 7.224637044862369
Si 4.091393435441467 6.7187938745053595 1.7063592544746473
Si 3.586536170929327 4.188090195482214 1.7236144497345387
Si 5.4039717149264535 4.395888487997939 5.201750156148822
Si 2.455368168694822 3.65262523223627 6.2401407007139005
Si 3.1305183916682564 7.763544005476754 3.9587339454316335
Si 5.001581507438721 1.806433341777438 5.889567248593646
Si 2.6616927414888893 5.478565359956992 4.6832813784133664
Si 1.8364400436620454 5.840106699190378 2.4177554203228833
Si 1.7398025769082386 5.780467184923516 6.91827042409464
Si 3.6067942054177986 3.085648168545905 3.874376290410283
Si 2.6612784747290625 1.4892482862496816 5.408553726867453
Si 2.2558993288434426 8.130131764532546 1.7430316191759718
