23
Energy = -107.68041666 eV
Si 7.628320529870928 8.939041779550795 9.547131428840963
Si 7.628320529870928 12.891141800000002 6.169316298720544
Si 9.913654590142096 7.628320529870928 6.139535607132894
Si 7.628320529870928 7.628320529870928 5.438072882643694
Si 8.913109297476435 9.313821011085977 7.512039285219292
Si 6.240288667303937 11.00383917804639 9.631318577247841
Si 6.343531762265419 9.313821011085977 7.512039285219292
Si 9.566555533209582 11.599699591547607 7.254926939799287
Si 7.628320529870928 10.488609396388968 5.791587674332614
Si 5.690085526532084 11.599699591547607 7.254926939799287
Si 5.342986469599748 7.628320529870928 6.139535607132894
Si 9.01635239243792 11.00383917804639 9.631318577247841
Si 7.628320529870928 12.650367934502889 8.562509092046353
Si 7.628320529870928 6.317599280191064 9.547131428840963
Si 7.628320529870928 2.3654992597418576 6.169316298720544
Si 9.01635239243792 4.252801881695472 9.631318577247841
Si 6.343531762265419 5.942820048655888 7.512039285219292
Si 6.240288667303937 4.252801881695472 9.631318577247841
Si 9.566555533209582 3.656941468194244 7.254926939799287
Si 7.628320529870928 2.6062731252389644 8.562509092046353
Si 5.690085526532084 3.656941468194244 7.254926939799287
Si 8.913109297476435 5.942820048655888 7.512039285219292
Si 7.628320529870928 4.76803166335289 5.791587674332614
