24
Energy = -112.01916525 eV
Si 5.852735901641968 3.008843396022405 1.1190880635299545
Si 4.987757659738276 5.242209377507159 0.9408881745542593
Si 4.345634799437409 2.445016563553529 2.9060463828653726
Si 6.703767055606056 3.3973233092350563 3.243090083826095
Si 2.1071631867218885 3.1075524943013635 2.523212381170716
Si 2.6521063618865885 5.055215126302449 1.387571229696795
Si 0.8743937126098683 3.1733147173446454 4.584186255490737
Si 6.725039435864543 1.6339132280292066 4.959346644722856
Si 4.380718906188699 0.625740908286779 4.5948408454161385
Si 3.129362418861073 2.599094579516545 5.189569231365224
Si 4.232519220693792 6.466862864770233 2.8367700737002877
Si 4.658286383744984 4.516700786333254 4.391681646590194
Si 5.187909691619465 7.56389587285302 4.775221791418923
Si 6.454596862772181 3.6140031403023842 6.482366688807057
Si 1.78753103195266 5.279874064353254 3.8988244223452706
Si 7.01025408138813 5.128248746583668 4.80058586797326
Si 4.991055433339456 1.6182142385001272 6.7778246676346114
Si 3.9482519552765103 4.09967043771167 6.8866156761607416
Si 1.8983310314776562 7.0812170121744 2.3502547232668602
Si 5.655727628618009 4.676154074511321 8.452519612775141
Si 3.066433224269325 6.00977204080298 5.790549273369862
Si 7.391439299759155 7.340463208593192 5.553944393559444
Si 5.734077850346114 6.718959769492524 7.178419963132425
Si 3.824878439190817 8.112326321875365 6.603630208069952
