20
Energy = -93.19363575 eV
Si 3.838918595399012 7.2713360890295995 6.169886038383943
Si 3.6046565303171567 7.918036909769203 8.895469701082604
Si 3.285012392686615 5.608167664264289 7.962730440253513
Si 5.576916399402577 6.564616549279044 7.9692150599109555
Si 1.7693609428868549 7.385736876874408 7.360010397161405
Si 3.3033706322546674 9.519420488545062 7.065196884682601
Si 5.738625236585667 8.941910248759783 7.2877812285625625
Si 9.064119162484955 8.904356638488359 5.781395425852946
Si 6.273880253199954 7.250659453513624 5.614608205991196
Si 6.777287003840348 8.37084468740394 9.460238315787299
Si 11.213908034321465 7.574750180649297 5.5319347946301685
Si 12.41724875083595 7.501464866038922 7.738567767697667
Si 11.217134933010863 5.439294346280537 6.845945674702496
Si 8.904421828367434 8.588566165941307 8.223338287406492
Si 9.095157117444192 6.597471085559359 6.524809825812248
Si 11.040313527701866 9.552293687745916 7.208365603055606
Si 10.98085226975306 8.660283097304534 9.53023167430039
Si 7.153491511480719 5.125381217968688 6.705891718815063
Si 7.91763911921071 6.277491802529868 8.787610270206258
Si 10.338125661521467 6.458357846758873 8.847212641821962
