27
Energy = -125.52340883 eV
Si 6.617025672292144 4.348764951554309 4.7658697252872475
Si 4.067163561010772 2.5110576953519406 5.528603924374373
Si 7.439493138836003 7.821882102537325 2.269512560440371
Si 6.5205812076502765 2.019322437750886 5.1445298671894015
Si 9.392209446821651 6.548460971373784 2.3749265382401177
Si 9.548594399242262 8.324929820559937 3.9126723047999152
Si 4.362152006495362 4.846402171874804 5.087875180118269
Si 5.653950832011978 9.333358333740875 2.5242847401500352
Si 7.099841447097678 3.3335582366289493 7.130299778110792
Si 7.947579946468333 6.333036407248663 4.321156241503098
Si 5.998551310935202 7.838081917050469 4.381599755457204
Si 7.357934138973687 9.933348221363465 4.03304392131942
Si 9.322706783752237 10.184767976824533 5.328383366930723
Si 5.925116237462882 5.4162968042630455 7.001034078327131
Si 7.934161227193829 8.277246748033999 5.876737579872758
Si 4.315749876598982 7.073002712451479 5.863503855924206
Si 4.77984828693467 3.296066091473636 7.665368747713509
Si 3.0786095541345464 8.956682562324577 6.482603979012812
Si 7.079728578862502 7.241208993178189 7.8513187891266965
Si 8.833897580938386 6.629040814813145 9.43853207000418
Si 4.641187378433472 7.940595657838186 8.192591377018317
Si 8.275639396291941 4.285000837888709 8.924365233087652
Si 4.703051282664869 5.638528577356806 9.17806187326087
Si 6.77925264465456 5.875181450012434 10.309917998219449
Si 3.340324791037689 9.783277096182575 8.595440337590285
Si 6.385079224164176 3.6267171479552087 10.238906089481425
Si 3.993629873054661 3.4463634099504765 9.914621437570599
