25
Energy = -116.61124119 eV
Si 3.8675979047842137 7.883902695824088 4.349400828139019
Si 7.409600527586983 7.016301154816498 2.5819925532888535
Si 4.316326946604589 4.021757217279787 3.366985824244342
Si 5.907163965533801 8.646159357644725 3.441164121274398
Si 2.9153841966925094 5.708010175428481 4.218022414201502
Si 5.988023439124653 2.8878271769515265 5.3488794190796956
Si 6.487920689762038 4.930598182632917 3.4226905164015387
Si 7.397427576840204 9.908732946494805 4.916562832234513
Si 6.4455417917041045 6.699482604915809 4.938193645742801
Si 7.663367388640164 7.797305730071128 6.7611121655057165
Si 8.746045545480323 7.749608219271175 4.602597508991811
Si 4.06159251658214 1.7879395712624786 4.342859572608247
Si 3.305512075650369 3.5360062119241613 5.743155490549245
Si 8.000539421725597 3.207036096217401 4.0096092142919435
Si 3.185329491571247 4.366148737195338 8.024369178295748
Si 1.4560189800017087 5.15927121428494 6.033818044041076
Si 8.350483242051434 4.152644094374747 6.0906796598455735
Si 5.590327775445174 8.769831037401621 6.116942059231152
Si 6.551766337807648 2.794708220707638 7.73053655623505
Si 3.2311655646342703 8.886426340109836 6.442785484188176
Si 5.260890401575048 4.952026439962414 6.552212124827979
Si 3.4260302930857667 6.514251706290244 6.636335813591561
Si 7.216741654025578 5.5153554320763005 7.888840016512539
Si 5.397735142854709 4.401898625455295 9.07796742117726
Si 8.742528072194798 3.627831753365566 8.283348477459336
