25
Energy = -118.07357337 eV
Si 8.93132523582376 6.527761107569359 8.687715781671786
Si 8.300253004125363 8.152462439414725 2.6375394955540488
Si 5.666448845353911 5.9263518134036435 6.500000000000023
Si 5.086678697763816 7.61775170590993 4.902772713137129
Si 6.567046754757645 6.666987572325758 9.704605497147579
Si 7.388033681579829 9.084704559495883 4.6782096187333435
Si 4.853683044566968 4.016898356463492 4.85416813637876
Si 5.250895809245991 9.905169176182518 5.264935406141021
Si 3.4576365211379474 5.872183005176383 7.6978223118939555
Si 7.655885232644034 4.579921092113775 8.648601736394955
Si 8.8287826221397 9.605921541598185 6.500000000000023
Si 3.4576365211379474 5.872183005176383 5.30217768810609
Si 5.998478293590271 4.346713296420975 2.7566560218174914
Si 8.300253004125363 8.152462439414725 10.362460504446293
Si 5.998478293590271 4.346713296420975 10.243343978182555
Si 5.250895809245991 9.905169176182518 7.735064593859023
Si 5.141519776057904 2.254838133266134 6.500000000000023
Si 8.93132523582376 6.527761107569359 4.31228421832826
Si 8.927303235747779 7.369805948078941 6.500000000000023
Si 7.388033681579829 9.084704559495883 8.321790381266704
Si 7.655885232644034 4.579921092113775 4.35139826360509
Si 5.086678697763816 7.61775170590993 8.097227286862916
Si 4.853683044566968 4.016898356463492 8.145831863621286
Si 6.567046754757645 6.666987572325758 3.2953945028524663
Si 6.956112970230483 3.8019779415093935 6.500000000000023
