27
Energy = -126.20230648 eV
Si 8.759058886692706 6.789042644045993 5.29194615094692
Si 8.943886263586963 7.99727768421921 7.345093164202482
Si 8.171521181990794 5.70641244719437 7.7588990383597
Si 9.668520248973321 4.5688956264220195 5.50530205510375
Si 9.665315002597433 3.8612451760894895 7.80188122588506
Si 7.171395344710923 6.90691190762808 3.5921719025519003
Si 5.919096443855361 8.930623074077753 3.288094935026452
Si 6.599570242061517 5.5125750321516005 1.7428719891726143
Si 6.755683974870152 8.486065492551178 6.6712171428384055
Si 6.467805986222749 5.773376945124061 5.79692942315602
Si 5.630022760550239 10.08044850080922 5.386338460076892
Si 8.77828735310383 2.8589604718556707 4.211834838199262
Si 6.890798426822798 4.1184388664690355 3.56015802962702
Si 6.487082582518615 5.344998728704261 9.421196121013324
Si 7.910775355142572 3.0110888206350936 6.420751174072561
Si 4.801541002318515 6.858983737325224 10.012697626877403
Si 4.692316818618039 6.497045377394479 2.837624662567515
Si 3.7088679512179876 8.618146516804584 2.376859840321239
Si 5.732933214456362 3.5590401523960917 5.5107749155418615
Si 3.892115524549746 6.185424040852513 5.0087052434825505
Si 3.930738790539255 8.567831728802735 4.804483308926811
Si 4.427799496910206 4.242275328995052 9.008327452750738
Si 5.31476978556475 6.916386866187812 7.6430311710781105
Si 2.8089877180321117 5.501275957789942 10.172331505270423
Si 1.9516617385848563 5.198314659691596 5.943308998434213
Si 3.6993486022067494 3.741954774503007 6.806992264078768
Si 3.060166548374203 6.0798514791046 7.8575402225474456
