29
Energy = -135.17797723 eV
Si 11.181577890735515 8.433293443899297 7.678614025747621
Si 9.222268898601332 9.689392276117704 7.181621270646951
Si 10.693796446141867 8.18695043366631 5.379789591699407
Si 10.677844303757277 6.172382185281166 8.469666469735653
Si 9.780151775399476 5.805538188525016 6.2426854404050305
Si 8.765703311776987 7.404995498762058 7.934004122110383
Si 9.093166016963508 9.78827481523981 4.766767435301162
Si 5.022138294449297 10.212781044247576 3.409248750731434
Si 7.075756360259221 9.108598330071663 3.672301588932555
Si 8.232152419189877 7.525141141249498 5.367851890020406
Si 4.218336239000112 10.14274579701487 5.610741428359555
Si 7.401232207370529 4.599158613039937 6.462437280903255
Si 7.611183090161531 6.898045254622068 3.1442034320162415
Si 5.226875173591083 6.007531194184858 10.113066950299784
Si 6.712557032639717 6.120235063748565 8.236049069936676
Si 5.614778948351422 6.622338655601586 4.464992250688092
Si 3.927008257657495 8.1907867938237 4.001750582167554
Si 5.921669722245499 7.752706393353125 6.620838221584537
Si 2.1548277239026343 8.983135239365382 5.400096624374689
Si 5.261086581461063 9.747764730237678 7.752655294988758
Si 5.887655447238206 4.245427959658124 4.605079824443012
Si 4.249773331143258 6.1106427678526245 7.8877575937247135
Si 6.848039225056398 2.621881917756046 7.666182905367738
Si 5.400606670187046 3.7742578887826497 9.378956749861132
Si 3.480579444856908 8.248119214891268 7.240374850727014
Si 4.807033263787349 4.155560519481358 6.693131083257742
Si 6.154508729711807 1.6405239040834418 9.808375119585232
Si 6.00976695220017 0.47539736155844814 7.651938804808996
Si 4.255049894268484 2.1271739852233225 7.978353787682242
