23
Energy = -105.71787416 eV
Si 8.492856447009435 5.731778163680114 6.202023081181519
Si 8.300315327420549 8.85103081927474 3.407732642425952
Si 10.339806092758506 3.9812561497956733 5.655612616616799
Si 10.035164693655966 4.980530559128182 7.777261948771754
Si 6.22015895824767 8.32214881032472 4.255122363887595
Si 8.203788943039761 8.179205019695175 5.798840578633148
Si 7.81258616193064 6.475701451394835 3.843220502956433
Si 8.165822710061432 3.340144846703841 5.8106119809657395
Si 5.675704507226406 8.12398798405539 9.549923863016799
Si 5.0714497863072046 10.159899153891706 8.298649850885585
Si 5.7746523502161065 5.4093271688558575 4.466468754843742
Si 3.297583038032006 8.407132413492176 8.778032152084316
Si 6.295661595409855 8.31850222000634 7.197926221161614
Si 3.8207316020222652 8.64789677606602 4.159744666639276
Si 6.1878125854725505 4.942149930484228 6.7931711039347205
Si 4.086537064462548 8.7722314543852 6.529341425514446
Si 3.794651755676247 6.408157680311461 4.963721906837439
Si 6.235232275538186 2.9283982952472134 4.38370653947347
Si 4.636337693112905 6.6139777601471215 7.66967284743752
Si 6.36802879454779 2.413023652531856 7.096440459453043
Si 2.8358148992833194 5.144818840218675 6.701514776921667
Si 4.950058833629024 1.2417168448527403 5.525805516793404
Si 4.318089288768343 3.4315832510365096 5.975824219122103
