27
Energy = -125.57832423 eV
Si 9.186424818941244 7.539793375340079 5.240220138239137
Si 4.234513929084676 5.2924300639435655 7.856271928708279
Si 4.325233159159348 4.3415577410630135 3.7978646290910545
Si 3.124292305022354 1.7852375837904921 7.400220698305421
Si 5.441786683175034 7.5173730863927934 4.63610522443021
Si 7.234331382056793 2.780717320882708 7.245235909101229
Si 3.883310302635159 1.7533590600628002 5.205816988218484
Si 7.359214746802213 5.8382062420899254 5.208621667949696
Si 6.710380758324994 4.241113789139022 3.6049396362566952
Si 1.896837897081672 5.404748523290442 7.1399033611114175
Si 0.49465634135409514 3.7672061008878983 4.163546376375277
Si 5.1383405620007006 5.30437221784145 1.7878114039892548
Si 6.263318533208202 2.299765476320623 5.06546329615671
Si 1.7278897942529305 3.2522413705377247 6.13861104122917
Si 2.591806499395026 2.8344989444871986 3.5187303767222025
Si 8.920514831105491 9.413488593790596 3.6326598803675436
Si 2.2185956990078286 5.384151508049132 4.789986366124243
Si 5.813972512079463 6.705833254683307 6.932787544729882
Si 7.353314677948954 9.313787873476016 5.333829561046494
Si 7.870748341754194 5.21017134785902 7.484901242185764
Si 6.166930749295459 4.165050637511007 8.98376244334762
Si 3.6483962858619328 6.707990576417659 3.2575146748720516
Si 7.963364002120005 7.85511377629144 7.397775061195141
Si 7.417399153977054 7.6045293869416435 3.3132374144320025
Si 7.482326986416049 5.614627495106522 1.7824105501030079
Si 4.920252306952046 3.3563486145547556 6.84085192392897
Si 5.335948310486354 9.062005989885783 6.508752378424673
