21
Energy = -97.52568693 eV
Si 5.107171428486855 5.194726927101903 1.107431854119751
Si 3.120622965806946 1.9409474835854992 5.164911604051921
Si 5.517379835709022 2.0883582497848363 4.707617605597189
Si 7.980723205224151 2.4725934392433957 4.1221825496785485
Si 7.1106585752574425 6.35455740907234 2.2597892463178737
Si 6.358841018629654 3.482710797841282 2.6154748386039213
Si 3.234165320362943 2.8660755538383054 7.33621864836133
Si 3.6555357444307903 5.527534831833048 2.9935464833954466
Si 6.315677054740928 3.5164748970600948 6.5015049876253705
Si 2.5085225950943317 4.300000222793811 5.520270540521161
Si 4.395536360899059 5.375147471465889 6.853553512271007
Si 4.867039868554592 4.365618066894699 4.650184273566584
Si 5.036769728403682 3.8831961101720505 8.532837968129751
Si 7.4286077457459445 4.978812854367689 4.229671450914696
Si 8.621243331174055 4.041529136183029 5.973545127934981
Si 1.5308650817443066 5.995326261871388 4.02051594196547
Si 5.0131899878329165 7.51291721326603 2.1541597396291903
Si 4.7201321973957615 7.790270366148157 6.347049221230739
Si 5.606044248715916 6.697567120561506 4.409078605980182
Si 3.2672298635743737 7.912838010579513 4.1960843242677175
Si 2.412965953522376 6.784130360328788 6.249482899129604
