39
Energy = -185.92057355 eV
Si 6.3613534266685745 3.3061676209762676 3.613166372246567
Si 9.567206045681397 5.632931698892374 2.610692863519633
Si 7.237577317676479 5.468593539483528 3.068263569460666
Si 7.354482863838105 8.501763457426032 4.142279222198524
Si 3.801652363393088 7.492669759464721 3.379679144174627
Si 6.096141607408019 7.473437870053173 2.3597651227148706
Si 9.465810984910556 7.501231623059079 4.174179048540639
Si 8.153424880093041 2.3552039418535338 4.9654801451814174
Si 2.93233672843121 5.4456080223562005 4.264670601930987
Si 4.656252302213005 4.031585780017778 5.029199351444249
Si 3.842874401343154 8.401513786388595 5.562687453258946
Si 9.15108455502844 4.558717310988102 4.701173395612259
Si 7.710440666042433 6.42683143789523 5.837579467948566
Si 6.649094206160341 10.076984796931127 5.765537653446814
Si 4.319854827993258 10.647277170372023 6.214709673281267
Si 5.55038041619901 6.519738521617493 4.782460059642205
Si 11.231627084355692 7.994836067802515 5.704362786831029
Si 10.207543285515264 5.929602215414386 6.287502561431552
Si 2.117194219351633 6.903346264260462 6.393567556683746
Si 6.8458533115419975 4.082851943287319 6.158195627465108
Si 1.0657864162549384 5.044348449584869 5.562511440239131
Si 8.41729124336368 10.766033259976432 7.352941817729727
Si 9.763479706858082 8.688582287362008 7.450704512860083
Si 7.106348717120949 1.9209004332098678 7.230514127220968
Si 4.709805418017676 2.608998224897082 6.940434036101751
Si 7.344832337801016 8.507850088418031 7.399809619184138
Si 4.720506672590136 6.883528637389303 7.291204306972254
Si 5.083189932992075 9.41316686184143 8.093675571749703
Si 9.231591504496516 5.722781324805507 8.420452818087151
Si 6.743317980024541 6.004805188865921 8.285412065516494
Si 7.851886522970476 3.810573337752664 8.615869774639592
Si 4.453181772937831 4.477678325750241 8.35553334078165
Si 7.0429971043786965 10.199632262626729 9.241538215684775
Si 2.7227451933547133 6.1087216278097545 8.592471177820796
Si 10.116477034424353 7.587147145377429 9.622872397196076
Si 4.062648052314322 7.842465048592872 9.564595070422401
Si 7.8077346542907735 8.01513495975636 9.79335786733893
Si 6.019152004190544 4.398513275423467 10.131372747343786
Si 5.984842237772468 6.748246432019571 10.539577416096556
