32
Energy = -145.265661 eV
Si 8.901464566786304 2.771901696836027 4.345421328121247
Si 8.079828403958844 0.8953206284937626 7.677826124787371
Si 9.568890026553676 4.344590805332182 6.125328542092618
Si 6.1019892745337625 0.2500793334927104 8.957459306441313
Si 8.472055745020322 3.8050586231042205 2.267254923391296
Si 5.774204818566281 1.8872086524485479 7.279355232787399
Si 8.44009608207006 5.1090016816251325 4.234201313595843
Si 8.171176327045947 6.3466628186806515 2.277316665004921
Si 7.8742076934700265 3.180366624218859 7.298892527221054
Si 7.1353328405841445 2.277143517387486 9.582148898234117
Si 8.405013547903241 7.813041480131309 4.070861042774371
Si 5.777305378478701 3.9458003779846904 8.571389106373333
Si 4.198976963914323 5.456419143252267 7.512009261543814
Si 6.583336112265403 6.0605081219643555 7.905512025518975
Si 4.5185502637148796 7.5887744620051425 8.360480353613134
Si 6.611257162845662 7.613002232936147 9.747615629774284
Si 12.149168927212163 12.081325133379252 6.514440096485811
Si 7.495400434202949 7.419284413126731 6.187304847929532
Si 5.500020536956102 8.659842779083043 6.493320308479283
Si 10.548421519075694 10.53097804249239 6.602398717933271
Si 7.25865257572848 9.952978329157316 4.707809306025903
Si 8.620100755110407 9.288993756060767 7.05021199983969
Si 4.936407568693926 10.448086063235035 5.1481558431010335
Si 9.955148954857615 12.899383997138091 6.6934172924770925
Si 7.36083834562439 9.804251740273703 8.95115434403026
Si 8.029736563199949 11.551759216403557 6.2290791653696065
Si 5.283433927393463 11.216822709515704 9.63141839832666
Si 4.402086718181604 8.960230566434765 10.285660324837716
Si 5.901191107808314 11.062051438878933 7.290249445056375
Si 5.600110052783343 7.617120556236749 11.933766251054335
Si 7.566431200502165 11.570971524912704 10.557252245218518
Si 6.820009126641086 9.531035182732698 11.37136218943737
