37
Energy = -174.01369458 eV
Si 4.6334130287678335 6.576590060017048 8.898929488865429
Si 2.7780756407087623 3.1215709433513177 8.037354012597419
Si 2.4765046781423066 5.463679464440031 8.786836643617967
Si 7.0712787773393195 2.892167675491175 8.204078455762803
Si 3.769826114422948 1.030624151400541 7.273912584944134
Si 8.11731635635276 7.01201964160924 6.734339854571376
Si 0.5038549854483052 3.226950798696335 6.6769895379957385
Si 2.4072629276795094 2.0784331623030075 5.695319910493401
Si 6.888379332906659 7.56737502287646 4.689412185612486
Si 5.72241160300919 2.0984616657868247 6.338555557261132
Si 7.571234984593206 4.646527789696388 6.682756846438555
Si 2.295199280832075 4.857777102995499 6.194496694492557
Si 5.06000068414995 4.277854844937355 7.945948070588932
Si 3.283048265616784 6.937848234044993 6.876713083536013
Si 0.7154423790530169 4.272164753691056 4.448058986878841
Si 5.6703754221845255 6.284426191428486 6.640247326112075
Si 5.1012354217282425 5.879839795829169 4.210623645183251
Si 8.941206805489228 5.8549713242512516 4.768026681727881
Si 5.022049478000877 2.568986265296638 2.465786591533958
Si 2.5943183413372504 2.9723852886868154 3.474990132082373
Si 7.159902720007805 4.033820248943275 4.463387329727813
Si 6.617687590850106 1.8328352235470888 4.094076595862391
Si 2.0325910154312377 8.455933081430814 5.495366342693355
Si 1.4054223092724827 6.5358899632644185 4.152962128334542
Si 3.206177716350932 4.515909442681888 1.8090251690282944
Si 3.6374324026108016 7.7086500731894105 3.8460045684240565
Si 7.047668925514911 1.2516525786099475 1.765869887307131
Si 2.7544584241418697 1.4247652096251953 1.6354532363913
Si 4.810249327459417 0.9505198583695962 0.6013152817416618
Si 2.193525329688523 6.682631284414753 1.8958000039166811
Si 3.423300971351469 3.0571840210553924 8.898929488865429
Si 5.373148657315562 4.209465785015061 0.587516759859174
Si 7.243466821930372 5.7809337614422995 2.845774324780943
Si 7.456576196080474 3.639048184572307 1.4910071585094602
Si 5.010974362234739 6.276048677065941 1.7626527950316944
Si 3.891625575904891 8.381284390447556 1.5758554444211965
Si 4.4704895492894074 3.99990644269352 5.529580711451005
