35
Energy = -165.31542632 eV
Si 6.135973608972684 5.693220434490422 1.4295758928238689
Si 8.349355890778533 8.906621178847583 1.93917612631768
Si 6.238540125326814 7.844881157842079 2.496724943674625
Si 8.393838580322498 6.505706217655346 1.8730053470259016
Si 6.020351368558472 4.9402759488742145 3.6836341813058633
Si 9.759864916098005 5.50588110085137 3.497501957769973
Si 4.8492340079616785 8.65646544817215 4.233675794499984
Si 3.072832377934152 7.484179708080046 5.42274283701048
Si 8.800044277728459 7.783935343879151 4.023256562944657
Si 6.798613536298864 2.5686759261065797 4.9879848925892105
Si 8.06111584392251 4.589659710665158 4.8455227880767655
Si 4.573470565696654 5.632732477590537 5.429804180031726
Si 6.6707939956730575 7.018259905115719 4.902062226629553
Si 5.93129030890255 9.769721610323804 6.028623562724442
Si 4.451289381120962 3.2416326623660847 5.634464311480462
Si 10.719160450648198 6.971138705881543 5.26500523941767
Si 8.081193301983985 9.985227855548953 7.645300322723199
Si 8.878989359885141 6.050181175357817 6.56790242799622
Si 6.547016216066388 11.843902142399708 6.917347225515758
Si 7.2043905110312645 7.818840685277251 7.0856339982946075
Si 6.809496042426372 2.6452887079692635 7.426694479966485
Si 4.34004260731429 8.42447954146525 7.25148612103821
Si 5.699893412939631 4.909341097018155 7.4435214348094005
Si 8.01006380897725 4.592735950023247 8.222532197885027
Si 4.201999560943785 10.798151924320013 7.682301064512058
Si 6.275036423526089 11.010784506956274 9.199659645818306
Si 7.198865825823973 8.795865969757307 9.704408997828246
Si 5.632738479849108 7.082345534180697 8.825676786595022
Si 4.365584817524094 3.021800981289713 8.195269491179053
Si 5.9046909784513195 1.4398310980143545 9.296739118719316
Si 4.598934640156399 9.263772343121877 9.689681279022409
Si 7.900939701578833 2.8903232924094833 9.932048509482184
Si 4.397723735113267 5.098769944541505 9.567611838259996
Si 7.027645607637334 5.302019018986281 10.331490587624984
Si 5.598985732827146 3.413350694621157 10.821933628407079
