33
Energy = -155.93051505 eV
Si 6.323466359818666 7.608604590859667 2.9600470306968676
Si 2.747825955487506 5.5203643998099805 2.830633978982548
Si 3.931454252689802 7.561298588294429 2.9840429464300597
Si 6.655927833356405 5.327001722483466 2.542393852914531
Si 4.75309155305974 4.700399863437436 3.945856272798922
Si 8.817078363767944 5.0436291861115015 3.586124229216179
Si 3.243502743656479 9.165343339573395 4.499459971617783
Si 7.633172639639266 8.408423072530622 4.694737545396459
Si 6.896784915037851 6.02674860907987 5.004397823556295
Si 5.345144992094842 2.5992618139956947 4.950978082963911
Si 2.675709165338932 6.5783156194375385 4.99162153381641
Si 9.440343290978975 6.9059273100031096 4.840591916074597
Si 7.47625039523338 3.526238464824124 5.20676656455601
Si 9.878549956025086 3.4727984563299565 5.062541247553815
Si 5.291078392005801 9.305100819682965 5.625230131023898
Si 7.349662035948179 10.270840569597205 6.079603724601933
Si 9.824292597684732 5.42972656392621 6.59578331281267
Si 4.683165242798441 6.103397625322762 6.169169027424108
Si 1.8147634008756794 8.396058080294443 6.30350546709798
Si 4.082609428658797 8.167050474648757 7.236450003322186
Si 5.96526007985461 2.581439101313783 7.361468769190405
Si 7.645184378279561 4.4348714419107464 7.428671663091227
Si 5.161234643354133 4.724408246123794 7.990640458964131
Si 10.8963030690709 6.009890302106651 8.677202237302078
Si 7.51879265433853 8.881640502423833 8.0657470323094
Si 6.89569149575569 6.542388779315943 8.323208496865567
Si 9.192422160129105 7.626513926243582 9.319525779285271
Si 5.300203113230812 8.310927838894337 9.299694459367181
Si 8.911025627869009 4.960856199146486 9.353420266667152
Si 5.26109438986523 6.033200053279968 10.062948460107725
Si 6.904361014919257 9.78987799748402 10.214613624650413
Si 7.537972131627845 6.207743444566638 10.788758187917422
Si 8.446581727553895 8.279712996951375 11.504165901428523
