39
Energy = -184.33928109 eV
Si 6.777359856111697 7.723081520882242 2.5866875113036754
Si 10.742610226756298 8.074935709390102 2.367491380188627
Si 6.867760221574238 10.11545491579207 2.854540417163523
Si 8.878550925648277 6.764230318051483 3.051487285888653
Si 4.789603127380824 4.0484821099481785 2.679156846708695
Si 4.8971034015172945 6.3818052652723525 2.9780743099389726
Si 6.7716514801732615 2.9606123249804996 3.4192940228074353
Si 9.547231324780434 10.002639384132879 3.359829555110777
Si 3.0718888948453458 7.815702764956301 3.457689191455959
Si 8.302424204768869 4.693782628344231 4.005280046249153
Si 7.867068397661926 8.734022344178976 4.662932848034193
Si 3.304963874205539 2.868362572152842 4.252613147370795
Si 5.143296069273154 8.892413084511986 4.164959009945857
Si 10.146595614623358 7.98874725242565 4.677694488765639
Si 6.053999776027053 5.03850740417271 4.719646551405098
Si 5.472794602727757 2.7600352953273757 5.424598586787687
Si 3.426348015983147 6.8786192195773594 5.621666465602656
Si 3.6564608722833984 4.5345088027594365 5.862782896637916
Si 9.3395826058664 4.678926969322531 6.083472878246502
Si 10.68324562170147 6.515528064126351 6.535967754026296
Si 7.376957480588187 8.636847011200922 6.978759643340208
Si 5.087147342339687 8.65649687048225 6.517652630884448
Si 8.276253735740013 6.515324141167661 7.370670206251038
Si 5.622427479132673 3.1217228951835625 7.780255701953671
Si 3.4479220657725547 3.759905217324118 8.068784401193117
Si 3.2125096763323304 7.61902907070893 7.813828280388564
Si 3.7839142520696383 9.906585839872996 8.074685251910475
Si 8.636325215582007 4.350955471905529 8.292171618373914
Si 7.890858491557385 9.954171411489593 8.964940829810882
Si 10.184295331059182 6.205299328852574 8.914959142795901
Si 6.301058255125524 6.7691681592708655 9.206361907391472
Si 4.010390990592929 5.768275578534358 9.164911957948755
Si 5.610900498349305 9.16026962225322 9.453334361733084
Si 8.503128135470552 7.739665214230037 9.667315410142253
Si 7.185326966828552 2.9256490547241287 9.526146360260475
Si 6.096535661565639 4.809323004394026 10.626105960210579
Si 5.251320134926065 7.7739645343600605 11.314314487714705
Si 7.336921608161679 6.673614000088703 11.473725224060566
Si 3.9452675648973057 5.6833356236528045 11.525211429999821
