35
Energy = -165.91232381 eV
Si 6.345252882042837 8.736078528559162 1.7681477771227123
Si 7.226091682189096 6.583475472576303 2.294088549705103
Si 6.7247023663856185 4.329789045744973 2.750594083765088
Si 9.389815206596921 6.945541722443389 3.147858952414989
Si 2.8488546933861025 4.172317614238699 4.500596899646457
Si 5.3307090464914815 7.850402463167869 3.7491504521430135
Si 5.228950396992342 3.8867513209748576 4.63353061680686
Si 3.5014587616811235 6.499501119540301 4.5860163923528
Si 8.040037425175324 8.76259789871549 3.5621005749113603
Si 6.4010038836213825 5.902091450786599 4.675134944737149
Si 8.338167200383278 4.115797591312058 4.500448638669279
Si 5.725295044889845 9.13339284720107 5.6800219371812535
Si 7.87524806224739 10.291133105644455 5.504589088591716
Si 8.44028020959801 6.2312656820377015 5.925488492132795
Si 10.346185104064212 5.418361665213686 4.792654053651429
Si 2.6612709634496827 7.343600193435619 6.618028713159535
Si 6.944457865061925 2.4056530547613555 5.482078065253374
Si 7.713038007113785 8.256146782101888 6.880893218521664
Si 9.209540033778572 9.965679712776279 7.670831744939671
Si 3.329696228226011 5.133182895027568 6.628637952161466
Si 4.639304970727267 8.320995645237836 7.596034475717193
Si 5.74382861768148 11.543337737844196 5.843996202937355
Si 7.702947007732006 5.187466112533621 7.923655111798547
Si 6.727724772090362 2.9625416225635264 7.82729221076963
Si 5.214942901064529 4.839377479538487 8.012389045359905
Si 7.320058103496706 11.672601436422765 7.789676033349131
Si 6.275650265857837 7.087861712442427 8.81972668602172
Si 7.1887520607815185 9.435813305936195 9.031600878717956
Si 8.635647103257819 3.6630928899499957 9.482232279241076
Si 5.158460007477374 10.622089140531905 8.123951833039698
Si 7.803321625596044 5.850221194818427 10.375483844852306
Si 4.822565805353109 3.089558481920148 9.622165175131205
Si 6.962735518309292 1.8684124759392904 10.004604541465259
Si 5.015945756190218 5.465298603279336 10.384887182754582
Si 6.668060421009421 3.9285719947817963 11.311413350976492
