31
Energy = -146.59794719 eV
Si 7.835752394558715 6.606566163021678 1.6596274399592335
Si 3.8128513552067766 5.696702501602201 2.958276448303437
Si 6.1595232011227194 5.186987617676786 2.7490545969013307
Si 7.113821565593882 7.870934450404639 3.5902431876120655
Si 9.190687924894258 6.259820718717854 3.615339959773793
Si 5.033833180333822 7.067415089929324 4.474991928643361
Si 10.876761445426931 7.772348740698292 4.56198403428572
Si 8.733620172550548 8.357852446251492 5.277994026576578
Si 6.775269222397027 3.6237493529619407 4.3522690195516045
Si 7.021046698903317 5.90799558524049 5.288144281829686
Si 3.9662109264040897 4.72867498171156 5.1258867351788355
Si 8.905364175591453 4.33781296968114 4.917337227328632
Si 5.16988571221796 2.8177139451388586 5.8780495677833535
Si 4.0483854405357205 8.063374411108333 6.470965717373491
Si 1.6880077632492982 7.725969458090961 6.954822032977733
Si 10.63856681066142 6.81066285345483 6.820796446766825
Si 8.227625526560937 6.788040344777821 7.215449404427495
Si 9.694353090712008 4.699234163980621 7.1058764288953755
Si 2.76068510157498 5.652983539420778 6.972412165514902
Si 4.243321781063152 10.119222255352225 7.87429210687183
Si 8.330788551357148 9.21266997098789 7.569263081792037
Si 5.165570379373421 6.552344491983664 7.944363685083098
Si 3.133105174749127 8.233584978731292 8.826858138948765
Si 5.824453430937702 4.253217243180108 7.666402108334991
Si 9.84312019479732 7.891347456836336 8.840332544151085
Si 7.9081481613190245 4.963571845589041 8.69517668499568
Si 3.8099391943523764 4.673201775931984 8.890401568196985
Si 6.302740531021711 9.306739838934808 8.655533982319149
Si 6.478322805789051 7.306794324859597 9.844760037084288
Si 4.200724488993021 6.630993647503412 10.218900122650425
Si 8.607513597750263 6.381472836238416 10.484195289887392
