32
Energy = -149.26370375 eV
Si 7.660528794312519 13.10187679130764 7.970653948434936
Si 11.535963710853634 12.116238044035649 7.501710349078872
Si 8.460961973346052 10.505429782546395 4.709960448151114
Si 9.870458654160354 12.949606057867936 8.953788135206104
Si 9.264192831046076 11.55343146068608 6.8634742238506945
Si 7.465616213568534 12.667104361571038 5.477358368164403
Si 10.943025784582076 10.52924226577331 9.165319397347405
Si 9.792934482403629 8.804390328972922 6.0055689962305525
Si 7.4399617009542665 11.449197668448338 9.69850363255293
Si 10.01065211656278 8.446377261604548 8.455351526365549
Si 6.392691809224427 10.653913900021596 6.2622547694817134
Si 11.185856188014561 7.19782607792012 4.97539638910563
Si 9.722490451129126 11.591368780054507 10.85769541168658
Si 7.9860347706234895 9.794381338832487 7.860155408895059
Si 7.3347114738373635 8.32879371326097 5.517259141363142
Si 4.976879976121422 8.817433928760543 5.5253821191998025
Si 10.604058167009823 6.435709280121903 7.257873927188737
Si 5.889337061764254 8.03087154616552 7.575936327307001
Si 7.664922973637516 11.46152532438937 12.057902346259686
Si 8.91678131903841 6.543803776576179 5.121300109051285
Si 8.46303606480426 5.348214289735323 7.217860179880732
Si 6.379279894631132 9.26379691713111 9.64851033721153
Si 8.490714382455149 8.035445715899947 10.23198866697877
Si 7.254069696460753 9.017020967079628 11.92008591889639
Si 6.23570238481631 5.688822471061512 7.82419298708121
Si 7.810973959990863 5.848204260775049 9.780624244631346
Si 5.846225843391462 4.342456786246969 9.793832206248238
Si 8.209778371533904 3.559754545306841 8.832312083498904
Si 9.943583814547491 4.642583582749453 10.351303445646627
Si 6.89598758052267 2.114300188672827 10.32815404619585
Si 9.375211161085295 2.3210775895553697 10.49888239082134
Si 7.8486670724908185 4.027757773753854 11.642570829673131
