32
Energy = -149.85014253 eV
Si 8.751354327748052 9.265364406276113 4.693755612529944
Si 6.6536765079590365 2.3872823859374885 6.957614657911385
Si 9.605909386035632 7.3666299468928305 3.5090903265754
Si 4.241030290672386 7.705600675618287 5.9842265720652525
Si 5.606671833795136 4.4023235608216815 7.792417185712104
Si 7.366783729253969 11.635612691882075 9.145118313045188
Si 7.840522500367881 11.469087686851188 4.636232820747484
Si 7.681416449195946 4.483079615396534 6.296746449741216
Si 5.864623135492029 10.191831647170511 7.992313202994921
Si 2.3392585430183455 2.4288149946336692 7.699342320076594
Si 9.605089466218772 4.806277067753424 7.782243715275922
Si 2.2539767129938544 4.250774581699762 6.086277631048975
Si 7.270446601970136 3.101365270564698 9.279314340085726
Si 3.7710938942169623 3.7052183681041297 4.269029643762912
Si 3.3776220581651044 4.404868273005519 8.548226649092381
Si 7.717364237524369 5.9794552680659105 4.388933236072614
Si 4.309876817381417 2.604369754941237 6.313070638557115
Si 10.960697226386243 8.638178814651491 5.5003985621954605
Si 3.7828132858205987 9.99227932741937 6.532436480809919
Si 4.642114309549573 5.295664003501389 5.776447786123985
Si 8.940011160992675 8.343148186196826 6.88606710038748
Si 9.868089255783715 6.307751534164437 5.844014612995841
Si 6.721890886768904 7.753777644421665 8.206529898636669
Si 7.964666238952507 10.971879975804924 6.955084143577795
Si 2.66471822425095 6.300431881246108 7.238423429208754
Si 4.31473268640701 8.274649751907642 8.403538515246447
Si 6.0916402000130985 10.009729193772408 5.535984889053948
Si 9.040202369303234 2.476643542890178 7.664250942461882
Si 11.77141588668029 6.701198432116795 4.428395712338185
Si 8.394826124738671 9.343866699047208 8.938592000712816
Si 7.539695753042034 5.582178563304285 8.599754353524148
Si 6.732612177749772 7.69017013250831 5.724147505995044
