32
Energy = -149.56606542 eV
Si 6.834134817308876 4.886757159842403 9.310087701774938
Si 1.7890110815105522 2.92311924134342 4.435239196185664
Si 6.315372346647622 5.718114974695786 4.488157816475198
Si 3.220828122426122 2.5509355781859955 8.075963413018885
Si 0.9573052499754069 3.245732226097011 8.534040253463695
Si 7.437391542748779 6.877452117335753 2.659187397417468
Si 3.0884805863673837 6.3574945844808335 6.803698044686549
Si 3.398556845104121 4.381226173267532 3.428047441190098
Si 1.9808419273958326 4.196935631135949 6.521687167784641
Si 9.248406550863624 8.168479748269684 3.5195005789075418
Si 4.651649503282381 4.108826197744904 9.17756461449765
Si 7.684850026261909 9.837794446731674 4.910859182338651
Si 10.057792984902944 6.542046794656877 5.304935682002279
Si 3.972228929233657 6.40747585024651 4.538746463288595
Si 5.320564760927832 5.653346044272778 7.3371061447784385
Si 8.2175136777054 10.343593117064303 2.6691897994467677
Si 5.560111525937398 3.5158525584341453 3.712201341997033
Si 8.074382578207251 8.502373609959573 8.700938070549723
Si 7.482783941575456 4.539495467384001 2.5952136146857963
Si 2.483628503968442 5.005267389917377 8.916449510730102
Si 8.664173345848406 4.252681708416528 7.848702246369721
Si 6.202092599573781 7.164833648552325 9.546914617968145
Si 6.287802204672059 8.961179657978077 2.8016079894076173
Si 6.045808023689373 1.9316765208820115 5.399773038503569
Si 6.309655169680338 7.840772721599948 7.243827710687908
Si 8.881835876166905 6.624649499980012 7.478097607401197
Si 6.862145914435774 4.0412685300626485 6.260018632605573
Si 4.007098105403468 8.642925351922987 3.5760043335498213
Si 8.69628425532669 4.611602811808397 4.687426719855683
Si 3.7427515418466935 2.619367033322084 5.67355405245145
Si 7.787380278358499 7.376566553495187 5.342151659383256
Si 5.4950729315104185 9.008358971561323 5.328160150364407
