35
Energy = -165.16613649 eV
Si 6.742697230548395 4.434496797242059 1.772982737546823
Si 4.312269929802122 7.2216659027286285 2.5123135689241547
Si 4.571429030118114 3.2541384174040537 1.6397612228060423
Si 6.584875049022444 6.5727206914428224 2.8787387460316136
Si 8.273680439284508 2.7739174973358476 2.486047946554874
Si 8.469999752861844 7.7909090120212126 3.665642900820415
Si 4.168033763780955 4.931802133308751 3.2576851823461745
Si 5.979535009107237 5.026582756161817 4.906363145772189
Si 6.040127840402392 2.556637156179156 3.34645156188737
Si 9.690084294987063 6.077623855636382 4.964075575304273
Si 8.320747330411088 4.265688236032603 4.307549698281536
Si 4.288894271070824 7.550464026807452 4.820915240836443
Si 7.561994653900059 9.973574490195258 4.633957767582072
Si 5.48282556176165 9.259696665220742 5.718314133123399
Si 6.832936424526988 7.295029789272465 5.3715277452558725
Si 3.6303233349630744 5.3869444926476175 5.642019853394425
Si 6.845301216029456 2.7624766919915444 5.572049864623519
Si 8.212913552719801 10.411383954337943 7.041476470421413
Si 8.330421164230446 6.350033649920012 6.910005822725622
Si 5.231613804468539 3.7605221096795187 7.07302099081769
Si 6.026589839609802 9.639303123610931 7.954541934286506
Si 6.648505578355395 11.90592479113568 8.23155193648868
Si 8.227295950570907 8.279614926354132 8.232536137830886
Si 3.430097817285622 5.295773204142898 8.181645759992191
Si 3.6918022241663104 2.9267289506076253 8.707241461228447
Si 6.978312104121125 4.959854589994719 8.241451805251359
Si 9.989485239867458 9.825522749336747 8.655931055391415
Si 6.252678168435555 2.7214191440982702 9.282667340170342
Si 5.363883879318618 6.189843916785091 9.440136214248305
Si 8.491360764457967 11.381068991124215 9.929807255424857
Si 6.376940074613867 8.2682125442167 9.86695317164749
Si 6.211469683893878 10.6322035528358 10.377142151518168
Si 4.645594128042174 4.140901021059762 10.684919377042743
Si 8.574294634939749 8.986862037432703 10.60344402509603
Si 7.020986258324025 4.690458131698779 10.589130199327219
