37
Energy = -172.81181835 eV
Si 7.860304747777577 4.0695695585554 8.694690068700282
Si 6.146179343779899 4.665552371965945 2.032417890211905
Si 5.237816980846428 8.473287077197202 6.351475528893904
Si 4.7873486319196905 10.136407051951382 8.084819281676431
Si 9.878896737582771 7.878464166034481 5.9555168105669605
Si 5.066417112683565 4.495312874654858 4.398921389211816
Si 5.819760712257252 10.90425990106834 6.114457083681752
Si 9.311464552552318 5.911673689030187 4.562621564807476
Si 6.304171934211474 4.491849440772612 10.814578089634827
Si 8.230377484223037 3.5640909214359686 2.9986782755098833
Si 5.888574879657858 9.370413946959703 4.158154910172634
Si 8.023484174794616 10.906470250387397 7.128818005915759
Si 8.123378847811816 6.012358062862142 2.3928409206342627
Si 7.178396350782657 9.576369123169869 9.099946427169574
Si 6.081238722807042 5.183516408592116 7.4743244389971055
Si 2.686069948452339 5.498742526986902 7.9074327343143125
Si 6.768399564093528 7.174492490089525 9.29834162679531
Si 7.542587594766787 7.882288444789693 7.136980431767521
Si 8.966283720731022 4.638688628113506 6.55887693949669
Si 7.0149875622720135 5.893779795251321 5.430502041977716
Si 9.538979125040198 9.059003802174047 8.545420122284428
Si 4.692633467277122 5.984069698055546 9.282062129453713
Si 5.894775483956665 6.765994300282012 3.5122863556629635
Si 3.2876863854733926 7.144706531214208 6.214509253351916
Si 8.093697698342433 9.34860085264043 5.2696761319294225
Si 4.529195014043725 3.520158730645191 9.482033951476073
Si 9.511851607324243 6.636396458241967 8.025228268124074
Si 3.4517367307425855 8.916715510820161 4.404267902860445
Si 3.4692890543154755 6.41570247733807 3.8810663347184593
Si 4.118420112275563 3.973129242348927 6.642665089342421
Si 5.985512876476482 2.5527203542130246 3.2424143484214523
Si 7.236574064483129 3.3939232625548996 5.289935364516715
Si 5.905871636237782 2.634996013510998 7.307681885026245
Si 2.7673993488157484 9.500782219244584 6.596590788362096
Si 8.449496149869779 5.773896140083118 10.306926976810166
Si 10.313889655608579 10.226189611720738 6.541502088608243
Si 6.6137600476823675 2.2023352844266095 9.638245708112919
