31
Energy = -147.03479235 eV
Si 6.310363386386601 8.848997841251636 2.990226000767956
Si 8.05688237967946 5.296539973724755 2.757275831781472
Si 4.738938576346204 7.069177104733683 2.9471958870123687
Si 2.3481791111006194 6.9430444788964785 2.6765559751473154
Si 5.9311258184138715 4.9560719874179675 3.701068880564623
Si 4.4856411370442375 3.0747109666922765 4.0337879723428705
Si 7.770487768319638 7.276301788683394 4.097721391083238
Si 3.3827083404292058 5.1584061444465625 3.839009873484471
Si 9.067614182859014 4.1313739856303995 4.616773006153733
Si 5.208742830327483 8.522468472790434 5.064154394168515
Si 9.862764873054164 7.823764008666803 5.144106016207521
Si 3.1111144774982438 7.294236014577649 4.974562179141519
Si 6.131678068126303 6.385384945882867 5.8212504134960765
Si 5.377159319256093 3.978868844417373 6.068599497172013
Si 10.065438260359134 5.659381861920873 6.0620435361465965
Si 7.701924830229966 4.199575310129702 6.466798806723475
Si 2.345570477643292 6.806757690443271 7.195146768493531
Si 5.0847782102343935 9.928012469114693 7.002870256017425
Si 4.39473102579011 5.650287450000182 7.419912088751792
Si 7.311457662394551 6.512118259036248 7.87031123191625
Si 9.058541405662291 8.247076486003753 7.264732199328755
Si 7.0041952203759195 9.016893936568339 7.946165442423286
Si 11.13913635473706 5.145952954868835 8.176774637865831
Si 4.038805737185014 8.139430100225052 8.19205542406452
Si 8.921423954004524 4.406161180021682 8.467617232226946
Si 9.725741657596265 6.874646378248088 9.056755144368177
Si 5.399625748397879 5.840844412080335 9.570711099775453
Si 7.619640895502529 5.3467025308537055 10.198639689303645
Si 6.756810451984793 8.013264007415295 10.070563092782404
Si 4.437618987544652 7.766997594168063 10.569189009518015
Si 8.710132340564735 7.1855243101378505 11.236400510818632
