33
Energy = -155.5940981 eV
Si 7.529766321483119 6.65934114116705 1.7550830364826204
Si 8.936177791696116 6.06986427585078 3.5967234829778607
Si 6.389011315975653 5.667505159686073 3.611947665876746
Si 6.055064821795282 3.41681398278323 4.492500456218924
Si 4.325687503746109 6.593262516918625 4.451895951403023
Si 7.221620171936611 8.496668376984244 3.334518174659191
Si 8.257855730868581 4.489333929932714 5.272904362466207
Si 3.2240560723011216 8.631755964322604 4.739733342849587
Si 5.987369272459662 11.771912053169464 5.193747525923751
Si 8.756280389307726 8.801639303564185 5.063306675091322
Si 6.69842237157678 7.37427263302974 5.483003116556518
Si 8.105678870350353 10.784563191200734 6.223083650301381
Si 10.49111928529536 7.203429785294249 5.038062387866015
Si 8.739853682119435 6.467590146898242 6.468814095510179
Si 4.406397201726435 4.7014802351531335 5.836730673818937
Si 5.350569035266265 9.661964821858474 4.275528689760239
Si 2.538210301457911 3.522528704626246 6.771081563119368
Si 4.139746013831606 2.21240665019388 5.563230185031743
Si 4.679675300454418 7.951415024067719 6.6270528755708495
Si 5.658962031738665 10.121311882155423 6.787063904624645
Si 7.703135662923239 2.318104779645024 6.019385377962132
Si 5.1297660765141195 4.9262255779343125 8.014408646514712
Si 8.515190135350235 7.428365689498981 8.61369811587438
Si 4.22966362542932 2.687038824759641 8.313038980715081
Si 5.819490355208623 1.2009433340808036 7.012042393130034
Si 7.726800653210758 9.646116924332183 8.271032193443716
Si 4.216863483598135 6.974963995218065 8.821501740659667
Si 6.3324743361705735 7.854312341928501 9.427476476346719
Si 6.774425262388664 3.1743186018574345 8.280707817168853
Si 9.539852613195636 9.156432023565444 10.001872874152502
Si 8.092160744284396 7.473556229968321 11.05745830240316
Si 5.716653046452949 1.2535129620157321 9.430447271139478
Si 7.212000519882727 9.807048936336002 10.650917994377384
