36
Energy = -169.96049558 eV
Si 7.187217860452742 6.144361171604038 1.6938944406030774
Si 9.531251645392318 6.413235184888314 1.9976613810364356
Si 5.904422338464239 7.9485853746120805 2.525562220171141
Si 3.6997108048555676 8.30199733973307 3.1689297581394995
Si 6.458560638654866 4.006942602770976 2.2987864391841426
Si 7.43104867527018 9.740463531584233 2.66731006787833
Si 8.360721252378358 7.681625625600881 3.7190144613910006
Si 8.460517305816397 4.765732882129951 3.3573151964272983
Si 5.252282183280752 9.836814465542187 4.23577965197891
Si 6.723013820631842 11.662831588945828 4.065606626298108
Si 4.033778470089257 6.703450278906565 4.9431087776743095
Si 5.143122234213672 4.779431242046111 4.1620085224992165
Si 6.770510121882363 6.3835632948422525 5.031623175541632
Si 9.639561989659368 8.84764955200457 5.409733550424884
Si 7.523220946891108 9.919796116878866 5.455076495518561
Si 8.27377196541688 4.535564377075059 5.750958370892377
Si 4.985277986470659 3.1619329359467896 5.871237100427811
Si 5.590038911730025 8.324263087272278 6.069438610233302
Si 7.12201592658216 2.7402605848369754 6.752104124641424
Si 6.915082514016646 6.713618476238454 7.611075401771361
Si 3.168599158796744 3.616051882228414 7.336444204798803
Si 2.915763742877238 6.087547152837048 6.9580961160028
Si 5.128278687156533 5.083650806726542 7.280583984878927
Si 9.048825078633032 7.9958597498253114 7.563282214714434
Si 6.979667477008124 9.169413515747173 7.917768501537488
Si 8.823400930049878 5.3535032218561405 7.930660842857607
Si 6.949904386614954 3.7832358202119294 8.872890645511356
Si 4.527530783875435 3.797555058928553 9.330446101138488
Si 4.005403666160313 6.445231695100193 9.156847691342376
Si 10.137070137027703 6.827242367191309 9.309298224692467
Si 5.924550307949623 7.816693629904611 9.63908516816662
Si 8.089695556931202 6.532631396074881 10.504462855340707
Si 3.4018984573572792 5.102410613119463 10.99211803122893
Si 7.584611113695789 4.298815605243459 11.08747930661133
Si 5.685260679257786 5.656211938706535 11.419304468388832
Si 6.622964559741141 7.820378148120961 11.913559585338177
