36
Energy = -170.4994322 eV
Si 6.947668171758664 3.724092470144297 1.6090701575539816
Si 7.707177081772997 7.1290943068768495 2.684629566803536
Si 5.8295572050903415 5.837499068879523 2.203508002961775
Si 3.525248466385336 6.444595624782925 2.6569698849672356
Si 8.295098565621142 4.908347053179719 3.219518627924653
Si 7.497438046843177 8.615579202004366 4.550011501694109
Si 4.4361960531360465 7.673662249650339 4.565196211620957
Si 9.519360104775947 9.47475507570677 5.5468984980213065
Si 6.095529333801539 3.324057161546521 3.7760657825218575
Si 6.4395206007955395 6.1826871824289205 4.790389155801213
Si 4.334032822429162 4.780863727083168 4.169488066093282
Si 5.445439596029773 9.836308059119085 4.722500275829059
Si 8.356388166494735 4.911806153429504 5.573291999726386
Si 3.094974134748298 7.619680943003797 6.55605569289855
Si 11.231517693540107 7.859669029133317 6.271052009737572
Si 4.332908069542353 4.610164557200142 6.518862519041722
Si 6.437301048358701 1.589851098819726 5.441011104839837
Si 5.352644513868258 6.612922623438614 7.396428154806769
Si 8.069888277098395 2.842290154292175 6.616303962046525
Si 5.593553771863234 2.8360491187777446 7.271674900000765
Si 5.9592877033926905 10.024681689986258 7.046255004462409
Si 2.7212702405066382 5.659894811395604 7.8132684742109095
Si 7.377794627521617 7.861786308384091 6.804250296703905
Si 9.313910825169565 6.440374435331644 7.1576736759202415
Si 8.294258066561467 10.446984769839668 7.329053274106109
Si 9.996694230666819 8.66603301701832 8.010961729570035
Si 3.8601143503109876 8.188565167017591 8.679395888827363
Si 7.573139560841693 3.6894247528397415 8.71127177384629
Si 4.999632788351547 10.233476255096976 9.192997320909011
Si 4.965768809399348 5.392683318309057 9.683553043908358
Si 5.540366090498725 2.982338132798953 9.652357173587827
Si 6.99741864504891 8.968385636419168 9.292592830090442
Si 6.9492959781861945 6.5917843756364425 9.507881528950723
Si 2.861770392270913 6.465786465990668 10.075868508552254
Si 9.067016356528049 10.126119193687146 9.595507489615414
Si 8.993666853168678 5.460554053128597 9.321033154225054
