30
Energy = -139.84200132 eV
Si 9.008408035544297 6.2395613709354505 3.3202496903633762
Si 3.7902727051418825 5.699486728110481 2.1385775986923767
Si 1.9676205426399425 4.803253379092975 3.876672633027265
Si 8.65946734793008 8.078263424528275 4.870993289229765
Si 1.5112655915387074 6.412913023699088 2.2167753144801616
Si 5.422905824821246 7.221985237757236 1.0824607109268838
Si 4.636651418238251 4.134066537946959 3.7705198862997413
Si 8.986127160223694 6.959175048320192 6.950055957506924
Si 2.842206415744809 7.211836977456227 4.097833021499419
Si 6.915113443143709 5.823365472523675 2.276247349873921
Si 6.7122760171169515 3.458160343317531 2.823916018393222
Si 2.897054271985107 3.8153412778118696 6.622812196186658
Si 5.17561096841952 7.556957925623918 3.414336695200486
Si 8.066960068740645 4.374138217069592 4.609171505049939
Si 2.8461423474563436 2.6790952364510625 4.472511994365286
Si 6.860371005683697 6.3640675916109535 4.753884952705019
Si 4.483022835923539 5.5094422128177785 5.807525015563601
Si 8.571092625735231 4.7051692470888495 6.89186242048526
Si 2.7824705158197505 3.3258747227154886 8.93503985885868
Si 10.977870141404738 5.5951169385135175 7.798237226923519
Si 6.369153126205186 8.73481797575172 5.224964459511666
Si 5.551574450580789 7.334709622267286 7.074440276309431
Si 2.0830501616152053 6.075473413594985 6.079862566990628
Si 4.774565439288878 4.65837175631491 8.192099077027773
Si 6.918201349418548 5.805133014224754 8.322979298166409
Si 9.699544659207623 7.086740476406616 9.238159337501548
Si 9.380111680348367 4.589135460649574 9.228099062435692
Si 3.4806911527828235 6.8242949005448255 8.015395538839133
Si 7.8772045555172285 5.986165745075127 10.503063003892603
Si 3.2775013085841014 5.46239388857966 9.915761210494873
