35
Energy = -165.81583599 eV
Si 5.033853033944785 5.474512728457436 2.1971682149427862
Si 7.236951224255118 5.185502269277133 2.9757678664082294
Si 6.274147384872629 3.0802116574883684 2.604481656003489
Si 5.1398220640815175 6.289922871511254 4.623613329702512
Si 8.988255804016221 6.671181013767316 3.3569516623197804
Si 4.449430589187242 4.025649877136416 4.05960715669943
Si 6.531453898625423 10.118808292244832 4.977942285064168
Si 8.108303266489402 8.309453898512071 4.849646017176185
Si 11.315068184102927 6.405555928295964 3.929285895101373
Si 4.688733776715242 8.58829652777113 4.974515835612693
Si 7.373298529217672 5.9554445716448 5.481340386583616
Si 6.555573442929255 3.622976040243074 5.039055835262931
Si 3.002189188474723 5.803633871649579 5.894773720280511
Si 2.6155367444346638 3.436696524090441 5.470170091437079
Si 10.473686964975832 8.340096308457635 5.2503562149912195
Si 2.557139872257615 8.246323899661855 5.9720014082917645
Si 9.87125808551866 5.916864581197288 5.657499047762437
Si 4.447860127270347 3.3400041874056354 7.093170716903489
Si 6.6752773297052705 2.314689221509057 7.026115868130501
Si 10.248710985110167 8.205619821283062 7.636487768482271
Si 4.674558284409624 7.980633824594794 7.324716810122022
Si 5.06679072595433 5.669519706098218 7.424877490476476
Si 2.713564763766636 6.318488915804357 8.206047562707534
Si 2.60987083808527 8.774290938232314 8.43687682881919
Si 6.669332977627115 9.75681610761346 7.327135557946649
Si 9.353441782048051 5.773101129104144 8.024965183063003
Si 7.782305630365882 7.6426878762199015 7.787901444015759
Si 7.3034588276032695 4.543094198287369 7.736815214727616
Si 3.8816647287837207 4.425233546320015 9.250465188029661
Si 8.818166240124125 9.859178361779101 8.505021971680609
Si 10.76987562806078 6.862140865998748 9.632609010023396
Si 5.0595489483842355 9.555549813725584 9.139014002078872
Si 6.455481176516457 7.584047799048372 9.840973466866197
Si 6.056437332125243 5.270430902475442 9.650549114068449
Si 8.698951619959772 8.153341923092905 10.14208017821825
