31
Energy = -147.45557407 eV
Si 5.808572724137591 7.539974104959094 2.946712219863567
Si 7.199711453319816 4.256032234934302 3.8795718725037407
Si 5.247019895298218 5.179923246377603 2.8458477275489202
Si 9.246301632098612 5.534744325635993 3.9456185533570403
Si 4.49508127109688 8.758704655358441 4.576755045555414
Si 7.832127772654313 7.377561474869958 4.2079591425473755
Si 7.859585575856708 9.408209946660717 5.340078977442839
Si 5.886743742571048 10.71386673243721 4.849438976645731
Si 6.911763212865388 2.058957567109909 4.685586474753983
Si 2.180859913374544 8.595498088626751 5.1687138264830645
Si 5.412307327082856 6.335775422697492 5.01122848312936
Si 5.333612655504684 3.3889877434161058 5.854324779749385
Si 3.61266295766097 4.566849073421028 4.59617416548715
Si 9.008085488566078 5.234279404367059 6.317316607357264
Si 6.733738810911066 5.698238059812498 6.806022305728927
Si 3.1072198798596795 6.512914360617969 5.921501657216314
Si 7.917921611918659 3.124128987074102 6.580489061803582
Si 7.3108160452190685 8.074617388535684 7.3258151337511075
Si 9.11392234516582 9.87782561710286 7.322672894686932
Si 3.5283075081407427 8.635053779116692 7.201444253403027
Si 5.582897235772395 9.745683510623673 6.961579702893592
Si 5.776194926322987 3.5032730643225674 8.154302129796262
Si 10.40485543367871 5.537777506309075 8.234538804563293
Si 7.819852171085818 2.573735578579707 8.87176015223437
Si 3.2217214434817443 6.577042460815376 8.295359699896881
Si 9.525508924854641 7.729881341230899 8.365174087974902
Si 7.150961699861058 10.181513015112461 8.750830434812935
Si 5.430603654398393 5.772011749821518 8.807767662165887
Si 8.318710585686887 4.898052894555535 9.25230114130626
Si 7.683745910074548 8.041331904660337 9.72654387506036
Si 6.838586191476467 6.067554760833929 10.696570150276763
