36
Energy = -171.56631001 eV
Si 8.696791696819412 7.485105980144521 5.904967802616318
Si 6.413924711099685 7.182441955631259 5.502163926501963
Si 8.092096245849225 5.7122338526170156 9.610638122527032
Si 4.263757856430081 7.065726701026654 9.350345800245988
Si 8.042856424921954 7.63941469956275 8.201180475366597
Si 5.851204283802271 5.013634178731346 6.189421121164402
Si 5.446905261744891 8.461947197041898 7.7920233654682605
Si 4.942348679903291 9.020352531443807 5.462362225767973
Si 6.02978566133749 5.811995934508154 8.415924041893161
Si 7.080428161576986 9.587856208047208 9.128285001748878
Si 8.414160096135687 12.84122745433588 6.228663442879049
Si 9.56469597189907 11.810358856980667 4.351455508365779
Si 8.020668822347021 10.700162302017818 7.267207446328491
Si 7.173976551136836 11.044859617838252 4.963390851606758
Si 9.179151071149771 9.743881175833204 5.4724015595282784
Si 10.382184616601677 11.384711313172112 6.801997368974641
Si 7.807890806309949 3.755609886397158 5.930285495277123
Si 11.47818947980268 4.868598183548314 7.294579714162842
Si 9.262879008254306 3.3935011087761424 4.028609578660493
Si 9.12092180454553 4.384353830893134 7.919003993776306
Si 10.44864057107124 1.8098561515404357 5.438051069517391
Si 8.602000787590974 1.7742747563948846 6.980443241195724
Si 12.5359319208999 2.656885307159465 6.443180319735523
Si 11.454853751162904 4.128111163008458 4.752569884855445
Si 10.632081977268244 2.5122619258026737 7.9718874632767935
Si 9.659071143645802 5.356195036658282 5.71540391241859
Si 3.5363414478059454 4.942183384211217 5.796564812521618
Si 1.1278988679506101 7.907297504900313 6.8487408192800245
Si 2.0970973541578477 4.838055038860955 3.9240939921350533
Si 2.737298845015969 6.236034646399031 7.728369219405819
Si 0.3623108965713201 4.571413511253385 5.520009103835706
Si 1.9176720957194242 3.85065447145827 7.275724025377887
Si 12.5359319208999 6.631923350347628 5.920875674134879
Si 1.0174269983086281 6.883854099668342 4.463966953539362
Si 0.3861636129550626 5.642495059546417 7.860285732665435
Si 3.131395863336809 7.3505316242411975 5.5449269332417295
