36
Energy = -171.60985711 eV
Si 5.917462019899294 7.0074689463587605 1.823810940022717
Si 4.277362103218364 7.80895149154676 3.3929780662071516
Si 7.336276819117071 8.14516660929233 3.3079192628751173
Si 6.183391736553969 5.145162461789159 3.3158456685679343
Si 3.916932421183897 10.087743687559108 3.9637500398191494
Si 6.34453668150685 10.128092117724075 3.997415700294887
Si 4.114522890859237 4.244163262035446 3.8920480887005358
Si 7.9129238162376785 3.8112268754221805 4.227547005890761
Si 2.7563085676289347 6.133036877208439 4.184532726881317
Si 9.498541988375448 7.673085904329999 4.1823603723857685
Si 6.264100092740868 8.521291283725631 5.772272393872843
Si 7.484445730591132 10.882158610762923 5.990483847077724
Si 8.772782800068198 5.703218566206069 5.391285089088192
Si 5.025911565879118 6.246721371116783 5.178237648180207
Si 8.849240980069261 8.888342383738463 6.122298885034897
Si 4.19462485894206 2.937581509429877 5.894419869308729
Si 3.927272204552993 9.399658280817086 6.268327048456048
Si 6.55511675140028 3.2415414625383647 6.05116987887369
Si 7.514971056430176 6.924485652418242 7.037865415630206
Si 5.721502613898281 10.268298543769777 7.484412840904922
Si 2.908240615352344 3.9591200462899443 7.717861138791599
Si 2.7790477229946577 6.079239737814766 6.550492970368905
Si 8.221444903157833 3.178060154975599 7.757532239577815
Si 5.024233838641662 4.897358442742513 7.157978194441279
Si 9.647358997131969 7.718482955908548 8.011268742024694
Si 10.551223212964645 2.6795054490682118 7.597757985251303
Si 9.75653963950912 5.137983488478837 7.491049928019099
Si 5.924274462856203 6.210069324473499 8.878177272462985
Si 2.4175480663279676 8.190686371235156 7.6651376898811545
Si 4.490640957996636 8.07555331504375 8.746902835682258
Si 7.787664155807854 7.837290150846176 9.459557406110463
Si 6.039806994353119 9.532844181199223 9.687476012118045
Si 9.33434620183666 2.3414574537987747 9.766967714668636
Si 8.5297063495276 4.677856226216191 9.606533127388072
Si 10.914689923252817 4.240488487365466 9.493220802685714
Si 7.105006259136049 6.046608316754431 10.933105152455433
