35
Energy = -165.49017338 eV
Si 7.368725466872457 8.3101150821837 1.8259722899919073
Si 6.6411736486762285 3.7683757138598506 1.9118917474769577
Si 7.66762869603627 5.954953773586103 2.390838351300265
Si 5.499159102632259 4.978907725438797 3.5516830409644538
Si 5.641615100243515 7.554110451678991 3.216295405971796
Si 8.259453716265407 9.3652179052259 3.9732751773770514
Si 3.5961115926116354 6.440371437478618 3.6446902200987865
Si 9.542108302152608 5.670677757128331 3.8564890984254436
Si 7.004443810703629 3.1908142421486207 4.322491997035366
Si 7.159168318093212 10.67837639718095 5.79888890562342
Si 9.249729176404303 7.620904797909192 5.09780044269245
Si 7.473771093893565 5.531718535616924 5.153645032435882
Si 6.725898611082972 7.976347293408773 5.27070517502031
Si 9.189367358701714 3.7042265614101435 5.210023148263695
Si 5.665541296223251 2.02212173049332 6.035156002270241
Si 4.927457722110419 5.752636562737758 5.971404777584332
Si 5.061441209264349 9.480274504279715 6.366680237847704
Si 3.402623389735577 7.529159139876841 5.8262368226400545
Si 2.4539598738996573 5.676813544724978 7.076334210258971
Si 6.835526676958011 7.975839252153744 7.66678613389938
Si 8.363026895841807 4.7052573212849085 7.275929654953193
Si 4.349480578443548 3.7722996889955884 7.170475215341009
Si 6.855271581404173 3.0096955486122714 7.856210179100997
Si 9.342994482334209 7.97804132224689 7.4068227342202855
Si 8.450475188800535 10.088962930466863 7.939716833253204
Si 4.735683198009266 8.995257555953279 8.665733641304602
Si 6.01895592229466 5.56070995900576 8.249944706215357
Si 3.7716358057396997 6.813990041838339 8.643786383536952
Si 9.81119563907392 6.049234652290486 8.679610347352344
Si 7.238677108401834 9.06599886428232 9.817201447301263
Si 5.2043463849292 3.437191824623105 9.521118775006755
Si 7.800151330932841 6.727073357060582 9.690998467558627
Si 5.173078683654374 9.585816079822322 10.927015933691282
Si 4.758952534332064 7.177012179249308 10.697955871525236
Si 6.261170503246406 5.351496265747412 10.790191592459697
