36
Energy = -171.50790619 eV
Si 5.757213468243646 8.029600319436934 2.2715004506688836
Si 7.9416972277596924 4.6384233715359615 3.3343858429832425
Si 7.764196995483165 7.061579084437776 3.3129401182937355
Si 9.354847418219808 8.76003272259241 3.8690308069205748
Si 5.652310944956503 3.992726621874253 3.607588522969035
Si 4.693782880436687 6.133531609909746 3.29647363551744
Si 5.314917748693472 9.85551201139263 3.9504846257409763
Si 7.462983479759834 9.598854649811868 5.033047964500915
Si 5.913220829100558 7.644175458784118 4.860846597228876
Si 9.051134787814084 3.4175006372056775 5.172387659444866
Si 7.883584948316094 5.688218148303051 5.63072225548759
Si 2.815880643075456 6.299158927290691 4.648780097889756
Si 4.519080385221529 2.7065138975148275 5.53054804498143
Si 9.776382635187309 7.460740912408622 5.816303031727524
Si 5.238915586474549 5.1656977807136455 5.754501676794486
Si 10.442705079860222 5.208260329797811 5.907520677587139
Si 4.125660467294444 9.015593792506817 5.89967266757573
Si 2.752843338131457 4.357437983032435 5.88870573356195
Si 1.9385311109529706 8.021604307706134 6.021508249701897
Si 6.3380253509333 8.035254412188388 7.217089836412104
Si 2.9448639110403745 6.255245040769904 7.258284404513755
Si 7.383873954431753 10.292293402535913 7.328133780363715
Si 10.832838362199544 8.098148438152553 7.8980196049973594
Si 10.349380576648786 5.739472839664939 8.181475652881385
Si 5.012968520640756 10.090765158981148 7.859936704838362
Si 5.59503370119353 5.672324386070534 8.089501037977964
Si 7.88393036828705 3.565876016597993 7.330349336188063
Si 5.610975186356027 3.1802072775051022 7.7014335954212605
Si 7.944914661513089 5.974640308786892 8.11759742365938
Si 3.7000666995763094 6.268721738711148 9.489956446449444
Si 8.56101539655169 8.407730934202101 8.401658753032155
Si 5.173215765421844 8.153798308143609 9.385696375130632
Si 9.016831317714509 4.091953206518282 9.435247802112782
Si 4.927943990732485 4.108633553079892 9.929257260248592
Si 7.071236203170281 5.325423559490902 10.275229995267068
Si 7.252996058609692 7.684348852347944 10.29418333093244
