37
Energy = -175.57768146 eV
Si 8.631020473267483 7.778063089111197 3.6550458091678966
Si 7.692816165397371 9.314675976668163 5.217016350673564
Si 10.563917856218014 7.319410423876716 4.994478925716298
Si 8.127016372452736 6.6574801856397565 5.786665223351346
Si 9.627159706128214 8.287896160545797 6.940886653441214
Si 5.42935252770181 9.412498583741323 4.770499998972989
Si 8.713478844025941 4.379469837734259 6.0629865113024675
Si 4.863550837102601 10.17006039263932 8.132315969980471
Si 8.8866156843416 10.537640162445522 6.884596903026405
Si 4.365388388703498 8.171699198984026 9.212104470175305
Si 7.894730794770237 8.259868444094149 10.014670554061249
Si 7.129197914951636 9.608589360938135 8.217126226763455
Si 7.67504516395679 5.352654908974751 3.50440864197177
Si 10.967028893870982 4.994993273438225 5.367890193826361
Si 9.002550866520663 6.622723761136003 8.603077715756717
Si 10.462196697683039 4.613443173131271 7.795303293050084
Si 6.489563936987583 6.503498450590981 8.643863358406433
Si 3.658188761915703 10.439739661726 6.047491757099635
Si 6.132529911327423 3.5961364666464224 4.403509786800427
Si 5.642956191744355 5.927579115066632 5.18544165772845
Si 9.44862967068026 3.7315499123225586 3.917939014812612
Si 7.267211479346538 7.003501957814201 1.8121804023425805
Si 5.400763106430949 7.5118956832413675 3.3095406286084135
Si 1.7306273158005898 4.989239770933822 4.330357918923506
Si 3.410691224083207 6.639554732664805 4.30534630842625
Si 6.05734128565105 7.851633606769304 6.741207403298428
Si 5.749445932236023 4.876797939656185 10.43867713556791
Si 4.607864870168179 4.810258176518524 8.226159056133206
Si 3.830889068601349 4.094184344385672 4.94413486121094
Si 3.631949609795679 2.906264022548712 7.1418298754610685
Si 6.367608668381014 3.865831210940302 6.789275795082433
Si 3.6710199693734182 8.049772263407753 6.1980721265016365
Si 7.9041273587156455 4.627214332100197 9.41149832287815
Si 5.830961464496079 7.278515361724291 10.842538392364656
Si 8.37896707471172 2.8668807985387192 7.9046746923021125
Si 2.1721532950948803 4.780496771855292 6.745780135166876
Si 3.0674129230637184 6.650259177585002 7.983377850907318
