39
Energy = -185.44495368 eV
Si 4.449418879202854 5.466349741431837 2.0849493157757446
Si 6.801621925606258 5.296407800478127 2.67668255366377
Si 8.14255550839858 7.140615835091031 2.634504330173439
Si 7.445917155718345 9.430616087821713 2.7235777336956253
Si 8.00855481664626 3.269109477636501 3.3630480954088697
Si 4.1861538233049025 7.15120075568874 3.7439654610384783
Si 9.728994145878268 6.5542645372509645 4.27471555136861
Si 4.374741678744515 4.698615118182801 4.31374768869612
Si 6.083635632349397 8.441200571674939 4.440758983540089
Si 9.01083961086253 4.492670307501433 5.2345707794996486
Si 8.891294268920266 9.1962861349665 4.589161401185905
Si 6.5171553727812475 4.0627089134555145 5.005473876398239
Si 7.36221128543865 6.497033606924461 5.07211224746592
Si 11.139668084690623 8.38669640592513 4.794223430789355
Si 3.009322179810358 6.423523414447612 5.656064996515463
Si 2.7020722578664595 3.6129510834780216 5.537540306123851
Si 0.9331591608490127 5.176467082117184 5.918088643663322
Si 5.484803861909113 9.289178726025458 6.52641731692289
Si 8.399354830848942 10.28623869824377 6.677964366424388
Si 10.529479605335863 10.690350258384267 7.688669374351066
Si 8.25442126631087 7.599539440339933 7.325321497662135
Si 10.56459536202401 8.311183167548599 7.121530036162086
Si 6.333653845173058 11.178339809066031 7.591434241931746
Si 3.205407659638008 2.3552456490253975 7.4060101213899605
Si 6.616861643516411 3.5597280031547283 7.289106827223517
Si 4.141927137644027 7.5332326545877395 7.463937936435285
Si 2.0545734221179415 4.304130265048084 7.828765277077766
Si 5.649135136158098 5.648057853961116 7.984506186015289
Si 9.025241246893824 3.5908095792036487 7.498649283485426
Si 5.3450432156859025 1.9472897909069355 8.540865205022424
Si 9.286270731540064 9.363068667798554 9.20875723246573
Si 6.963500633166913 9.172906154482744 8.71685362576147
Si 8.5213929153002 5.598959920362961 8.62468793689204
Si 3.410580883275456 5.493662237748876 9.302054069407204
Si 10.257514750178586 7.2137206669411205 9.17610280534377
Si 3.2160427371399667 7.842041823383414 9.692182848277753
Si 5.102455895069555 4.007814809424733 9.770504649131139
Si 5.567903591341139 7.5804835512544315 9.75261182255345
Si 6.775172368951895 5.629949925324315 10.242530471348578
