33
Energy = -155.64725282 eV
Si 7.180624667894978 7.338932184391564 1.2100378865704244
Si 8.81058149301754 11.047168673975023 3.389022562848432
Si 5.721850409293378 7.301999812543222 3.0903025278127947
Si 4.228270475170107 5.419089949128007 3.1035489441317203
Si 6.199050165422845 3.9073574287936994 3.1143091164123837
Si 7.9253409608070005 5.5443095283147175 2.6844655292918596
Si 8.408121252884127 8.726325511916164 2.6748303128909092
Si 5.170432152562323 9.131122137676183 4.544990407454635
Si 9.498248026248442 5.50398691154717 4.551558033215437
Si 9.832433191048407 10.137968719296929 5.540697447758087
Si 10.720489926554814 9.541152806576124 3.2795213174186286
Si 6.875076230858269 5.594095822042451 4.82731334954486
Si 4.361208991211331 5.637861991545606 5.449805485643681
Si 7.578030413909703 9.407520485132265 4.827606431005612
Si 9.505115015875745 7.882837854511587 4.590952084926724
Si 6.348869120225193 3.215670140163556 5.406263314696419
Si 4.043236723110671 7.853961684847685 6.297781755080189
Si 8.072685648757783 2.1691642861523026 6.669222150340582
Si 4.26499495227787 3.6019759178923585 6.685173208698819
Si 6.462802397452127 7.541237540056144 6.043790893019019
Si 8.445100531359154 4.519463432074885 6.5165807619152325
Si 6.410099147087689 3.3411715217357436 8.020754506098147
Si 5.306190827650444 7.248173939772579 8.27667617982256
Si 4.385730895736013 5.076328824326066 8.747127926552874
Si 7.199938774582443 5.6866011579779885 8.236524820600092
Si 2.3524925794995455 5.548523136488473 9.996183919399483
Si 6.33691177168876 4.228663091200823 10.188128371221312
Si 6.259160096732546 8.28123179287125 10.16263546354089
Si 3.8604783042491198 7.317873688278963 10.508968764980615
Si 7.781702377629094 6.301486273137949 10.532780713145645
Si 4.320059262933376 4.904474350387496 11.29552274104356
Si 4.807618360884976 8.877672368844802 12.006289052629317
Si 5.818304977478454 6.655847158495326 12.021884142384673
