34
Energy = -160.65857794 eV
Si 8.359144562304177 4.38676912222117 2.20979285033715
Si 5.928437379565763 7.738762742956476 3.0044046130994326
Si 6.434746216588903 5.405319043379993 3.0743062439357716
Si 5.036535229751966 3.8525788541614543 4.2789267822511645
Si 7.634205305078431 8.723198551506997 4.3783111975149325
Si 8.30915704040026 2.059527664073233 3.103800700764075
Si 8.708033731106385 5.156669452799974 4.408548722490114
Si 6.555856350954849 2.049508423329633 4.716654771141869
Si 6.984276266596783 10.810468027479573 5.210717009380427
Si 4.05166732364025 8.251632599537759 4.488538333704602
Si 9.365753446042365 7.306143626556877 5.21999100669172
Si 3.808185410218691 5.052905982464257 5.8679033204578
Si 6.8040800983101795 4.257772209090776 5.946204809982611
Si 4.758538662395288 10.167382907879457 5.540612326764618
Si 6.8079577562519376 6.67400995908337 5.1937010286355685
Si 2.2260560817469117 6.881202793162739 5.4744843821850075
Si 9.28895058049997 4.836061142219598 8.187842608812348
Si 4.744344193442162 7.225392649943085 6.524570577957741
Si 8.921437506327285 2.91790276705689 5.274121385151541
Si 4.375570383597536 11.22931324222223 7.633662745752114
Si 7.5819602933865555 1.8302980064168997 6.968886275422847
Si 6.611530193503134 10.350027815149753 7.481608918445522
Si 6.624893631918974 7.759041247830919 7.917608572895957
Si 2.6524664577428876 7.2902800425510605 7.89591739911916
Si 8.99359775866778 7.243262992817152 7.640614154485795
Si 4.102506631863356 5.374180055714303 8.131670512496738
Si 7.0786206781977254 3.850568651781679 8.223855935138175
Si 4.255680781301469 9.00877023680353 8.351383570547215
Si 7.820818360003825 9.488035990647122 9.302172208960146
Si 9.960750419663091 8.39603721362537 9.515519243424015
Si 6.372050865117055 6.326094416503222 9.93038025602899
Si 5.778503318784831 8.549265697276006 10.176653783414332
Si 5.298879500662575 4.22914960690827 9.810913969457536
Si 8.764807584366888 6.322466264850536 9.915719783153524
