39
Energy = -185.19357296 eV
Si 5.514003696817466 7.26403760989006 2.2936014113877037
Si 8.279596677219082 4.221800133461097 2.8034354209384063
Si 3.5835399428760146 7.618940450244365 3.6076474640751557
Si 6.259392637103849 5.3661653601010135 3.576746998047716
Si 9.007012178727898 8.27811504933951 4.150107489906093
Si 4.218262239000595 4.09283408309227 4.157339169671518
Si 6.627060037476103 8.34765531552582 4.020442042035249
Si 9.480586546002172 5.9448579413631775 3.8953291808702137
Si 2.291463507688336 5.575922078738545 3.930020489419354
Si 6.989361321706001 11.404260851159773 5.939777446537894
Si 8.796834163487294 3.462245645162622 5.023501760203748
Si 2.827026203549992 9.778515387677777 4.331462786343888
Si 4.10494146932622 6.119621149047347 5.546299231665743
Si 6.629152370684981 5.856939992443807 5.957284892625933
Si 8.78112640355058 6.767618211898154 6.150385690651615
Si 1.7024849114912723 6.196131435667023 6.186747419616417
Si 9.850804644702013 8.98267321632186 6.3553924538137325
Si 10.657692242974047 2.955898280824479 6.391775454058981
Si 5.164670604444576 9.97312191449725 4.981812309826151
Si 5.777745315275058 8.09965690721465 6.515029383182022
Si 6.972483670681657 3.549132356742004 6.4767763131838905
Si 5.303923531793585 10.436948672852159 7.371948466699727
Si 4.6515181724274814 3.690560422431789 6.486789072071641
Si 10.739354191985637 5.2226992058643855 5.73926678432164
Si 7.626835132831153 9.448870225951815 7.287577893340257
Si 3.28402637367941 5.5862575072399645 7.840103214705834
Si 2.853957176518382 8.302315610986234 6.200940090826413
Si 10.824509853080416 6.892076673404426 7.462961427590793
Si 7.8241770805971385 3.6225811231192133 8.642433571923888
Si 7.075205158877867 6.141631637094213 8.529172396820343
Si 4.140185656247058 7.834853956528957 8.215111309486423
Si 3.721594882881226 3.4226277998920174 8.659655010565404
Si 10.12153127466886 3.1987171898889533 8.873360437312927
Si 9.477100505294187 5.5100412497969495 8.951041877348963
Si 7.1341430713682294 8.418321409199361 9.392500026415469
Si 5.774568677420452 4.344384115772065 9.602809979976639
Si 8.378829641123568 6.81283470968762 10.666028075950527
Si 4.985993115541521 8.477781856960299 10.419740675001647
Si 6.0566022048150545 6.269649748853577 10.856941367515693
