37
Energy = -176.36553444 eV
Si 3.0725559694561944 8.442090232937044 4.390680934865502
Si 5.476576701023789 9.08114828869505 4.480689063958384
Si 2.4026274696627854 6.662343355246159 5.819722519696234
Si 0.49556069610640974 5.697174264110268 4.765159663377937
Si 2.999823842484741 7.307908755406071 2.286973435364529
Si 6.285909986384717 7.868042536662461 6.3624883544139434
Si 3.2654430821857305 6.36423117552308 7.979590917558488
Si 1.1062884308037921 5.881358368077292 2.361227476050837
Si 6.359691827482791 7.356306703784679 2.953676419829648
Si 4.755863827841929 6.65315801630951 4.570376181641585
Si 1.5357558211609255 3.8261825792903026 1.0791273385118032
Si 2.0404931536469944 2.6626040314893697 3.175951096445376
Si 0.7365893744414932 3.242966848053069 5.102045511856218
Si 5.448111921934459 7.354988178711343 8.538997929953997
Si 4.904010550112056 7.872098349471587 0.8642268554409421
Si 8.483899943815524 7.006458188542478 6.112431855372175
Si 2.78403186126858 4.510176477676374 4.711191115358439
Si 5.5499641375153415 3.2724683886719332 9.347987088053188
Si 9.150241383876141 5.689562709584438 8.105994471798418
Si 2.3546177162732715 2.6446503978835545 6.81255686868991
Si 4.608157798351232 3.3253924307675313 5.779081809598668
Si 3.265923839688902 4.749552896121485 2.3731180022684883
Si 4.127452713799798 1.7926597299058553 3.9263765269314437
Si 6.7720579918003345 5.2600705076276215 8.611112851497895
Si 7.880530414387053 5.800027038775324 4.149394788219073
Si 7.869962247855198 4.632661754826062 6.512290419105705
Si 6.368656133515788 3.7472360348851432 3.7426783100584857
Si 3.6761661526533156 4.069797859577944 8.1062254104838
Si 5.331805087546785 5.573038162576977 6.6616424810528825
Si 3.870058810850779 0.8859241288452951 6.181934188528813
Si 5.813230060462924 1.8922438112635145 7.363071449920506
Si 5.960367803127128 1.6412382556479579 2.366100659062214
Si 6.670967836306655 3.769676481084433 1.3138908259293776
Si 5.213235532868667 5.6538438566602816 1.4932405580361774
Si 8.67291402207662 4.056726059302843 2.679455519133959
Si 7.3485274832276355 2.504580673955463 5.769161560570054
Si 8.092617131247897 1.8845006372709412 3.6406187275775856
