33
Energy = -156.80222292 eV
Si 6.997441530017231 6.188992412645336 3.07730416384819
Si 7.953210960535604 8.435905761122184 2.9951231552413615
Si 8.479889653662026 4.298924579655948 3.3077387966554896
Si 4.8267268743754785 5.382996539748451 3.662977525671276
Si 4.091587750129906 8.542671494427335 4.386298463252118
Si 2.935949725004958 6.762289215251152 3.1996859953642534
Si 4.938392481656624 3.147161026697323 4.546175645112931
Si 6.3557426389706375 9.063988659492358 4.6949719286661855
Si 9.193772526406738 7.570981667922316 4.869787927852762
Si 7.262892613800963 3.166612262501658 5.073511466489437
Si 7.840665513791262 5.461425527549012 5.366517533666613
Si 10.155582722655765 5.4009571347824545 4.682159608400104
Si 5.881214214331536 6.739313603571101 5.48522727699687
Si 2.6752487076707507 6.486958214585496 5.56400618777371
Si 6.308391659701261 10.562037429896227 6.64513631146857
Si 2.9183747673557145 8.696309437836975 6.368159411103427
Si 4.704246349738414 3.9068371013421035 6.772619302285239
Si 8.35422223601059 2.2853555938035663 7.054059341074687
Si 9.710856441534993 8.389411047153475 7.014350399673288
Si 8.330240796006834 10.135321251209897 8.126191095981252
Si 2.8062993572378323 5.1098062968640905 7.501184782853475
Si 7.172570121156085 8.244891674438723 7.0504527317018
Si 4.636358820389149 6.612421782457811 7.524943869912403
Si 6.551210082397911 3.5006623600326985 8.169072959000053
Si 9.465076574312915 4.437000668788588 6.811179972545266
Si 4.813120009407132 9.045407766948601 7.845997327116414
Si 7.046755653965202 5.844822367914609 8.109717527851007
Si 9.454373301789401 6.314857237571837 8.208887038672609
Si 6.629117308461208 4.529846012314865 10.414890340363215
Si 7.224833726267978 8.459821226614485 9.562750599657242
Si 8.337093015961871 6.407227040833738 10.303877477277227
Si 5.008157306757535 8.854440972749474 10.257464349051293
Si 5.440384558537288 6.514344631274753 9.847579487418729
