37
Energy = -174.98854415 eV
Si 3.088909880326437 5.249932906679201 8.287393882761778
Si 5.922580577436031 7.225195524700872 6.412758410847698
Si 4.910576072433892 8.548324568624286 4.765987398077391
Si 3.6669796407230493 7.146393991659121 7.0095511335393805
Si 2.70496327081853 8.909191187323902 5.73223278588692
Si 7.064804316601711 5.26744249814687 4.615773124142838
Si 4.364042892372215 3.7419189442050347 9.706859356174943
Si 7.373927375746967 5.411828046340535 6.990215966621213
Si 2.5419960906650747 2.2764595961995804 9.082619843893388
Si 5.334485227476549 4.331206197800713 7.554275623694549
Si 4.940894650405472 6.252378065701403 3.914942752439483
Si 6.880716817629832 6.5949920689243715 2.233053728029374
Si 5.207035574481795 8.33338872874241 2.3597698621292684
Si 8.916120810787111 5.951965449533178 3.3025663353818078
Si 2.3401641471075796 7.002302008824944 4.4009528809704666
Si 3.3681596515538703 4.9420220909694335 5.820840098085331
Si 1.0595650301571422 5.057611757403577 4.8188470523239975
Si 5.820286552562606 3.3169559404004367 3.550888746153781
Si 3.1469000038311408 6.9945543938746075 2.1993698533106127
Si 5.792092138395591 0.849070168688346 4.704016066639121
Si 1.2534655254551297 4.178728262145745 7.133575017490306
Si 7.990259999313156 3.81921820278273 2.441028187301751
Si 4.613386959813752 2.8030809341010343 5.655602947706804
Si 4.787589099857252 1.9211271366402816 7.978733626986399
Si 1.8751240530532405 3.5270803594432505 3.1769415998925603
Si 6.216384854809074 4.650760947800622 1.1274529636821877
Si 3.964437255617799 4.459609972427753 2.4036225547891132
Si 4.178420314812219 4.156949103797135 9.706859356174942
Si 2.2868216783423114 5.517070087506355 0.6306211431111199
Si 2.7118900615528823 1.6224240918815844 4.419808454611509
Si 2.462881162516465 2.1005808482359343 6.7295911251929175
Si 2.9140803729286424 2.4735759609406456 1.0201351925062194
Si 5.466205136673714 1.4046734792000914 2.161492624303527
Si 0.7733745282291246 3.617013224469643 1.023310563522413
Si 3.741555485570703 0.23886031775468675 1.1170232593892686
Si 3.886340509334728 9.550368005819998 3.5228793225899246
Si 7.602451543137197 1.4702838249936103 3.2029460543300576
