36
Energy = -170.31339714 eV
Si 5.416254292278043 5.970800337815688 1.7598386508514938
Si 7.481037230446277 6.473427242137601 2.8292466758590575
Si 8.132846163397216 8.622355089482268 3.484774084129955
Si 6.002655199265569 9.798026339658561 3.46026945528802
Si 4.9270956355928295 7.675119009768007 3.3509922048892733
Si 9.118030965879115 4.9547783336972655 3.57816833565839
Si 5.3066189862745015 4.496777958522132 3.6533217219959297
Si 7.342843526660469 3.2463386572898396 3.8589550851046206
Si 3.2586906693461053 7.581875522812555 4.979738805326013
Si 6.523265077777618 7.806809952854287 5.233186087051616
Si 7.06560396535004 5.302261290049666 5.2529036373734606
Si 8.964410488868076 8.319074069794967 5.658978808717615
Si 5.675748491311177 10.034407513461277 5.813259406499505
Si 3.9242688731123296 4.53961682022662 5.6011313296697685
Si 9.364214661643059 5.985191816496105 5.77873569834889
Si 1.868967583087625 5.8072789474207305 5.796156756429589
Si 3.2452718783648233 9.969526041850651 5.388484957111205
Si 7.578515744765538 2.852285854134222 6.126147945215258
Si 9.326440882438614 3.742015072521233 7.428819228283502
Si 6.911244169827428 11.403262410279709 7.3396094658250775
Si 5.859471164383562 4.451311545893005 7.199354581274269
Si 6.148648809696015 2.0133594527047287 7.875094957319941
Si 10.969114934045097 5.429589907572245 7.448559510522268
Si 8.205632013224985 9.432675249404722 7.656025139147076
Si 3.8950580473383516 8.851734363177295 7.299132108459338
Si 3.4342813476845078 6.573819639887254 7.401574646910336
Si 3.8821120855268525 3.1611430074898395 7.736422979624884
Si 7.6719990370888285 3.5179997937673275 9.015214405508267
Si 7.013157339595856 6.012206777174561 8.546848941110017
Si 5.671031300816633 9.793922834226672 8.564947371399011
Si 4.377656469585508 5.235657220065854 9.05846699902142
Si 9.341713678025178 6.463293834273027 8.964285640825278
Si 6.874984661644463 8.262985556665926 9.751469041028221
Si 9.21365019892615 8.751059992856128 9.699035417459694
Si 8.079736286900225 5.159262687189192 10.638749085310137
Si 5.927728139831531 6.308749857378886 10.772100835450999
