31
Energy = -146.41173275 eV
Si 5.764418546451596 3.728535188422373 9.22154729750046
Si 10.263262667760475 7.132099896571824 7.795091544781614
Si 7.083204866227454 3.5304281899997076 5.228643725101787
Si 7.212757807896496 7.500617439675279 3.630999928459907
Si 5.247846651167141 6.134211062377886 9.244711904124575
Si 8.893436500016005 6.415148240544411 9.535978005510621
Si 6.108488789021613 5.407633450984909 3.9267364101408933
Si 3.3367769372247977 7.730744013986646 5.699858462608835
Si 4.455517512024653 9.352352717400741 8.8557149177508
Si 2.3161762357473923 4.198125009741339 3.3099395756754304
Si 4.504894119759733 4.900897456450843 1.99005230284152
Si 3.9092207012892124 2.4966229200493 2.6157784335425744
Si 4.304161263527286 3.608154024164802 4.727062744507114
Si 3.3593505196759144 7.316704821057559 8.283987195615447
Si 5.176747782848627 8.002657573060604 10.768349864097262
Si 5.686440265998377 8.105746794220437 5.35789694669305
Si 9.364395211504588 9.416218914948965 6.394765068927339
Si 3.6512655173042683 5.888894736595827 4.214683081310069
Si 6.332640774357512 3.1174900490722117 2.962249788336451
Si 8.756069820944445 7.237539271379429 5.4764225896062335
Si 7.365282691238808 6.884741168923188 7.4705114957318255
Si 8.764782973147518 4.7343558223184745 6.307143934778636
Si 7.710539503791679 11.092505738948674 6.855745317799872
Si 7.1779012902669885 8.1706739678073 9.52430206399523
Si 5.392241678887909 3.9302733461615196 6.862837896208367
Si 6.239190028845685 9.315065914842128 7.338233284288529
Si 10.906606440519315 9.381099377321954 8.127951849207498
Si 8.631101367372148 9.99275490688727 8.716266511401205
Si 5.031461444168866 6.258125438480161 6.766755031977931
Si 10.728112737626452 5.903660499185046 5.803728811644886
Si 7.825707353387293 4.615922048419748 8.486054015834284
