34
Energy = -160.25424117 eV
Si 8.410346700434626 4.66494854001683 3.472234531125643
Si 4.992332854433849 7.070224274969804 3.759183233077452
Si 7.3713586730257035 7.016186185594299 3.6580286075120494
Si 8.266219362987437 9.227777985825464 3.730340329897573
Si 4.528263179222522 4.851713635588581 4.38622378508912
Si 6.386841941127541 3.47526876685385 4.140933520611897
Si 3.2488122509349524 8.60802046367288 4.427802907492971
Si 9.263133848730437 4.4061380676446955 5.838576409512644
Si 2.3395819640050832 4.622222631658017 5.309720753424136
Si 10.952814309363927 6.143425482794758 5.280867005752444
Si 9.603438011260954 8.090839871110342 5.377182408507142
Si 6.139897225971533 1.9654492885912866 5.991936037175625
Si 7.066445903056427 5.466739404140545 5.455806033238817
Si 4.561057286197679 10.039364782661 6.014278198730721
Si 6.9200273123939615 9.276052990037286 5.698523565920851
Si 4.99160182520429 7.579020231799082 6.175520222468406
Si 4.346561838798769 3.5047975978603056 6.542126127022958
Si 6.445411488619088 11.15121885370949 7.0738639991530405
Si 7.704853620030322 7.333928727118533 6.870870898677544
Si 5.440954601340574 5.497146867690398 7.4279635231428065
Si 2.136810285526807 3.1149888837105326 7.220190135003346
Si 7.3810370280123 3.642185595642239 7.137795696360501
Si 2.618832351744205 6.9103160592372515 6.341867602190633
Si 10.071422756055217 8.21876965655415 7.698658723982661
Si 3.396728617368335 8.748326030382055 7.6392690400602685
Si 2.951346672419132 5.200378512261845 8.02122018458732
Si 10.367960063789056 5.6061616419590345 7.758222067299161
Si 12.126502899311461 7.013436597364934 7.243482029210456
Si 6.8980847995444305 9.323510195186607 8.574692466032477
Si 8.406929496026189 6.421033111932895 8.900815948982826
Si 5.099700780405425 7.906991766604357 9.011484634871637
Si 4.704490467169263 5.7054644900463956 9.751744563008703
Si 6.9593666393647675 4.528250073301086 9.335910971312755
Si 8.900832946121458 8.669702736476884 9.732663839560969
