37
Energy = -174.24052698 eV
Si 8.223520057591895 7.352020147401925 6.265499678554441
Si 9.53016861446415 6.362203422845746 8.12037333136597
Si 7.542405926352797 5.301258611306744 9.337994199702317
Si 6.512650085065592 8.865551556029702 5.528010794957851
Si 5.359414123059439 8.567932095176094 7.758405251534318
Si 10.195193924369905 4.686478818799636 6.338133551462507
Si 7.1820922713364626 3.0392861661136075 8.417845910523088
Si 9.120257421876888 6.01067578736349 4.563703215798453
Si 4.130722373481443 9.192205286490747 5.514418483988254
Si 5.561447304561428 6.206704185789872 8.292315919521986
Si 7.861670200052963 5.029092495407298 6.901780764021528
Si 3.0135832005728798 9.365568900026153 7.650730628170121
Si 8.804246358264377 2.6117139149127837 6.556269339109212
Si 3.516177008917885 7.152369656330284 9.122319084332808
Si 4.816765891808755 2.9569531137938525 7.916463315364305
Si 6.693087584251056 8.511525439586336 3.0223475643870246
Si 4.921947939592619 5.63578353247476 5.983314063119304
Si 7.685832511515564 4.424195167811176 3.4011173063996467
Si 6.318446497572324 6.40256987296507 4.222821470850532
Si 2.4450023326951205 7.2740448302281955 6.540767882646154
Si 3.8420893598125625 4.740183285358185 9.394239441595811
Si 6.188067133154435 3.534206321854794 6.023993274126011
Si 7.448111682087669 2.2735502994806445 4.4072638629872145
Si 2.8570452176587424 5.049473535537603 7.240900046570441
Si 3.6092349751955877 7.191887300638639 4.352412289011892
Si 7.891756105380304 4.857775113495096 1.1129626847779317
Si 3.75904988917375 4.026046286714991 4.6461974101560415
Si 8.410685969938529 6.834184747561597 2.433560403925911
Si 3.4640531077227292 1.925982570890699 6.01143668312008
Si 4.795886487073818 7.118417467482772 2.2758102260109214
Si 5.707311586874382 4.968557666477288 2.0121305553144957
Si 5.040662984809965 1.8727509749330362 4.145496690310357
Si 1.3735116927904272 6.178344691791847 4.639010245312969
Si 1.5034507008944924 3.691699739458832 5.462577723814398
Si 2.1281137512891624 6.569890789340214 2.381641329210354
Si 4.1303651222050854 3.2356274882296345 2.3662697333066367
Si 1.939920291558865 4.110358916695733 2.897223808159275
