36
Energy = -170.57316054 eV
Si 6.951998111698141 7.855108155737443 2.4104474240146785
Si 4.70982370575822 7.694810909293882 3.268026671942567
Si 7.232266903483508 5.845436368310052 3.6914023974998478
Si 5.779508936703605 3.950418677632349 3.704727095149677
Si 4.015906318938113 5.5397451914229805 3.7824692271499316
Si 3.275877656859476 9.425913157502368 4.085833489505397
Si 7.083208541486342 8.63193269561624 4.644526574022923
Si 13.004786856640298 7.567645368027343 4.689961585901173
Si 2.100980427130938 5.83146298745155 5.163249761340047
Si 2.1494041814643965 8.078872782082664 5.742918848855916
Si 9.110641345212128 5.125268170179882 4.920775551508686
Si 5.065602538026274 9.379772674564327 5.6058318286034385
Si 4.3334001608622135 7.0000740018159755 5.741374522262943
Si 11.183206622631047 6.114641657948152 5.43558030894261
Si 11.04226430745111 8.398762919515637 5.952315800045733
Si 8.813907278205875 9.20288728925879 6.14261093566202
Si 6.180849543963021 3.9387214860997672 6.04502624591504
Si 7.86270450469979 6.807052759004618 6.0611931715376475
Si 8.429618180643018 3.6107658366626723 6.678757342105788
Si 0.9269112208710484 4.741264847072437 6.881201871087484
Si 13.357504058297728 5.922017132599784 6.56738832408628
Si 4.724899828037123 5.394788787207872 7.448234964571279
Si 13.20101800963514 8.328849530403014 7.093412395738783
Si 4.8828769753677665 2.8966319385009838 7.772849465378056
Si 2.627535898161168 3.5095994740661367 7.946696404477881
Si 2.3658404784694906 5.999900618831849 8.38168415000133
Si 4.594430345203907 8.60616079658851 7.776463923573551
Si 11.308344653926175 6.827753291365587 7.712612617901454
Si 8.199690903209117 5.456199762362313 8.208476753096713
Si 2.232544335031384 8.433814518468603 8.164855579041605
Si 8.228557912335807 8.0447605252987 8.17466961908798
Si 6.144127154017561 6.027203876653662 9.233278479610652
Si 4.610448145205504 4.314435172189776 9.723554137081623
Si 6.237281830399408 8.41327355615167 9.465966985994783
Si 9.759898654888413 6.740691746378757 9.511861468338912
Si 2.2713824077204046 4.342610270368683 10.169013011600239
