31
Energy = -146.43684004 eV
Si 7.028696294016155 8.349985244851018 1.8379675720473103
Si 6.144060585187944 6.949573872127111 3.5283735266925422
Si 3.720494572128426 7.335047079217915 3.479677841803884
Si 5.11577343846974 9.279757803953045 3.0594774482668186
Si 6.987142980215414 4.6530222809529524 4.174134547477498
Si 5.340330010435563 2.9507051295132705 4.044483096543277
Si 4.517365662406998 5.207597323167622 4.409939600056702
Si 7.961501269587509 8.925672997044519 3.9252081004197072
Si 3.095460975937429 6.630219968270716 5.731382541401492
Si 9.222324281353508 5.005571547601191 4.76882163662193
Si 6.704539099028715 7.5221750745241565 5.791272427098616
Si 5.7025125292750225 9.874861001329274 5.373512517586675
Si 8.52934042801391 10.312224659732697 5.739944549446016
Si 9.154921998601296 7.370265474811348 5.280763871924359
Si 7.710645975120693 2.0478034644851113 7.558018187414929
Si 6.75830779913528 11.517287200331264 6.787590123140885
Si 4.4687157188476565 8.372860490354546 6.73343900057779
Si 10.324925430389767 8.94457141484673 6.6587457715513905
Si 5.472181685764192 5.723107792192551 6.742556444070756
Si 5.792059217339495 3.3379645288121633 6.404431712500136
Si 8.055896615765754 4.308054832643338 6.718876759358996
Si 6.5881883568006865 9.45877873667961 8.00649261171826
Si 8.411254655529659 8.031329067603043 7.676924643481993
Si 7.172700668062029 3.063129968186606 9.634896636315238
Si 4.642136449480548 8.668657871099944 9.099434284109389
Si 5.428319552357267 6.38796259893764 9.037145139309859
Si 7.760807959789332 5.890963428806519 8.420306898449747
Si 5.139646021539309 2.279010192348269 8.467461006800036
Si 4.954459370938348 4.188040786615744 9.971182279465264
Si 7.211058234282362 5.4311765800289225 10.629306928829436
Si 6.384232164195972 3.4826215889263317 11.80823229551536
