38
Energy = -177.7820597 eV
Si 7.568514651161468 10.767333054883558 6.920719771046957
Si 6.270248190161397 7.324819903857833 6.789203308934032
Si 5.274432223196201 9.423184942274204 6.40861688189365
Si 7.695688034861397 8.73167884386789 4.904317218212173
Si 4.286973075127676 7.102570832948711 5.24156550624481
Si 3.8796580419998725 9.459848576013865 8.491462071180463
Si 4.152117887635535 9.579084936500442 4.076417916370815
Si 4.751509615750168 7.166078269916076 8.596759022867817
Si 6.34754478508152 10.776925449660444 4.73619029286685
Si 5.13647352725216 7.568054808891674 3.0425700038891854
Si 3.722487785442919 5.609607802919884 2.8174875004903526
Si 2.351278869991242 5.293351092426059 5.029542111713297
Si 2.7107163283717566 6.761379816811022 7.013959487098982
Si 2.774090589524598 9.10501769020659 6.213613650862833
Si 5.016168986791965 5.078736997281477 9.685718639837258
Si 6.727876123389187 8.099906995411063 10.12991061277794
Si 7.989879285089692 8.411010105473133 7.939164186351443
Si 6.283172012715418 10.093386204251091 8.823339420966263
Si 9.551917530885664 9.436209378125458 6.335995109983138
Si 9.879001224897996 5.828344198711297 5.575762210341645
Si 7.8382079375197495 5.423645745606104 3.9929626745729507
Si 7.573576031050945 7.5109135101177715 2.904024059924277
Si 4.599838268180238 4.178713910049039 4.6505575110891915
Si 3.037800022384103 3.1535154451783365 6.253727395239267
Si 5.8618414298804336 4.489817020111276 2.4598118924443075
Si 6.306545540554206 2.4963378112710766 3.7663822764745003
Si 6.319469363108367 5.264904111664315 5.800519196288066
Si 8.302744478141943 5.4871531825736115 7.348156998977585
Si 8.710059511269748 3.1298754395082824 4.098259626260328
Si 7.453244026017457 5.021669206630643 9.54715169355161
Si 7.315285330073408 3.1665390732481136 6.181105623328753
Si 8.437599665634082 3.0106390790217143 8.513304588851291
Si 5.02120451767141 1.8223699583180215 5.668924379362903
Si 6.242172768188095 1.8127985658617238 7.853532212355567
Si 9.815627771526655 3.48470713309721 6.376108046577793
Si 10.238438683278387 7.296372923096105 7.560180393509102
Si 8.867229767826853 6.9801162126026 9.772235004731746
Si 4.89402951840853 3.8580451716544455 7.68540528701024
