35
Energy = -166.11280665 eV
Si 7.261876751436677 4.208314319311171 3.1068828956597385
Si 4.887521210456587 7.927201707179842 3.3685645521688983
Si 5.4231534274736175 5.626452073623068 3.585298725335064
Si 3.3530816497746305 4.633569034794463 4.2499305444556255
Si 8.944636596164697 10.02645250200048 3.108227548344617
Si 9.573770836408347 7.891803563689041 4.006117249415509
Si 8.390982009050523 5.800892353984875 4.493681878508731
Si 6.727033921743581 9.319024897102903 3.55228619799228
Si 3.2327362583976895 8.626250926073977 4.98122820088129
Si 6.584191439796233 3.3847192274237328 5.256038848673563
Si 10.360308274529897 7.684576130681269 6.186831035940339
Si 6.723809332813495 7.458259554542593 5.153932641195897
Si 2.7280395536598636 6.407700905847097 5.705713251134843
Si 4.273670444810255 2.773787020021065 5.583407029812331
Si 10.05623310431595 5.370527268222172 6.138176240645314
Si 8.996203850861754 9.771562418970666 5.639937462458993
Si 7.204820461745414 11.323397938907604 4.8318517023190255
Si 4.950759872735105 5.140849966056909 6.147140756431414
Si 10.541233473973493 9.67170786301455 7.490638426051435
Si 6.630049841635042 9.670070176463774 6.4406416960324595
Si 7.501584907471304 5.17897510692743 6.770518312240742
Si 4.818017642229527 7.867014095981748 6.56225135940965
Si 3.1491453266788563 5.696942338835771 7.918831275856763
Si 8.437952361011122 8.702291709917793 8.170253380714128
Si 9.349495257170492 4.419560851222464 8.202390449085883
Si 3.884077580348878 3.4783887153019273 7.852239662673141
Si 7.864678256965974 2.761871154384106 7.2028567618911525
Si 5.337335745318327 7.830754606973925 8.809396974909298
Si 7.393361225994131 6.5698593546516095 8.661823980832963
Si 6.518571087875358 9.965082374916546 8.796094888699146
Si 6.360600717449805 3.244708774027963 8.935426203093014
Si 3.5154628982713443 6.775784851533244 9.967576874739928
Si 4.351897986576233 2.5361819732075634 9.965890624882858
Si 4.906515410098476 4.886523848993074 10.222842336875178
Si 7.267191284756971 4.868940395212916 10.435080030638284
