32
Energy = -150.27830105 eV
Si 1.4358480535373215 10.172044427012532 4.543274035277687
Si 8.172352351446746 2.8131603022801577 6.666543893267507
Si 1.641933819113693 8.089031961803327 5.7299674825552795
Si 6.518658170230541 7.308143366906455 9.026241343033227
Si 5.435149234442843 4.463026715257407 6.852771953104176
Si 6.644389013499062 9.68758303799255 4.698822515608522
Si 3.586503047358568 9.603417151490223 5.333950701775908
Si 3.3809398634129892 5.653540182989747 6.547996610374087
Si 8.772558474052783 9.229746859640562 6.166763694046008
Si 10.898106087413662 4.457076162182747 8.474055644987999
Si 6.597726685294373 4.280956965396146 3.1560861923626917
Si 9.445841307630555 3.1279406465799022 10.137289250465146
Si 10.474177872024317 3.581329591266834 6.1592308609468
Si 7.695674572288931 1.9195990813682313 8.850544479504144
Si 8.900923782696037 5.235955057223544 6.9553463522739465
Si 3.6175416947556145 7.916850060656754 7.160262168217986
Si 10.210524130633331 2.0584911160411257 8.124042794544213
Si 2.5856578434812425 8.410289088035924 3.360670915380054
Si 6.5547592985989045 8.562802016961804 6.906543545260414
Si 7.123340465084988 4.2430809670214815 8.514760450121804
Si 4.976052530865451 8.169089964631029 3.649818819343454
Si 4.759161559629862 5.828463443632804 3.581945002787539
Si 8.766453585608312 7.5271277067827205 7.7659610091000575
Si 5.344332796992783 10.830006343628881 6.421473109330375
Si 8.911931575779475 5.424943939141852 9.532598261494787
Si 8.679246256599491 7.743484022331235 10.103941962275586
Si 5.010561147182288 9.361837656157128 8.562890149709705
Si 6.18863787203496 2.997876094289166 5.21033195610555
Si 2.4035925442294332 6.1057243786104705 4.288980727734795
Si 8.882677430964339 9.757251751508175 3.9641370593493885
Si 7.187652404059472 5.282322358724036 5.222999563206326
Si 5.4200148935333905 6.816720360436188 5.764548134790776
