32
Energy = -149.81069257 eV
Si 6.642245088332911 1.8003474424976103 3.3694676095931086
Si 6.396522120960474 6.356641440120119 9.78705664947808
Si 2.369380902418895 9.036693417477043 6.443937554288481
Si 2.5839716962114667 6.849178164121045 7.394637766185307
Si 1.8593525967422682 2.824155919365237 5.629762739700663
Si 4.640395742466965 5.300337955378654 3.7579128811286293
Si 4.020468978839355 3.128142949134655 6.6095072338778476
Si 8.551797617161169 5.698630180352274 2.5927156962794005
Si 5.339495629102782 7.61180265221146 4.55132010035759
Si 2.8038824990957005 3.7120541695264335 3.5441833794340862
Si 4.808326945523062 8.724955410600021 6.550491426352064
Si 4.8424542581710135 6.957661046893394 8.123613432102072
Si 8.71117937381501 7.561957143730823 6.213802077506613
Si 7.837805492185349 7.77071038558194 8.428048613283766
Si 9.268580909882957 5.5686782039705705 4.936250197284342
Si 9.451611441393135 9.898561172086369 6.938673780393709
Si 7.62098692496006 7.393674854513658 3.9850841336509983
Si 4.461119043168152 5.408954179934391 6.1628101380884655
Si 10.169835140543084 7.870657032478058 8.104936921980618
Si 7.015066344079347 9.484744591198911 7.011356918229929
Si 7.8705095617870855 2.111016209066967 7.2029781423142465
Si 4.861008002382512 3.1523582341667273 2.4764362284810195
Si 6.905005740463121 4.322051793227632 3.6804947162523316
Si 2.4641867336829786 7.329406158000096 4.782684979183628
Si 3.8117207383063736 7.365651640337165 2.802419113492372
Si 8.207698310455356 9.6176335590834 4.844306385527437
Si 7.644493407201967 4.391633932394451 6.165899151239772
Si 1.838992529528981 5.294108018391174 5.825762546043752
Si 4.124896934590048 1.7188942400203757 4.40337110264206
Si 5.675543595566596 2.4572905855472 8.301010270782331
Si 6.271965129027644 4.7970037164716395 7.988896238726044
Si 6.187357597171222 2.5262178736317127 5.648744294119957
