37
Energy = -172.04480993 eV
Si 8.98253737577108 11.224419742402503 12.773474021302164
Si 5.062422533506326 8.823544794946606 10.160017413864258
Si 12.456430488221509 7.983940130406785 9.097460958223836
Si 11.402919904818843 4.057488335713523 8.617417379702783
Si 14.687280422901056 7.094397481479117 9.630255670477958
Si 12.30416787249004 11.109628107039526 11.175106504425813
Si 8.402844167372802 14.400354590555336 7.80595440758523
Si 10.386531147594344 11.184305337970349 6.541079793584709
Si 6.584379436505423 7.8059845768037075 11.709941598993185
Si 9.855723808737167 7.849119636564851 6.5179074300082664
Si 8.783360109003945 11.314510366872367 10.196039737913269
Si 14.253487406391173 11.69427027400016 12.571550425198927
Si 12.89451928907226 5.592347180658436 9.378065445110977
Si 13.692541704439373 8.652152860848421 11.141752657175799
Si 11.284128177653681 9.377661642569063 7.6956573694856845
Si 8.222316778622629 12.023515461719418 7.862650477993877
Si 8.845720922833173 13.711025266397407 10.09141239825191
Si 6.859080585572899 10.328904242194698 11.362882555335085
Si 9.497780752958265 9.675226739403238 4.7840486638895
Si 12.20780596152711 11.308090770104158 13.658000803178945
Si 4.909934046818903 7.378499511372597 8.23962557583257
Si 10.766774511370526 12.790188586218216 12.52019493014964
Si 7.886538495985755 8.967415936598716 13.265907722957476
Si 14.635960402730234 10.774097702382166 10.453926641381951
Si 6.733726158272766 11.062376227502094 13.627026760426478
Si 8.815752874006606 7.7796592934540785 8.67005265453861
Si 11.38590490321316 8.953361428977018 11.691323187807477
Si 10.709193939918256 14.739126806667448 11.219672016682049
Si 11.211417619472785 12.821798726509956 9.888254024532458
Si 10.176222269369914 9.337936280468986 13.721116247618673
Si 6.647907008957704 9.075139347975112 8.095769571069601
Si 10.479301317610417 13.246650567773614 7.634772790586035
Si 10.103334349027447 9.37372189720268 9.789571141113669
Si 7.94739228011132 10.185061132825748 6.41710510953299
Si 6.833988169317989 6.8650045677389135 9.530857987895104
Si 5.84065331388021 10.99607888703187 9.329019168544708
Si 10.787396327854323 6.271985256627065 8.246410900414146
