35
Energy = -165.57179302 eV
Si 6.148471947543247 7.723714627778856 2.4145888050480235
Si 4.55476895182704 5.983952887268367 2.4756324841454687
Si 4.923713815890406 3.640965953166823 3.162191813985355
Si 7.9034668222210165 6.4644473247970895 3.3106560134716108
Si 7.046324382737602 4.4355853237485094 4.120545470458909
Si 5.640197972326335 8.796453890828943 4.48295375876431
Si 2.981144700222605 6.986284093480818 3.8498518247602282
Si 3.3140760211950004 3.324022523992269 5.155944398284927
Si 3.2427251852017873 9.232855178710816 4.537467506006612
Si 10.166812839635362 7.079626734487889 3.6468703044660185
Si 6.614455370936009 6.777158330192546 5.422867679858422
Si 4.7115291654520615 5.4317538450890055 4.891964516084888
Si 7.4871187789813645 10.03201814343821 5.525008364544057
Si 2.1495959633055044 5.466574813839499 5.418418408687336
Si 8.53155125854241 3.8030826571947194 5.940913232836217
Si 8.877880574588206 7.934804695129912 5.493530820990279
Si 10.080333666539117 5.623040187393834 5.509531980215287
Si 12.051677658476903 6.309222596237148 6.718166341739803
Si 6.772986598031359 5.118204600214383 7.127765308582413
Si 3.393633589234092 5.985522863259865 8.060001478321098
Si 1.1742294688976374 6.492174442429731 7.316221436302167
Si 2.713771899255571 8.11246874323821 6.537191882952059
Si 6.629643261197441 8.726185721480164 7.267701883085406
Si 8.774283310693889 4.194205647838214 8.428256483676346
Si 10.901420009642404 5.152979494107987 8.371588094278303
Si 4.565393236847584 4.196803230623394 7.052281790822317
Si 10.139811033220498 7.458384955852635 7.614599624034959
Si 4.4920634942670326 8.358502130553974 8.05612864286496
Si 6.785394914519764 5.85472393320788 9.407835959858774
Si 7.4049570615623255 8.133007314617588 9.395851678880287
Si 9.65886079341856 6.113685106741715 10.084446565301521
Si 8.11877890670882 4.3801001955832986 10.731567902456423
Si 5.184275290733991 9.00248989492633 10.27983785942129
Si 9.74211636976091 8.483924233319636 9.775303075936849
Si 4.622535686386615 6.691073685230545 9.916316608877205
