33
Energy = -156.49557767 eV
Si 5.291378960409256 5.983885940084565 2.04390220935106
Si 5.570904014540997 8.37135828685887 2.6501568187931284
Si 9.340935227049236 6.671841836493679 3.240190489092059
Si 7.377529768186978 5.285226483637998 3.0597655311009917
Si 7.619217388123398 8.029249339957747 4.065520277968272
Si 7.540725993535159 3.0086452747911387 3.7466230210616978
Si 4.194498431565479 8.786757368046263 4.575851839295399
Si 3.9119109096335207 4.812212776638824 3.8950212902855714
Si 5.588612493463715 6.621265827861686 4.3991302908236944
Si 2.0906194224858896 8.38835200919233 5.634049072151387
Si 9.129658578881045 6.08497348160484 5.561585689424207
Si 7.841668249808501 9.485509410294204 5.933778628736032
Si 8.167125249545004 3.9800962823383443 5.805857324129357
Si 5.693795996671187 3.6400318101584546 5.091389839040844
Si 3.4960390591649437 6.4552534395014005 5.627079315297227
Si 5.542570168680393 9.895349283148066 6.137926572850269
Si 5.8191655034947924 1.9120676903065004 6.9957671020911265
Si 7.1324582088357085 7.211050668977882 6.526419593917221
Si 6.259862183021473 4.467680011599951 7.328077051427003
Si 5.008389360522322 6.4147558515686205 7.454216306721361
Si 3.5646507593392367 8.789300219932386 7.554959717932247
Si 4.690972419743325 10.79615672954325 8.027737730183889
Si 9.501882810874767 6.480667850299295 7.819097823820078
Si 8.164802375734482 2.1529431432189443 7.409152856811882
Si 8.190917899141917 9.037569720696661 8.27373276366295
Si 8.112634322404064 4.852586160758918 8.91490155043157
Si 6.335880665746934 2.848102502382896 9.12054562225265
Si 3.977347600938206 7.276113382157831 9.358785239146327
Si 6.038873812943439 8.39935386900868 9.714600571223611
Si 7.899000624005335 7.019693806484025 9.9588412950169
Si 6.701350102013877 10.60627735480593 9.406654626641386
Si 10.04590768990039 8.104623005759654 9.46641596073585
Si 8.658713749593979 2.6310491818889594 9.702265978582018
