36
Energy = -171.07392071 eV
Si 5.688670552617604 8.885143237054903 2.426311817973861
Si 5.461932953962109 6.667247940625959 1.4899455499339374
Si 7.673263810128964 10.105091454546194 3.019920761751498
Si 7.351565272481749 6.046141428266057 2.7355883039180102
Si 8.40110500678638 7.921113748246562 3.737322866864406
Si 4.252137154478942 8.545568134242897 4.273954565785105
Si 4.777688743365093 6.315262430474091 3.7541257557253775
Si 6.604304813428955 9.206784078210063 4.933456125426201
Si 7.826419117088155 4.546716950072633 4.477981954296904
Si 6.687388850007565 6.64703784538292 5.241550078919755
Si 7.239028142048907 2.562590863504144 5.566074595416295
Si 10.06217596874159 7.25724607995426 5.391076739910559
Si 9.932351435015034 4.927531337562882 5.503302184156828
Si 3.676744727212147 4.8325996637844515 5.22432051058641
Si 2.63399642443037 9.138120537642036 5.910347905686342
Si 5.1706909345655125 3.4121772979862466 6.240664425673701
Si 8.452746874448929 6.377002266683191 7.068245232159066
Si 2.0460254580392623 7.0492070855349995 6.913202243547184
Si 1.6095691652517314 4.8446880354886925 6.2736986196603945
Si 10.727914092992629 3.4412312130211937 7.19036887608509
Si 4.577478710700573 8.928518828619106 7.14882504235306
Si 6.556789073563722 10.179018033503421 7.090718274523617
Si 8.359719565086797 3.853233497769741 7.2863438020785045
Si 5.301501557067789 5.6356492462126235 7.2982496004236435
Si 10.980728934966438 5.505826902474896 8.358093203368366
Si 10.69233722032847 7.679981653043024 7.610828976666692
Si 2.8740796717487846 4.9597263906338975 8.317815575502296
Si 4.65722717021167 3.4212943677271825 8.575651502964135
Si 4.176268300337515 7.299559682436801 8.803346424693784
Si 1.9211955092822743 6.912949702652189 9.3232444677904
Si 6.801163493324663 4.5081212249571685 8.980728993822801
Si 7.731800938938332 8.43929408629645 8.207112352210434
Si 6.396758852900198 6.993753382657256 9.514642940837659
Si 9.385338140812745 6.516190499070054 9.674787949621946
Si 9.735056008060694 8.879448784632713 9.469274948784593
Si 7.576837355575919 5.558932089027795 10.96887683088032
