38
Energy = -179.26312993 eV
Si 9.63639011947015 3.199078598677038 2.161288311098229
Si 4.583093318330689 1.0340711316400626 6.234640669411271
Si 7.780479440225845 2.3834047355424497 5.592183136435492
Si 9.432467838760054 5.721023216806658 1.79617353988424
Si 6.4591633628564225 1.831180170441176 7.5356218393322445
Si 7.663389453843018 2.5547835678027573 3.244035067912844
Si 9.246237198331324 4.203254563400885 6.18339080863238
Si 7.3624170578670585 6.012134970898414 2.899541554382988
Si 9.460319582801922 4.727216488955657 3.9099162047005978
Si 3.8164472258947066 1.937435917777826 4.146080729837116
Si 5.489248576464164 2.4852007643837393 2.239813189919115
Si 2.8603941382254545 2.3754364000027146 7.193097386289573
Si 5.8278936406297515 4.20721473019344 8.388689135781373
Si 5.403390115472921 4.811910593379855 2.189860427898002
Si 4.922827704048398 3.4760206857856004 6.304645011768753
Si 7.824488181150232 9.525278947083466 5.3381491700244235
Si 6.982832051763174 4.557771769328049 4.849466819159609
Si 7.376219622469522 5.462639280769581 7.010019624620267
Si 3.4834513264851426 1.1624218419278878 1.96321531825271
Si 4.190206180040434 4.472400854876272 4.2053662000618734
Si 6.939181179454547 7.741397220423202 6.5806120136033455
Si 6.537107026987204 7.926361025967729 4.090864323139546
Si 0.3359808711138038 3.940822317552531 3.90408141654733
Si 3.356218140646815 3.8591252428876577 9.059592456129296
Si 1.530524755310356 2.227291515382151 5.129584793806221
Si 2.239179146474821 3.2009043213797588 2.475781781648012
Si 4.71848066331716 6.853166195157977 5.388681597625659
Si 4.124517844457344 5.941720234866013 7.568593502901161
Si 5.543062444549735 10.295112671010862 5.793744219333993
Si 2.139288233757493 4.453121860570119 6.021450446540533
Si 3.0749623302856466 5.295420672957091 1.8204897661107349
Si 5.098828059521269 8.188254733957196 7.925023183138149
Si 1.8719827166040242 5.601042925679835 8.095991276688494
Si 2.0554795932659986 5.719859837799264 3.916305656388034
Si 4.579534118348738 9.260320208813654 3.863090961919151
Si 2.6961664046991274 7.9352963339217 4.514424110093585
Si 4.363296887847909 10.562350281323972 7.882881863966565
Si 3.4185186461302144 9.059246794661407 6.367984139135987
