36
Energy = -169.02404705 eV
Si 2.923716932527157 7.080988992227404 8.440531549384108
Si 8.326102454698033 9.562017387879909 4.721604127757305
Si 10.138068470588054 8.127986105682924 5.617633229090309
Si 1.3553001837117429 5.421586564920578 7.964911738470576
Si 5.15442384315747 2.818179367226771 5.173056189518301
Si 8.30049911043324 6.365309747042513 8.572133972469066
Si 6.95433219370378 12.132724103670363 7.410284155532743
Si 10.422419132162169 4.788553964443872 2.5654614557905697
Si 4.755067736865536 6.416766231297825 6.995167518318441
Si 9.197915621045944 4.154165540574214 4.482380211161442
Si 7.187167306292414 10.420781894899633 8.993701593763438
Si 3.4720304793001966 4.13514357039779 8.514279622235383
Si 6.2469647902072944 5.999120781223657 3.1225175179831903
Si 6.48058711283679 8.124531530854485 9.162475619946122
Si 7.7336035684052655 4.0100496275194155 8.30930967289626
Si 9.440983477559262 9.179197880382002 8.523097859332168
Si 3.1475131764919038 7.452564933001041 10.791971771061041
Si 2.2555800527080905 5.276043085933917 10.155205178170403
Si 3.7945121942309727 4.9357688013337615 5.439278288923767
Si 6.651638599725448 7.79927393246408 6.794790707769728
Si 6.920870749019921 3.621539571372856 3.8436779917849546
Si 8.958610029909906 10.852005235246686 6.938611736201283
Si 7.708840520643816 7.837519680170476 3.136656006005496
Si 5.397311599673886 6.567203153886433 10.57291721620654
Si 7.87191927272278 6.97548201519068 10.883019146846218
Si 10.457025395225724 10.473980755063783 5.042306573178932
Si 9.631354851964986 6.615892939230303 3.864107813656644
Si 8.4423190544873 9.384170501233106 10.65277746165182
Si 7.566856358677488 6.22059493573517 5.21842115503744
Si 4.3818639226910845 4.452083091521478 3.214257426132767
Si 5.677619137023094 5.0252348564031655 8.815154891375654
Si 6.43267655463608 4.489473843251029 6.374778890568601
Si 6.571137189595039 10.09720572979741 6.172288251225199
Si 8.074310869323048 4.624034463610766 2.079197191888996
Si 10.467774150531895 7.232330256725417 7.817765008168774
Si 2.202907242133761 3.520394321579899 6.620867774443355
