37
Energy = -173.05280011 eV
Si 6.652171368003476 11.015759531969742 9.538003006109365
Si 12.327789161018492 10.150251400477943 5.568080032636772
Si 9.192760649129557 9.02853250428689 7.922374460768591
Si 9.257473635309704 9.316987023602241 10.290034039735046
Si 8.997397244597632 10.583361372889192 12.672765487339333
Si 13.681596261629046 11.956888372432587 6.320219909263174
Si 9.440745800658716 11.641327443347155 7.798376852815932
Si 8.023231781152644 8.600479582357215 14.480361790126043
Si 12.383984596963403 10.633961626771455 11.604875567251584
Si 13.879180596946027 8.577810467377317 4.552248354543316
Si 7.258938668827738 11.006136944211466 7.17781558596814
Si 12.650291315978613 11.814929073887262 8.451177531897143
Si 14.156710493470698 11.409139682495445 10.28727654355729
Si 7.662195757559936 12.993524276183821 10.514701475287199
Si 13.263738830704352 7.701237144214882 6.705595755318549
Si 10.296371721520389 11.35924324807176 10.835857540322598
Si 9.842259401435605 8.18026635872243 12.289068971208312
Si 11.497766944515998 8.962028880833834 7.592224471902754
Si 7.04404412798378 9.490894426062127 11.280935272119923
Si 8.042494877568348 11.009474291908248 14.822121587913678
Si 14.791042609204602 9.809567763307902 6.440900943339526
Si 7.941631138668268 9.006015128695807 5.906389600943014
Si 5.8511835008133355 9.427590478805728 14.290155110875574
Si 11.91344458031362 6.903376678372695 12.8886109911656
Si 6.314033881810764 7.743523688710843 12.65385488919458
Si 15.250881096922097 9.15086969789263 10.523598682831079
Si 5.625391535924825 13.1826421433267 9.358779454066541
Si 4.992079888699532 11.470903681907764 7.8465926919983415
Si 12.964837145451634 9.45124850136262 9.385381757453358
Si 14.99651251571012 8.29652243767005 8.208296028248439
Si 8.393800409069469 6.5755546857269875 13.407519595686036
Si 6.783787987455546 11.642188313555499 12.329570216340743
Si 13.099759601967715 8.260360686660212 11.412078414598863
Si 10.708935192431884 13.048755810298665 9.214237829065318
Si 9.94583985226603 10.42770245541131 5.886125992006715
Si 5.720886966567635 11.772349356765432 14.436674513197014
Si 11.87483383447449 9.238797395045385 13.487312085565133
