35
Energy = -165.34631095 eV
Si 5.630134976502824 7.7866129907490516 2.8477420406526686
Si 4.742910736531633 9.978187464038408 3.465296391844509
Si 4.828534779703394 5.907325021045748 3.9898111038402693
Si 5.715399635205668 3.8356868264559347 3.2981852986436944
Si 7.850443184288368 7.1111088737199895 3.087158044954707
Si 7.8923060351077075 4.7523684645517585 3.1044915095266075
Si 9.789597824016889 7.91018331739553 4.18937409893221
Si 3.2912363466535344 8.900954066247897 5.09599297441633
Si 2.9364659824120642 6.58563417344085 5.13867848642065
Si 9.921329622984036 3.7818167420682958 3.986359879638363
Si 6.613918768606067 5.170160240698716 5.361140092154513
Si 5.98399354466108 8.774348608586555 5.04962152156075
Si 9.18916565871449 5.722456903502927 5.17978989808966
Si 6.094276407945226 2.7107782017286617 5.391535096305106
Si 8.24802392257661 8.926416822598748 5.696987987912519
Si 8.382851105237078 3.208479429265898 5.690602077760819
Si 2.6977341491995706 9.732555992794145 7.2654527907656155
Si 9.397324102649394 5.570926770682371 7.5659975911769655
Si 4.846997459723275 8.56396653178921 7.14070142137909
Si 2.4984789789904025 7.442695295789865 7.825414568716229
Si 5.393442156701011 3.8891501194570743 7.364111318136292
Si 9.243410623306438 8.011128149811727 7.663497839617885
Si 8.748368232331758 2.9896634458549194 8.008818875282905
Si 1.454428990131199 5.657027079879902 6.599987141346603
Si 8.070884132176255 10.33851070656845 7.624366544855785
Si 5.137469730564492 6.379911749232889 8.085353212195416
Si 6.689330008260042 2.9117657748658696 9.183543334504238
Si 10.506550604272636 4.149746578352664 9.163632706386524
Si 7.392853577912113 6.61637264969167 8.748588536799728
Si 3.267846865903689 4.665481102000208 7.787354580272749
Si 5.935566145668953 10.16419784959775 8.700801143924496
Si 8.191678165697688 4.674210069421903 9.757525306818625
Si 9.861829845225097 9.766783070866456 9.151336404215161
Si 7.715065256139036 8.800508350093963 9.602975624033608
Si 3.3484943416439736 6.121222464798149 9.696116454562874
