32
Energy = -152.48247146 eV
Si 3.8571700548442713 3.9402097539544765 3.9939607142994435
Si 9.923673904317729 5.017201977578572 5.674849320007201
Si 5.559971137503633 9.848400433444608 5.135134480031932
Si 5.465151491915592 5.7143704168758696 9.35509708159856
Si 8.745918570306056 8.305705805420907 5.830982865669629
Si 2.2151454687745797 4.5811524320050845 7.430409502918937
Si 4.4336131505633976 3.5643156940960186 7.38933115493668
Si 8.687018890268915 8.064609318339269 3.4612434073598988
Si 6.170517960300503 8.689698644197714 8.440455165201488
Si 7.358081951044073 3.01370844365108 4.871000999671818
Si 7.571829085384529 4.003441698885159 2.6963034672163517
Si 4.013117467541795 8.308110913140487 7.603485326483994
Si 8.474277536106868 6.126049097790069 8.717918789843631
Si 4.555074810802255 7.293025111835326 2.479335376748498
Si 3.311162507195983 7.307675474050052 4.51409279333897
Si 7.767293231332093 4.006731319528451 8.122051019830355
Si 6.997409900298467 7.274987546660766 10.150240675424909
Si 3.216411760516288 9.459118212272122 5.689458037893288
Si 9.122151776648366 2.886485841798947 6.512966467192354
Si 5.52073829411559 5.217338936212748 2.9975961776364213
Si 10.195593695770171 6.902954125231624 7.2152696235144775
Si 5.810388428959233 3.4136871818385774 9.305066390946585
Si 6.327157673685294 8.216385263473908 3.669904708743437
Si 2.0594650979407065 5.261039685217053 4.977232556918555
Si 7.312204634513252 9.946303812046882 6.771464458835903
Si 8.659266360143484 5.735881045495488 3.8598200104243685
Si 5.095164197773408 2.480143561647326 5.382466454502062
Si 6.283639838596254 7.783928760105354 6.203631443432047
Si 3.2485172611900293 6.424380112001121 8.802356739997872
Si 4.012320296175664 5.996941464071105 6.474731754892105
Si 5.753832843542268 4.8339930416093955 5.386892353046086
Si 7.762039156656967 5.867343310253011 6.370569116170708
