34
Energy = -161.11338833 eV
Si 5.086560409830312 5.023629840069053 2.207997997069205
Si 5.6502307769221005 7.331136251256876 2.676365968876233
Si 9.678299756143574 6.930777185823147 3.4079748669820034
Si 6.224292584612374 4.989463014782692 4.325918286643798
Si 7.672547243563448 8.183962450775766 3.5060705556973595
Si 4.237497072158071 8.616157986029053 3.9818142246025356
Si 3.471430487630554 5.683779629757538 3.864250041484046
Si 8.611674957646644 5.218897641730983 4.653029743609311
Si 2.125576390388436 7.611781677117419 4.305297210742067
Si 7.842806319614901 10.402998039430738 4.232618905795327
Si 9.927823988940125 7.368564214964749 5.69809153621991
Si 5.833755767690463 7.060714374218749 5.425871560757086
Si 9.467908060627959 3.339459896187827 5.871649461737404
Si 5.587862091312314 10.329934608972305 4.997359532880551
Si 7.394238333272757 8.802176880034255 5.965471045593365
Si 3.53245528542325 7.31486888201842 6.228662197208506
Si 3.5491908705749284 4.931941667528394 6.148695802314337
Si 5.610071409095171 9.926588059759588 7.305154312644937
Si 6.5082139833534445 5.77442418993447 7.722681372518232
Si 5.884029792876909 3.82391842647911 6.363644041093697
Si 5.6637809188825665 1.8069366657141936 7.776388578447644
Si 7.862033689703207 3.327943310831405 7.65094821130644
Si 3.606004985717498 8.904618234945401 8.03984078240482
Si 4.102603059875804 3.636006009637706 8.048271822271827
Si 9.126882519488749 8.565581975883223 7.613079725334066
Si 9.983158868110067 5.375097126639283 6.885050808872024
Si 7.710400490279066 10.303366190890232 8.64214188864161
Si 5.107482093577509 7.454934757709872 9.00613888269862
Si 7.408031422898131 2.236407822649625 9.59830510030839
Si 8.77820846273039 6.369392593612462 8.638792606538221
Si 7.245867070107435 8.093995901730848 9.673150436823962
Si 4.898389973881544 5.234592248229634 9.628595250604965
Si 7.119558008257823 4.632814920248722 9.947897473606218
Si 8.488808015516701 6.390812485109866 10.960454928374414
