30
Energy = -139.82291725 eV
Si 5.471926183192391 8.171563096063881 2.149213423172978
Si 8.259349354690427 5.025979986506916 2.827126693791967
Si 5.098554291139834 9.448465288372972 4.102609219414197
Si 4.280675057008376 6.819754794195072 3.5419227622114002
Si 7.533647548665385 9.407276185725099 4.025088576739559
Si 6.33393664120428 5.687856581443833 4.031917649684036
Si 3.512999845484704 4.929895711229533 4.796036787438609
Si 8.553323114545607 7.238879486345668 3.672606187829765
Si 10.38827599307334 6.940386717335872 5.22518279459394
Si 9.063103599559625 4.983044415383606 5.1098679995651715
Si 6.648989769570091 7.565737843822262 5.513213594616272
Si 10.251494042722216 8.272391135973571 7.333612255649414
Si 5.689104734121046 4.415757025750327 5.970782509413155
Si 7.979580043672191 3.564465287737223 6.754608283370214
Si 3.2700122268552954 6.441484669768093 6.641071956056489
Si 4.529370953391846 8.452648280073012 6.227565619635287
Si 8.402618284698896 6.6710758363100195 6.865662804978421
Si 8.293368249504418 9.283626454057721 6.386192444100796
Si 3.326957852485708 5.46719856255148 8.859095015386892
Si 5.498940363943273 6.039053033269429 7.66577277423648
Si 6.039962669914273 2.1049752956055947 6.752617830561295
Si 7.887050906568852 4.59282822967568 8.821129184084137
Si 4.18013045307162 9.889734973498278 8.14971400112805
Si 9.074445831474687 6.702286706474395 9.215114078806868
Si 4.634038401911843 3.6081692659665583 8.147047324763463
Si 6.76691000679597 7.369775974532036 9.277038620939589
Si 6.431262237223673 9.335076953746231 7.818273304587246
Si 6.492130040170559 2.5394384974705093 9.236326354155791
Si 5.534347288399391 9.23335685250887 10.08369926285197
Si 5.734059641433842 4.958382485100267 9.960456312730798
