33
Energy = -155.89302558 eV
Si 6.354119181610073 5.274674223626693 1.9776137348461305
Si 8.4083721419574 5.761874568768976 3.0219661764328682
Si 7.579151891175087 3.3433812094128843 2.5808076765639725
Si 9.899977072334496 3.914289906615388 3.6341271904137775
Si 8.944539652774777 1.7122240221032423 3.494476875869834
Si 9.527812577829195 7.348112748375614 4.3242711020993685
Si 6.123147152964888 6.477877953755698 5.63454450320646
Si 6.025287818018218 4.5620485580322585 4.298286901122132
Si 9.373099369628946 5.293878068028455 5.518845741901488
Si 4.015431250693522 7.436517657888328 6.010808211140917
Si 7.7273943759062504 8.153433025699595 5.721742070286092
Si 7.899736616262027 3.2008906246535753 5.14823018125932
Si 3.8916506194696217 9.800400155839126 5.320701435743846
Si 2.3473016854602595 5.716528348094747 5.732224663988054
Si 6.208845179764847 10.009537935728776 5.880003796546532
Si 3.9804501605445113 3.8767050249876247 5.233313692555758
Si 5.8805447879720365 12.512719070019124 7.868634989623988
Si 7.665260689722409 11.73964054647633 6.621030335618726
Si 5.923680396463485 5.682801973579579 7.819679142133174
Si 5.269693601691263 3.163090120971632 7.012854745870443
Si 3.1409987419219463 5.8833289086687195 7.954971149102443
Si 8.325083287747661 7.482927882736869 7.8964787658662585
Si 7.333044116712594 2.0083123610988514 7.193865038941576
Si 9.667348894293399 5.497649460207825 7.849573173394253
Si 4.241697988562493 10.00529242019199 7.678131168364026
Si 4.368795380551403 4.129944416147567 8.979466811006175
Si 4.26288577939961 7.804587966364232 8.54718618436446
Si 6.679043041963474 10.262566745920088 8.366298442307839
Si 4.76719427168641 11.380693056571191 9.536346494886226
Si 7.824467814664787 4.113185863160921 8.191078572247168
Si 6.324456839697747 7.237634805098325 9.665583448428846
Si 8.08198023769791 8.880178717711496 9.756086325524473
Si 6.437507382858132 4.83307165346482 10.03077125834307
