37
Energy = -172.39847263 eV
Si 4.42435755884567 9.235260540207609 9.491388833756524
Si 13.857672803071758 11.843955253404403 5.994573188903774
Si 14.836056215277384 8.096927444433273 8.85851800758738
Si 8.389551302470334 7.886458995006324 13.620413845250436
Si 5.824949096086098 7.513535252413292 11.837530694535111
Si 9.468091682066634 11.24662783044717 6.029647277629517
Si 12.686828132823834 8.723951479094437 7.979869839679293
Si 5.313743815376335 5.461080988215785 10.41800475642101
Si 13.409017685130273 9.507873409927925 12.981699514869382
Si 10.2548250926685 6.579602928840228 12.298229689027885
Si 10.006656044836745 10.801009738625813 8.454911719160675
Si 7.1561716439606835 11.714855669895782 5.614234705198284
Si 5.091558740445818 10.388575345544432 7.554762512815419
Si 7.618672471012103 10.357497685344725 10.621375160022001
Si 9.794436035822494 8.93506001517591 6.607226525634121
Si 10.851505717260551 8.708139225048772 9.441856821108857
Si 7.134430345558864 6.882126669029128 9.930043355438585
Si 9.09008509519986 5.756255619469114 14.18097418923475
Si 3.609782744923023 7.137187974816417 10.431416256032193
Si 6.984315934744634 11.773127543508771 7.90973116080572
Si 6.807611605623627 9.016024522797993 8.87685205461467
Si 12.668067670647904 9.756558902675952 5.831796734602212
Si 14.335650247581004 10.418057107667963 8.926809630738672
Si 10.708254865898182 9.740696948670402 4.433575776756043
Si 8.52303825880555 12.31663348173733 9.607581404003865
Si 9.20212237111921 8.959298682886857 11.677676792742087
Si 6.565075208763013 6.46617627468003 13.856677546383963
Si 5.4211982194393435 9.898508319106346 11.61588314071389
Si 9.4502513556361 6.956354177133248 10.142496842662494
Si 11.551429931628178 8.584850170755889 11.840730840500626
Si 13.75983731591321 8.985605040874951 10.825685860451298
Si 14.135475434155726 12.656266274333316 8.309742190728644
Si 12.250679405267698 11.263102145311102 7.87851654346675
Si 11.52321510875504 12.013451623696836 5.101121877730378
Si 5.5344738492208245 9.850706171045603 5.196194123055292
Si 5.137955462945821 7.023330658105045 8.373896818179707
Si 7.387754888663616 9.353473961705928 6.563472060791825
