37
Energy = -173.47070378 eV
Si 10.538611966503089 8.375208120051072 6.248743143555225
Si 5.407628180162233 7.675150658267926 8.829077882171621
Si 6.555254436503124 5.499084558234314 5.986465846856607
Si 5.474538093984269 9.45054130134284 5.28058908414249
Si 6.057149117324688 3.0902184076264834 6.194300916319431
Si 10.083888510472004 6.240938186353054 7.224723548250864
Si 8.283629847411225 7.309994297461944 5.9464338650272195
Si 7.707373916881245 4.594286327034688 3.960055954224172
Si 3.673578113157479 4.550288345945846 9.04024605016862
Si 7.2341497237534504 10.355815912418581 3.8622536710508726
Si 7.769713770265815 8.50031310013594 11.043106580046334
Si 6.401543007843781 9.779132699269054 9.50383375703195
Si 5.569896976937076 4.3207410711512715 2.0787538708482103
Si 2.3407225697345786 5.867690034369211 7.566156480150592
Si 9.740893555907773 5.227474902904684 5.0461566556557145
Si 4.212185685294006 4.008688943506412 4.0355365677742085
Si 7.034624272683401 5.85539563919347 8.44193430794233
Si 7.68154214394033 6.070966319377201 11.353276322876482
Si 7.79705583855341 8.063734518438359 3.6066788861820984
Si 4.054651859227753 4.534190200626475 6.432702891725639
Si 3.1671684406615173 8.089528849827195 8.08580351724887
Si 8.448132289012849 9.962783452503569 5.93870729183751
Si 10.196366926801497 10.366608278167526 7.51896568742294
Si 9.05438163180978 6.654942120847357 9.42072637396817
Si 5.4786671617837985 5.629321087020868 10.341986705394453
Si 4.490186277343177 7.012232359756512 6.429185314187383
Si 4.378866937133494 2.5597413643357854 7.974004029511756
Si 10.030870528508702 7.40596035510527 4.104293553506339
Si 5.4537180962572585 6.172960355249455 3.87210740582817
Si 7.976198886668704 3.8168571206678332 7.501832406022185
Si 3.2090195066564577 9.452141389323927 5.999512665696412
Si 6.31280706723403 2.603640826178762 3.816057139491205
Si 3.781810275389403 7.7706249955 4.316365473798367
Si 8.726971565606748 8.969984671015098 8.918460036356102
Si 6.748660025056032 8.943994280511628 7.1910082808167095
Si 6.215794777095763 3.55399080305715 9.223426662458435
Si 7.22907965891867 6.190921941064617 2.1992339314786737
