30
Energy = -140.16656754 eV
Si 6.129652714912798 4.8791315138735625 2.6708516850216095
Si 8.152746196170398 8.170689431869976 4.900244213482845
Si 8.423884778360621 5.382143447363265 3.6072833492029557
Si 3.7604938147577887 5.782422399110064 2.67533632766179
Si 4.6862485754693735 4.546470276990796 4.6093658971183205
Si 8.358197228266 3.0981418496377997 2.8051778558225955
Si 6.183595295393687 2.6639790080328485 3.7643054038612664
Si 3.0561706415017684 8.002728856957948 3.252793665484826
Si 6.817126053414284 10.123671591966295 4.465407689032303
Si 6.508336173664805 6.257561056870804 4.8485283794144625
Si 1.3805340883980435 4.5679285605959326 6.106642638441953
Si 10.084310295731411 6.920963399243765 4.213984489703524
Si 5.293132992035501 8.246271622106867 4.138727237757
Si 3.355313339292653 3.1560102043966194 5.922059028485358
Si 8.64995400691604 3.2343691210341645 5.169808550805096
Si 6.16238171595158 9.093707794704622 6.485445695783651
Si 4.5032203048683055 3.3315606782216935 8.294191734245008
Si 2.745443190325289 6.24068837140002 4.92045794184871
Si 4.176859813650533 7.582714763515416 6.211613906499764
Si 4.18823163637021 9.145553259628597 8.140904928420046
Si 9.241026664875973 5.4026383482404565 6.011208306697992
Si 5.503795687572219 5.44207572223489 6.974038133162796
Si 6.550689286179005 2.894223745559549 6.208865703130375
Si 7.607583142163472 7.08558291287663 7.002278400905925
Si 2.8922242615039773 4.9293507812067165 7.917352909131277
Si 4.7077470872636225 1.4486158555898985 6.912038834758775
Si 4.24471981771056 6.795709205941257 8.610278348997866
Si 6.822488329322009 3.913241782762235 8.461533528741509
Si 6.620639759293334 8.728318354711194 8.7916128673808
Si 6.507672319399598 6.247955294091505 9.222081559734141
