38
Energy = -179.72505915 eV
Si 3.577556173032801 6.250176491112213 8.964394219496418
Si 7.909227360440887 6.278334276578542 8.69557521271722
Si 4.284748919801111 4.0107704971165195 8.308885188856602
Si 6.667066649559712 4.241272999072666 8.233779444748809
Si 5.73877903028106 7.189163168058257 8.712662207574885
Si 2.3247909486776335 7.860774075085834 7.505311424067342
Si 4.502271004154294 8.999962233770349 7.726153344448269
Si 7.127963406526152 6.587904941010334 6.440574782392839
Si 4.668365372870497 4.094164429426999 5.7204917568928115
Si 2.8562160026687358 2.8299603945771463 6.800851673281001
Si 4.431141226998931 6.392377699730489 6.6520695887792005
Si 7.525919481305412 8.291496990604527 4.826877083025996
Si 5.725838092705081 2.149004427207125 9.198864716762401
Si 7.438891235747884 2.0836555213289194 7.365859111519464
Si 5.243454423247181 8.474751325501174 5.5161039925266575
Si 9.350642268026457 3.2573568768536805 3.86992870462061
Si 2.1905352483544998 3.584478468468359 4.580667532555207
Si 3.0263462896770594 7.689932272553247 5.157851331237233
Si 4.940322812900545 1.59498813402532 6.957775989417474
Si 0.20486553068979144 3.9135869947020843 1.5965085789751867
Si 4.805152963607069 5.334981873977091 3.1382793859037452
Si 6.156068839839589 2.154772145353552 4.931776561392053
Si 2.5977540497730143 5.796686280792903 3.7626296042616842
Si 7.275710693567135 4.281963813141064 5.8742879055565105
Si 1.9226928679858943 5.573972773285635 1.4980737198728047
Si 3.0970196021984058 2.0141988428902047 3.1174118265119293
Si 0.8411178371819894 1.6336674473117936 2.4027290900128486
Si 5.473706121116116 3.2740568288492926 2.0380796316250613
Si 6.768181859128899 6.616147811978014 3.3017936244149424
Si 8.421041592958872 2.8657626586516214 4.407763335347112
Si 5.28289805066964 1.0838860534413286 2.9907560445585037
Si 6.0045219150230285 6.754970719616347 1.0444680928474068
Si 0.6090012503479628 2.1043573726310036 0.05537130259672262
Si 2.5829874908339208 3.0707340765719606 1.046595125550257
Si 7.566361767589024 4.440027542189253 2.7468980538870382
Si 4.196307394137837 5.243377989894739 0.6885972749305063
Si 5.131337095826821 3.2889833725612414 9.198864716762401
Si 7.030013746120537 4.67501209723035 0.4532376465619008
