33
Energy = -156.95066412 eV
Si 5.289780597124981 7.111037501526685 1.8601182962471599
Si 7.625890133929693 7.195788087509174 2.5483699448282833
Si 5.3629236633939845 5.118704410048863 3.158633828250925
Si 8.985395421565636 5.456269536506022 3.2995818074930034
Si 5.054573028627999 7.577410071300715 4.245366800879546
Si 7.318287197685731 3.8468949982786587 3.3722799358017643
Si 8.273785419528005 8.373767350190915 4.395533817313309
Si 6.31548154580383 9.45784072500802 5.075331276557806
Si 3.861234109361357 3.6922607277114974 4.291234825588914
Si 3.603051736427904 5.19388524143515 6.058209590171444
Si 8.643012890214317 3.886233734401474 5.75213138838625
Si 6.936962956748084 6.129938839205118 5.09907562342905
Si 10.615834968600364 5.099381019731849 5.014279372015329
Si 9.179753437588326 6.795133889402876 5.89964112295515
Si 3.097174907232707 7.424446844675687 5.662342883549034
Si 7.694412225362726 1.9645119688076917 4.6520304604584215
Si 5.6441758121149235 2.745796879237066 5.538402379602792
Si 5.870405027371282 4.979183065144784 7.093475260915359
Si 8.542963489742661 7.6305378997237545 8.03678495546444
Si 6.513542024586079 8.508011831602154 7.239046910416948
Si 7.776514484182293 3.6664761279128775 7.984581174561694
Si 4.287977150556138 7.809169791181184 7.677703954461674
Si 5.56491248442647 2.546156163410546 7.885152291365155
Si 4.812095037373015 6.080540069265379 9.153015023044102
Si 3.773042094690599 4.160350984501681 8.245979237858911
Si 7.410236534837013 5.762277519708287 8.960294051852447
Si 6.083466300672341 11.04231063031663 6.942806367978816
Si 4.8613214302504755 9.874340423122646 8.65366098167743
Si 9.11996405838411 9.153989791993393 9.802759031498253
Si 7.434066684821945 10.560160435435035 8.837392907216344
Si 6.87698713961698 8.601174268369919 10.440259241792717
Si 6.254311806850411 6.340750357069776 10.981357865849864
Si 5.816464200329343 10.715268816266528 10.643167390519233
