36
Energy = -170.26179574 eV
Si 3.7714724971730633 4.680883713062998 1.638197680370715
Si 5.91956256744236 5.866511571824442 2.0902998431169566
Si 5.30510600479292 8.125294075883538 2.3070711976923564
Si 3.674883390251102 6.550887323599589 3.051068366906634
Si 4.537069013969317 3.923576422201613 3.7737670517307906
Si 6.70896386620956 4.7658214731087085 4.017149863311792
Si 8.888951165892749 4.286544862969376 4.6174718355091295
Si 6.273217772823345 8.620282885112392 4.450457253019051
Si 10.001821258082959 6.529147512108571 4.5269858783979435
Si 7.756954282881906 10.150402493225766 5.496600452140265
Si 7.618007419758619 6.747725861788351 5.370156943599746
Si 4.8932442650069 5.5524823245199695 5.663534137204215
Si 3.420885505198152 3.522932143387055 5.939829314164701
Si 3.2358912818266745 7.262008441822072 5.24088806535594
Si 9.576789067671964 2.87647824075949 6.363707112368036
Si 9.229723992550158 8.412319039183934 6.16077665913433
Si 4.230267261109186 9.40612231070151 5.503216514643272
Si 11.41127017480133 7.378812965738927 6.379454189658447
Si 10.129445297835833 5.199261159413756 6.7258394586698955
Si 2.5196820919463523 5.629074391245806 6.764870993548284
Si 6.064575019846297 8.491294178989126 6.953888044282151
Si 6.9998945313367695 10.558741297271139 7.7646361121927905
Si 4.542756575721305 10.194103891524993 7.778487800976732
Si 7.670479583253423 3.5015524912593925 7.682290407421593
Si 5.304904443967686 3.651188632216492 7.467864972542175
Si 5.314079153673674 6.168053662247029 7.9688741573673
Si 7.733636351921073 5.921489117704441 7.72166357307955
Si 10.202929106533183 8.461151112316317 8.448024659537964
Si 7.805003246550653 8.378429034445222 8.758686854498423
Si 9.842555418938257 6.088181123351949 8.861816295544171
Si 3.0041686781557275 6.289120029200952 9.05011877403422
Si 4.5940335632550235 8.187964763812625 9.144829150180362
Si 4.556866757310465 4.495202290789613 9.586821960826837
Si 8.374711899975106 4.329945869766315 9.866403381694639
Si 6.3671415681527295 8.049867620088321 10.717103994018466
Si 6.519055924184746 5.747145673359733 10.147147051261157
