36
Energy = -172.15468759 eV
Si 1.8588949790068834 5.669689042952961 6.387441448253793
Si 10.098264459860529 6.149938349861433 5.612802758297109
Si 2.1597048873020004 4.486145049332129 8.400624297234353
Si 1.9579236495332235 8.045111035826954 6.4831711305897635
Si 1.5172105803747655 4.6980710693409655 4.253727230965386
Si 10.60289950374179 4.067314522831154 6.698972206049859
Si 9.89145126504286 8.172829793065775 6.843410484496927
Si 9.834340508656116 6.307753640071003 3.292067909122289
Si 2.9321369932136885 8.539281458964968 4.338406308940847
Si 3.3938645525571864 3.3659083949155373 4.9518794543477815
Si 3.870289472151627 6.01306449977758 8.774401690661598
Si 8.085694973234405 7.764961888017828 3.6937325005876964
Si 8.72196891762129 3.2924577530975436 5.401923388956731
Si 9.09276778998363 7.101988094631294 8.826465972083898
Si 3.144880359037712 6.280158358125719 3.5713253144216988
Si 3.9410942459979625 3.470005504822259 7.207254225810269
Si 3.5293207692328727 8.318116711052163 8.287337114526077
Si 8.070036020563112 9.142113526869574 5.5804999934102995
Si 8.142844068971181 4.699661368371653 3.645664611808854
Si 8.903380202066767 4.7926814161186515 8.159050692706584
Si 5.7959833554374125 5.658401342526051 9.997960914933254
Si 5.23189457181487 9.052623378458696 4.620020274425219
Si 5.470145702358109 2.794784150709548 3.990916808887538
Si 6.701674224930591 2.109541379643385 5.796297156405325
Si 6.825535043110421 7.609328034942687 9.110527364472542
Si 6.0835485433863505 8.127497757486163 2.604991473929717
Si 5.669959371739096 2.0256207684635372 7.939635406483525
Si 5.698502053084727 8.978999504355643 7.5383552549362
Si 5.350387231396573 5.902250654848026 2.965662209226952
Si 6.673405249489552 4.11626728663722 8.412501092635411
Si 6.290512989673748 10.729464424795472 6.014404586913744
Si 6.4508671389449335 3.9611310111839195 2.174970963205773
Si 4.275466588935784 7.311415768577699 6.130377474945808
Si 7.648923656210956 7.101629130350051 6.801850541164627
Si 4.939018697523644 5.174136351853631 5.3486176601772755
Si 7.108524763207418 4.932974956515367 6.106069463378919
