30
Energy = -140.18657619 eV
Si 6.24886099540172 2.998341287081405 4.216656091096118
Si 5.612135954482324 4.675339963866921 2.5686938897712226
Si 8.55097469464831 3.373120179369863 4.592604397146502
Si 7.219697374151916 6.460224150959493 3.172857414836517
Si 3.2080893200508136 5.237413490059497 3.2823874534058213
Si 7.072724661967213 8.842396135543062 3.548389853545439
Si 5.296708021614408 5.417745881664581 4.857416351009018
Si 9.368909662702368 8.25693514666674 4.031699101952143
Si 9.045799444339899 2.6996386295442902 6.893290036620183
Si 9.43104950629637 5.487803718774088 3.6648323671638114
Si 3.4288015724396836 7.529216195462238 3.898132864459724
Si 10.192027837909489 6.605718843139633 5.744911889146199
Si 2.7113136954672576 5.653766434773614 5.635252168697264
Si 7.827975746949103 5.947028084788516 5.516916982840167
Si 5.510870870352853 7.865916537274407 5.109498652632892
Si 2.7706520494258764 9.584659409522482 7.768360530725048
Si 6.845800644628942 3.9838701598231827 6.374773748922078
Si 7.815069526702632 8.254517837519428 6.006228434926071
Si 2.5405885807678024 7.954832419246087 6.00672782037056
Si 7.359889157978743 3.3838400274124427 8.843796242690031
Si 7.232070742512409 9.450076311491193 8.043140420686266
Si 4.520603992061619 6.381376039157149 7.148705660157847
Si 5.016653035597121 8.821941984185903 7.310586504036447
Si 9.304080391100982 5.023741842508148 7.453809776906254
Si 3.5549095281787597 7.698819482400148 9.051781377548531
Si 7.049379314232373 7.282475376148524 9.001025365035508
Si 5.851545656394027 5.205914868567012 8.672523298427773
Si 5.201705827601816 6.906992061832203 10.560319401757448
Si 8.516958767573932 5.499947007346317 9.55016469806038
Si 3.50633917842491 5.328576245827204 9.28670295738214
