34
Energy = -161.43648351 eV
Si 9.311470168744757 5.567303386762108 1.1538691889791926
Si 7.515716611626945 6.9281322218728985 1.9956099479340634
Si 6.890842707875894 9.214019710834922 1.7367519305803327
Si 8.803960790907 4.44953735219768 3.2045406813397324
Si 9.981906026612835 6.964413569281081 2.946195961474772
Si 6.253324718098982 5.690528645082741 3.6158976488612433
Si 6.771124024349639 3.328037144883998 3.4819543897976506
Si 8.898897195931367 9.027164088955047 3.081706229737036
Si 4.960485563886075 7.301826073550872 5.057064856576546
Si 10.242608069750839 5.4849992903622145 4.840090325272045
Si 6.0796549168725775 9.228450278178826 3.987231310349747
Si 8.096928682593667 6.778982902816294 4.756364065638684
Si 6.983322354745814 4.044726466581093 5.69756679229068
Si 8.023886944894333 9.0926529018089 5.276082434988563
Si 8.746091669030683 5.719214180364115 6.850656920335286
Si 8.168924739087267 9.80450164459562 7.529345092136166
Si 4.355849774543658 9.854149629017352 5.459038358456964
Si 4.9266658248994535 4.159402438833612 12.143822855216506
Si 4.515512212454046 6.063092204402933 10.724910661999944
Si 4.936127796645826 8.392460336083525 11.233909352348396
Si 5.060083853391772 3.2425711293882977 9.927727116110185
Si 6.863222127697031 5.01839042764197 11.004531503111425
Si 3.48152006170621 5.492199854698678 8.674824331808535
Si 3.45694879632121 3.229094354909473 8.103619902578489
Si 6.773642810066804 7.214722806094363 10.297828773731432
Si 3.130853514737965 7.518269062433404 7.5496971336393
Si 7.199101392297427 3.6906656190043017 9.076090426404255
Si 4.578853836437274 8.719369102810322 8.942072356994949
Si 5.550987526750842 6.76441950292695 7.2887370932571915
Si 5.488922258344913 4.328658069175516 7.4687352576369
Si 7.671993653843328 7.51384408045772 8.11791329553718
Si 8.7533817190334 3.3991071803607715 7.273728126836993
Si 5.829140696216445 9.68227449665572 7.239786682827098
Si 2.6980469596053744 8.092819846976965 5.262098995213495
