35
Energy = -163.74083871 eV
Si 6.280013352490831 2.4093867111494363 8.358628438032612
Si 6.410069110015878 6.001737236307451 2.1726087267073977
Si 4.4534610990302586 6.831159069304263 6.8667901548406975
Si 3.086037494181062 8.712885996987627 7.634240190377507
Si 9.562143892615321 6.610097942348283 5.789671992960738
Si 5.913632408052012 3.332630858856524 2.8813728400226872
Si 4.695658067659669 9.153906282877461 5.730038133979952
Si 8.778074148054793 5.949895752708694 3.6377075134442056
Si 5.964488299238064 5.213218968024967 9.285123547809977
Si 8.491671906575311 3.6107969773844393 2.954479421391648
Si 5.294787452841211 6.973917324198402 4.583266333592676
Si 6.9118757996753395 9.990811359948667 6.326723159247519
Si 7.967416383795348 7.830402320859013 2.4666394286876994
Si 6.751511409636245 8.515496067975405 8.300192386403372
Si 6.287468183718782 4.567711580891747 6.94258329726966
Si 3.204976773223927 5.455086413471234 8.685341242828398
Si 8.911763039621167 7.624091225851334 8.46496238402142
Si 7.2982997713931965 6.680492771914713 6.870966346548573
Si 8.100415105379216 2.9071179155118503 6.881448281729005
Si 6.704006053782318 4.8764506801497935 4.53669728259995
Si 9.43554351181726 8.939675365931707 6.469438757956463
Si 4.748646661499505 7.414248955167522 9.261709205499459
Si 4.0312653453103655 6.442710654432404 2.4977501038558634
Si 2.0182397942692747 7.364794448624827 5.8557248158480615
Si 7.482455417287882 8.071305410705106 4.84701167585959
Si 4.161513208153078 3.417336603239369 9.465448915600719
Si 9.164599422948518 5.163778882375899 7.6378132260526
Si 3.284942497427239 8.361195127584965 3.7779706799132207
Si 3.203840497527362 5.596728689911963 4.687753316551381
Si 3.952426543849101 4.221313612987292 6.660153670859961
Si 7.181897700043334 4.0320731128260165 0.9718660604391194
Si 7.302780999334854 2.351324494733156 4.573318932069904
Si 4.022531958586819 1.96179355417431 7.558832263642824
Si 2.318424772542243 9.813178319259373 5.382448572733307
Si 6.270247783817185 3.2483754776431555 10.630404686384951
