35
Energy = -165.26250466 eV
Si 4.697189826367307 7.085724590054125 1.000556797818353
Si 6.765126171488493 4.8343950551027755 2.145399236212846
Si 7.187950841455076 7.024335928997787 1.1970289406535182
Si 3.760638504551834 7.830556069117218 3.0629603198126696
Si 8.09187769717228 7.742304258424557 3.473036653031496
Si 4.38411959500665 5.129552014453973 2.5526699456565654
Si 9.798614496828908 6.4410275246049125 4.597827897988717
Si 7.833051324846748 5.228675341653375 4.323196558799569
Si 2.6571359775097325 3.978765750929023 3.8207723067375663
Si 5.930167747469022 6.789424962392128 3.4066740809388696
Si 7.535246682964787 9.279136342268245 5.351958154265734
Si 2.7277674607743383 6.2265948150597445 4.482304860617675
Si 4.432516321616518 8.706645590712862 5.242610398134376
Si 5.618022271591046 10.783735253252786 5.636679091515122
Si 8.49899696548057 7.194966648778628 6.47624961937188
Si 6.163021533569775 4.9709887182624755 5.9900954022253705
Si 4.1085577165706715 3.842570882587969 5.735393538434196
Si 6.093297324334843 7.329444900773981 6.248306895065094
Si 2.5453537853156663 7.606375209447184 6.356271989978558
Si 4.778569783001009 2.075539969254549 7.26315210478558
Si 3.4388634071726667 3.948803118204461 8.161657866821248
Si 4.0308612260083345 6.041142387817502 7.331747664164049
Si 5.951185586635831 3.946417627099882 8.077542656383194
Si 8.733158603497024 9.583963653251153 7.4933323903672875
Si 6.307662008269073 9.662250546930723 7.612550701277972
Si 8.990736958367673 5.726412590089345 8.311539404164675
Si 5.334810328801207 7.736222323052321 8.553570519699841
Si 11.099097916200696 6.228717746112181 9.30688137568173
Si 9.432925275397348 7.976184135202021 9.325384394209394
Si 7.510423722042664 4.520893596940656 9.781234421281846
Si 7.229263556118307 6.9331903386674 9.655620733310831
Si 9.820829767244453 4.443168353951006 10.594020830273003
Si 8.202974354742443 8.233617197334786 11.444372553402157
Si 10.095849244459389 6.607746949604963 11.652108992141777
Si 7.714136017126577 5.810509609612425 11.835290704776883
