39
Energy = -184.65052169 eV
Si 6.647847875822229 9.975517830479625 2.3425157259594696
Si 7.624366795550582 7.763508232894965 2.096067382624483
Si 6.989575212931277 5.941860996591659 3.621017947497788
Si 6.903100662184653 3.5506694924808544 3.700937812597342
Si 4.4476861275026565 3.3287966347273192 3.9481544075091146
Si 8.742873957644735 7.177557862671231 4.484081074130874
Si 3.514413017577393 5.495086874821793 4.567340523932929
Si 8.730371380019198 9.412071394188223 3.3767149791592814
Si 5.847674993802172 9.42144236767022 4.540485650864784
Si 5.136404799753332 7.180002574824967 4.321464902865177
Si 5.6179592724643275 4.15717850253418 5.888012761248954
Si 10.868469059645312 6.350136576431407 5.045637196275771
Si 7.956973053976808 3.3253263888180844 5.932031818590663
Si 10.338654055679429 8.33410608990277 6.27404670966024
Si 9.640719110062683 10.447304729459361 5.33968384876967
Si 4.070579120245188 2.2755863922944832 6.126927656408122
Si 9.42209698958759 5.210417473782131 6.6391601162895775
Si 1.7086460239671761 5.692332995941267 6.0268691763353965
Si 7.804772320102472 8.925402342176207 5.8653660459707835
Si 5.316815527389179 6.378225094333344 6.52937731701277
Si 2.706011625293839 3.917084335000575 7.194307032357318
Si 4.379683788997473 10.083461193806246 6.32677722096391
Si 8.079334028568224 1.4564103605688434 7.412616316017423
Si 7.497085137380127 6.466466440685849 7.420451034250964
Si 3.2855492641618884 6.416974739107208 7.723365990461652
Si 5.613944543059237 9.79608099001702 8.332797970756356
Si 10.25468122260834 8.785824740093842 8.614610958361704
Si 3.485925743175579 8.802261776477453 8.21899407882392
Si 10.744890399659466 4.457164522975419 8.51576769958107
Si 5.90530721794604 2.370954875010699 7.638587076386652
Si 8.590317112476962 3.5177258705793992 8.602167950111587
Si 7.804205634733293 8.792472900103377 8.328528163219591
Si 9.711181269906154 6.524432840995285 8.969238841238562
Si 4.881106252693449 3.4552106918843104 9.503002910321777
Si 3.9195020687985958 11.411702975759875 8.548576685374913
Si 2.832995589329541 4.711071907877763 9.372055936231382
Si 2.2235176244631742 10.48982911886784 7.0623782343206045
Si 6.704772535930568 4.796277447975335 9.16976568840354
Si 7.54998958491098 6.906061425191073 9.880117159114722
