32
Energy = -149.51493083 eV
Si 7.984785099702608 7.19606372712596 9.619864862457444
Si 10.081665639964173 8.041522620108186 5.669287219752966
Si 7.631854114849409 9.369661301015975 10.76195008757442
Si 8.393194276440136 6.039693514991008 5.5805764614288345
Si 5.343033620861957 8.690409957780359 10.2113685524921
Si 8.070279472493821 8.232407698204913 4.515019387375334
Si 8.647046161781065 7.5108733026632475 7.436150784581503
Si 6.870020136176464 3.246089454449061 3.0673375969574757
Si 6.16341980936152 3.328567664706915 6.955845114657015
Si 9.161771039538158 1.7546638093775706 5.687228270760399
Si 7.2154159181141795 9.359089606833484 8.457872847561978
Si 7.841496124245217 3.6724867180556457 5.282075374765782
Si 5.764544601132821 6.825555383208135 8.86827963898959
Si 7.511186432696098 1.0666235689902057 4.112884918335006
Si 5.882345043173258 10.738350776162028 7.009264907570498
Si 4.586750220133789 9.019143346830704 8.017714271481287
Si 7.112499792272639 1.0344020439431685 6.684231950773613
Si 6.639555875467889 9.157127539744385 2.9043801649519376
Si 5.109805136191866 3.7390239078232437 4.746105014320554
Si 6.13135823593174 6.824833786391491 5.6828864792304286
Si 5.819949606310407 9.18278791593863 5.211064369498107
Si 5.1361650898218345 1.5594753659036733 3.572049339872361
Si 4.57687454709376 1.690956568814306 6.08721768193659
Si 5.1874992244245615 7.320258454764043 3.483123332779852
Si 5.761891836868891 10.738350776162028 5.189292310238033
Si 5.0055748166438505 5.405683697400973 7.213999623400622
Si 3.393515981878639 8.642941398042117 4.94951981203567
Si 3.0080829487841814 8.401260631643686 2.6610931530862287
Si 2.4576394312262475 8.270280635376713 7.119818961034687
Si 2.6276593964499284 4.334334032540163 4.7859502052878335
Si 2.9910432708306796 6.3229780201094 3.6935930330246545
Si 2.9760686713624085 6.13162263771429 6.276314163202649
