30
Energy = -140.28315775 eV
Si 9.00226159132934 4.581568271138223 3.0449488172308765
Si 6.542488335698367 4.634545335751138 2.4225453425031236
Si 4.824506244600303 8.4325264888155 3.0468663384002
Si 5.119873599377738 4.626796784115289 4.425597010959055
Si 7.5697255896163655 2.865691542154187 3.964574834917953
Si 6.738640500752252 6.965525709536805 3.222657648047819
Si 4.5575932167345385 6.935998681560868 4.782855753387685
Si 8.46332871660442 8.726093765420286 3.3248864944953973
Si 8.918273752952091 6.7680091502916255 4.525227808099287
Si 5.4181069254134595 9.346073745644942 5.258143931213288
Si 7.675225976991944 9.160396793105269 5.599659723756854
Si 6.674015920668849 3.805453110203521 6.118967493191315
Si 4.065219897787161 3.6718817627875953 6.427770381762399
Si 3.67896110273258 10.241330497697964 6.628301252933059
Si 6.809397336948206 6.218052596460585 5.643396193062762
Si 5.668103413418897 2.411437366584282 7.810580210998913
Si 8.952850431888306 9.337184670161056 7.616857052517359
Si 8.927085981484439 4.483066663577213 5.448984876340119
Si 8.999049452659548 7.0138193519208585 6.966585856530309
Si 4.305628734474026 5.820012904093605 7.423542170835029
Si 3.072476139631356 7.803216385158583 6.650769540774985
Si 4.9052001683821045 8.839604442094316 8.007170226407752
Si 6.613634070644709 6.15359758661578 8.068004232497453
Si 9.76015415845332 4.7987637558872125 7.647516717059927
Si 5.783023032953322 3.45326340238535 10.022352915919258
Si 7.050150283295833 8.341625214863743 8.76012769858748
Si 5.132533796029565 8.07003034403538 10.475163410306239
Si 7.5286806426010155 4.065006399473979 8.488499743177348
Si 4.821388242635315 5.751929343950454 9.802096443335621
Si 3.132286363431475 7.38736155470524 9.085213500942325
