38
Energy = -175.57461239 eV
Si 7.134341147057568 6.980789810766768 10.848161904578179
Si 8.844264816895159 7.901406032459296 8.651871468807052
Si 13.118951043139491 5.870265073431233 11.48303737083121
Si 5.741864536415909 5.958226511567316 8.839312177547582
Si 7.688353581148574 4.0666132574075675 9.878458969670143
Si 13.153416483348103 11.6616659988884 7.749810688656961
Si 6.436540832763233 7.01711410552771 6.89991311625018
Si 11.548390777394085 5.929808695016298 9.81173384956862
Si 6.843666454722575 13.16735786971694 11.383954629031312
Si 7.869634694062356 10.952029921315226 11.102250642602252
Si 9.503316851476784 9.984268285775665 6.448206475428402
Si 7.4932498420109415 14.055980199835373 6.9435314156239905
Si 10.438358479413965 9.570557483673422 8.781763004844583
Si 7.87297687048544 13.694364944534625 9.289468123085662
Si 8.166436208942322 5.8281431999112066 5.665387514303132
Si 9.496086990658984 11.847240093930987 9.64700322048001
Si 13.522710672099867 10.455841123378413 13.467492624168026
Si 9.078633776679892 12.952897362708905 12.204502817315587
Si 12.053070575325007 7.617192815357279 5.860347201594966
Si 4.435284174377965 4.855049301052873 12.937575484926827
Si 13.406500193628238 9.792953628026977 11.315697825108435
Si 5.6966357924364655 4.943184565606954 10.998753848633138
Si 9.219051144476616 6.013614660392092 10.075850711948235
Si 8.870279985814886 12.131017966312724 7.2710169351893965
Si 12.001264146465964 11.082360251126905 9.812933497151839
Si 11.824668714552642 9.89116625591363 6.716025805174856
Si 11.137259659762792 13.17622658484281 10.841702754586764
Si 9.649806913776562 7.570162601877718 6.41734590793554
Si 11.111258609253317 12.860363764099349 7.618936694469525
Si 11.562893057728763 11.124152030437699 12.375744065118484
Si 11.990726946323015 7.690284767818335 8.214431786947387
Si 6.5211514987948345 8.480817910678303 9.065755226958094
Si 9.33242829704539 10.75994335428043 13.051779334430206
Si 8.08229246420174 5.307864959700937 7.946012856547635
Si 13.349132607159385 7.727588307849537 10.130922635450535
Si 9.870598629718609 14.616245728922172 6.6986251493948625
Si 5.980945067217432 6.532554956096806 12.813861870523379
Si 10.078896136095093 14.639631636775624 9.11650683395103
