38
Energy = -175.22586897 eV
Si 5.887675774336435 12.04238388977954 6.348453711457261
Si 9.901591318370468 14.20087805609272 10.55693185481151
Si 7.531235509522781 4.995715990197734 9.46606637909952
Si 11.551514885895202 12.43294028009598 9.639345156986062
Si 7.390214791352087 10.107123306180334 13.563902845090244
Si 11.031258397869097 7.591239142399333 10.705003864856444
Si 9.960645524249701 11.769725579228258 5.115331456113679
Si 6.442478656904971 11.003330613735578 8.852088270565517
Si 7.276460472193463 9.230919507876104 4.262587894306056
Si 9.495449440637923 9.343173918568258 5.010916657763424
Si 10.919335450615035 5.027052519521715 11.091691263995628
Si 8.551928110618183 13.428277583183174 8.695857818408573
Si 11.43428304952581 5.6026579982563725 7.499309506114007
Si 6.731044583661542 9.237309596658884 10.914161350399972
Si 12.507026932613746 4.078857074915325 6.167969019282532
Si 8.328889428503777 8.161088602694834 12.352665056808537
Si 10.856612895234765 14.32783466434867 8.296858631492686
Si 5.21326195169349 12.385736601759584 10.275618796578046
Si 5.654111344815587 9.668602802572682 6.772739072961521
Si 12.858083412140187 6.192403257692994 10.189026858787933
Si 9.040468184388333 8.725675777195692 9.93602701341457
Si 9.614011757342102 10.302335405343557 12.684899259773893
Si 7.063064609844537 11.505345768902448 11.554247508519051
Si 10.80207463804436 8.243975114257559 13.040358870564699
Si 7.668499917566853 7.213701649642744 8.666282827794108
Si 5.72410223464696 7.811173229875469 5.279375835476347
Si 7.989022848538119 10.910111842489616 6.217791023417591
Si 12.520922236277523 6.528412382389707 12.53524972343958
Si 9.378259739829524 11.868380352968037 10.860913044180581
Si 8.846854040254874 6.1217163779738435 11.17540619323744
Si 10.238680272736472 12.126605744081175 7.432269275354102
Si 10.941396007942338 3.1614600676913294 7.54756591916232
Si 9.805718859574004 4.657250003353617 8.928288978029293
Si 8.816062118165354 10.831114245108587 8.780566889771922
Si 5.654464712810424 8.542179552960713 8.928764946059216
Si 7.809267288587047 8.419287347125334 6.589237689372901
Si 6.221823835017385 13.534932780711829 8.328010581333523
Si 11.976281053442559 7.1303113443042605 14.679580094956261
