35
Energy = -165.2798777 eV
Si 5.144697693752062 5.201736843098524 2.1594182880537276
Si 5.259119757002275 7.601200694877778 2.4771746603408142
Si 9.180169519797298 6.364200094874313 3.2614431052381607
Si 7.273565030751123 4.839147512995186 3.492061881288408
Si 7.366622075981471 7.887547758088446 3.460650947626287
Si 3.5184815296781955 4.892782366197365 4.015135123603905
Si 3.9576530430616397 8.489928335666443 4.250226595069337
Si 5.552645108523187 6.163430601182524 4.4783048183053715
Si 7.343567960636905 2.7973224209221033 4.78333810684707
Si 7.246259370942016 10.111195982464944 4.2898304993899306
Si 2.9117706510985317 2.943283990316309 5.397463315279599
Si 8.790141290733132 6.42257223861908 5.64482592031514
Si 3.415639963452814 6.729073378471785 5.855265631144518
Si 5.148432359206666 3.45292972095941 5.307526429333355
Si 4.952035574480317 10.40113401887838 5.134485338334921
Si 7.923830276215182 4.360350972673306 6.5239045846199115
Si 8.994315797730655 9.523669068340032 7.862279571613687
Si 7.614467075754983 8.460458823707526 6.0957801897279245
Si 7.965287964220369 11.032917111551624 6.33463866286161
Si 5.257696595851851 8.299691921260322 6.45831076910186
Si 3.744275988488024 4.452154345548429 7.099925490520947
Si 9.519413204769483 7.129258913408299 7.796580628817791
Si 4.560218360287668 10.382768614474847 7.606800514318801
Si 5.868182099115417 5.5886250728180045 7.051110874044342
Si 9.682942930349704 3.796435261555087 8.125108588618897
Si 6.653482894354192 9.427819174302702 8.424316816674342
Si 3.303685221802218 8.14351281391164 7.903349878400056
Si 7.78331209710343 6.479729019092746 9.241388866319006
Si 4.679205422017511 4.448657926722584 9.317091072506484
Si 4.950166983317067 6.79947687858101 9.064603521437107
Si 10.848475130567646 5.600936782916506 9.113950043702838
Si 7.062786776443348 4.0826761305119295 8.892149807579807
Si 6.4449331368968945 8.059794763582605 10.38417322337628
Si 8.561756282446254 2.4271579537312977 9.792519214042994
Si 9.011684621686614 4.697342282212742 10.395786810060741
