30
Energy = -143.06476839
Si 8.915558139843528 3.6490716646339507 7.416727263201078
Si 7.444407658748533 8.690664590888922 3.9812760168872603
Si 3.3545641496406255 3.9448600735227384 4.070471001288454
Si 4.2847601872996295 7.586404017934418 8.699738305875353
Si 4.738024135726484 7.354277311965265 3.4218233603597312
Si 5.760989299650203 5.006445377771617 9.016121664221977
Si 7.359063995230029 6.709079478686124 8.935298502347718
Si 6.196139027256876 5.874435319363463 2.257797139860863
Si 2.430096037209251 6.583636175824891 6.137524614134183
Si 9.415770886662216 6.782286676016356 5.892300005619867
Si 10.047916048392128 5.497283288668103 4.0162779182383055
Si 3.2766608544344296 4.737993495257539 7.230528805045795
Si 4.964865553944314 8.481910423560969 5.763141283663125
Si 6.989130091440781 2.367577033383615 4.3085310990929
Si 5.410503702772139 2.850044660711934 6.012853929887735
Si 6.8035550036906605 8.637350893315295 7.18707728166081
Si 2.986436426455491 8.66765448879619 7.054887782798696
Si 3.067398841056391 2.6613906303288375 6.080288972581524
Si 8.734452766828532 8.99345562912672 5.898311711443405
Si 8.413635933551047 4.120951615093887 5.10799172307495
Si 5.284994078597869 9.63624337415337 3.6919336541586683
Si 6.273050230568567 8.749991561121831 9.443779547419219
Si 5.590703026628384 4.004914866927732 3.498213254877048
Si 6.676189781171625 3.1257631955319987 7.998838342986225
Si 2.630792354516218 6.197971158014305 3.826105490705539
Si 8.104193476157585 6.584010113359539 3.282321715654512
Si 9.428487254371552 5.8897817109215636 8.087305305670002
Si 3.5795373993238235 5.476060415963548 9.488901690763528
Si 4.714319496758519 5.765898539704652 5.363132830514123
Si 7.091478994329545 5.340267051706763 6.798174618223144
