38
Energy = -174.25294514 eV
Si 9.324006523653836 17.368908189287325 10.118853738871465
Si 13.444302461575074 10.734865849478844 5.810527353594561
Si 11.170945892019784 10.251459897587171 9.440513306950422
Si 4.970621506447463 11.078241040294785 11.45341044294952
Si 10.503457218508036 9.232974724230171 12.813165712161112
Si 17.14662794558649 12.505295461902312 10.813584042370236
Si 11.426469368592024 12.244710741059107 5.826882304271356
Si 9.38362948786728 11.797355350737597 9.885645777401846
Si 7.4251960123921625 11.973399418848938 8.499873772360218
Si 12.050945316445727 10.739290981340536 11.657196930028748
Si 15.218526336702439 10.68708581449744 13.638145063143613
Si 14.25424309250561 9.593263096536308 11.687154569001594
Si 10.719309893101219 15.726561988859265 10.383701527300335
Si 12.853180094630858 12.391813424238098 9.820611645579953
Si 11.631824582783736 12.681546593201688 12.935829407691022
Si 10.539687704629348 12.476167668058991 15.109675589888573
Si 12.395087440135327 11.412531215353178 7.775178894080551
Si 12.498924503762908 11.600296951347126 3.9256010113330464
Si 8.573961167951005 12.696478193902395 13.654620075291309
Si 10.940880456003034 13.507104562725415 10.72516058190879
Si 6.112448960020624 10.147355391784993 9.473470564155061
Si 5.284444922240793 9.482944790949093 13.283407499322907
Si 14.169749421891508 7.550886945326409 10.462971914238482
Si 12.906610715686897 7.327968995595993 12.512717438957425
Si 11.836762929120535 8.113822182388837 10.363465650034982
Si 15.811587882964307 14.107753460343782 11.919136126081856
Si 12.785118457166767 9.45936359728621 13.704059109188364
Si 6.869984776095403 12.213658412278106 10.762259795826589
Si 7.114198253820042 10.866720617229428 13.934489214138381
Si 14.820478335955439 11.906681153477432 11.114666686989214
Si 10.531575022995705 7.011527038597737 12.003269955991598
Si 13.500936214820744 11.15103980672414 15.210694388568257
Si 17.027269995053864 12.339108913939889 13.224652420522911
Si 8.85402576562426 10.949955443943903 12.060414726829805
Si 9.365667814769111 10.423499016625655 14.633045737112699
Si 14.001728198556147 12.823723493599148 13.292000419184163
Si 6.982331962079216 9.506690484900291 11.601318975345198
Si 15.780148402345635 14.177367491232161 14.25474702657489
