39
Energy = -185.33153429 eV
Si 9.190573631588782 6.798197698952775 1.9301404172394854
Si 5.369819979507182 5.219320429649867 2.2367089566226532
Si 7.476014467807275 8.363114807474258 2.5523853664402747
Si 5.341226293725219 7.637682912038231 1.8387139087024198
Si 7.712300137700087 4.923683325306736 2.4856503176262774
Si 7.7514437883184675 10.275163675859993 3.9646486020373657
Si 3.8297203564821345 8.828858388980626 3.3295406124701694
Si 8.813464017203138 6.475126364766415 4.189792646181504
Si 4.46798772985913 5.061616404815058 4.472529139184376
Si 5.490022395557623 9.923976566832653 4.618713347093586
Si 7.841121941610858 4.13438034478293 4.7242218160528715
Si 5.555376110134338 7.233007047616328 4.178331278419201
Si 7.505030679920743 8.22620879123604 5.237417913031892
Si 2.1553783064145073 5.103934508311311 4.953880535524269
Si 9.641366826307953 3.0143904709175864 6.394055336586365
Si 3.1748500827810853 7.259924433299212 5.030992744028378
Si 6.1144405150294014 4.954813015910907 6.317639708179963
Si 10.29334953811669 5.103005976807848 5.488410240524537
Si 7.925778579993026 1.7937626503673323 5.336031399181834
Si 3.4876654384449237 5.174971176072234 6.941547483952901
Si 5.143088481531109 10.095866652414971 6.926839981803424
Si 4.0028076379818875 7.654660371461408 7.26395625852664
Si 7.662180833643739 8.444030739555878 7.620856471561607
Si 9.977034118046332 5.233497129146329 7.806828807527568
Si 10.813254752176391 3.101439588769761 8.53480218772386
Si 7.009721547982637 2.830019053394345 7.283780118369353
Si 7.19102842263617 10.729630014276836 8.010156501234786
Si 4.762908692314578 3.4329537701769346 7.943882806616225
Si 6.117085847896446 6.6432166649416295 7.969059391065104
Si 8.519684437440617 3.459968915410828 8.969354396712653
Si 3.771609970847869 9.680091602421795 8.799059818206342
Si 8.90600746708841 6.983866616833485 8.936396987988129
Si 5.9925585959567265 9.587273854506732 9.661563814107469
Si 2.3662805839563354 7.737442414737688 9.06191095781872
Si 4.487002812579117 7.142600294804534 10.027470788926827
Si 7.556755297965581 5.189508845059926 10.19187247074027
Si 5.318725228624849 5.002859018054706 9.66232795113491
Si 6.264317479874368 8.03349533717635 11.294195211983881
Si 8.501016974956201 7.012440126860095 11.314333308875272
