32
Energy = -150.04124119 eV
Si 6.890584308533734 4.150990351506429 8.597902491514882
Si 6.177790233627144 6.0043882715660795 10.672768609673492
Si 4.221732500225216 4.126591998176674 1.8544112832217072
Si 3.4982393199572335 7.016649979908808 4.895108021509808
Si 8.91946450470169 8.70522338983649 6.155335991042073
Si 4.867075284461642 9.600881681760493 7.920023477449699
Si 6.1434959368885735 2.9141303901392197 2.68645793494924
Si 8.046307055787425 3.91667595631484 1.5792258938569304
Si 7.4204320856179695 9.769675252268081 4.6959114290376105
Si 3.934127635924677 6.6515902750244065 9.412781111255143
Si 8.133071645835933 3.8243144487586394 6.148348567408341
Si 3.9055022391459273 3.308182189229959 5.932881879053654
Si 7.808311959173469 6.8351125663365835 8.546484747091727
Si 6.203997609361907 5.423736434210584 1.9775961382069314
Si 6.836594626303459 8.24844213245867 2.792698905300808
Si 7.3267797139245 9.214035238185275 8.746341643721928
Si 4.0630262825615615 4.8269768184090385 4.117069036370704
Si 8.057102939473852 4.643098501696834 3.8029476354898364
Si 4.150481093775987 7.364007801831835 7.153283632071828
Si 6.094731467143265 3.356487525773742 5.068568148997341
Si 5.536666087980625 8.243369070774788 10.179640016720713
Si 8.567173653107863 7.017512280999161 4.348506972831892
Si 4.963748174684315 8.747024048384068 4.186036209873145
Si 4.7356978828239775 4.923870845633552 7.477590549810251
Si 9.202870579199034 6.148918789095727 6.58160053101002
Si 6.431063511149846 8.424147274791522 6.560691343817882
Si 6.074776725131445 6.378275938813284 4.262314174862332
Si 6.714566349279522 5.940460993031838 6.492835470576078
Si 8.43067910861864 5.188472984713364 10.17303593456243
Si 4.3473210944916785 4.305439185829841 9.783774541187675
Si 6.4080814588054515 3.6684945309092387 10.987071353029556
Si 5.337180425171601 10.561497008531914 5.659429636807837
