39
Energy = -184.3857776 eV
Si 9.38903801798692 3.3224150077380945 8.432396079644182
Si 7.701370478183875 2.4840212783093754 7.053302311269919
Si 8.113263899892459 4.413847065664418 10.108510010474685
Si 5.739866342029668 4.297397871434436 10.386239176358885
Si 7.763084571067386 1.8071859904801064 4.805506243975926
Si 9.366907732509487 6.307060008573699 10.659948264836622
Si 10.400496153410291 5.158339159240948 7.334696665362746
Si 10.801517155006023 6.9788568462405225 8.852867947736797
Si 5.858954713063807 3.3825311703426126 8.154875836504003
Si 7.739240111524073 4.992927097953832 7.518726407080674
Si 10.930238314315728 5.202257216190958 5.027573234096893
Si 9.173274714646467 3.7307606883730418 4.2891310351465375
Si 6.5591135929676545 6.2881097605682665 9.211987819059635
Si 8.036298564756787 10.00816564040434 9.941544411594121
Si 5.962062210646997 3.3764118585730807 4.312982448718909
Si 4.627431337331069 3.945926326399389 6.253482499271905
Si 8.666363530402238 5.782644106239628 5.482998457144848
Si 8.591358363679445 7.7875057803724195 8.669285907138834
Si 7.525272742143332 7.819831901864975 10.875048982958305
Si 4.043706051423975 9.47467509176806 4.218615907631833
Si 3.3531401959497416 7.236254903390292 4.006031416729593
Si 3.5520125306165213 9.499199562509594 6.539595269181975
Si 2.56624645604982 7.656170185480237 7.8199996388582
Si 4.019708489160712 6.135648156316061 2.0523426483815936
Si 5.198821463801779 10.947836574557563 7.356162333070999
Si 6.44226527566937 9.785304132528038 4.206537800627383
Si 7.161163950265428 11.290102699751943 5.994087918930648
Si 1.6543912102440548 6.591066358578322 5.6027008893126045
Si 5.369463850897357 7.885213055956163 5.538787157458562
Si 7.764321308985506 8.735821186343879 2.477427405150266
Si 6.3395742449223755 6.780710141714343 2.3074954707187243
Si 3.8970211476474503 6.144043485927727 6.348233305441636
Si 5.657635711727417 9.899344495271771 9.43630036504189
Si 3.952898511082523 4.367358719836814 3.5825414532967503
Si 2.391048815978264 4.161550847690339 5.387071694657462
Si 7.359477752898365 7.397481078733757 4.405450839635963
Si 7.295017917100914 9.495969076572122 7.610777764552693
Si 5.12346240269577 8.024481708855397 7.9664159374990815
Si 7.413470167321505 4.9055737632564895 3.272321045451252
