39
Energy = -184.70506737 eV
Si 7.515328258328982 6.044575373097676 2.3300053431968806
Si 5.953760001180999 5.070580651247671 3.8600072561427563
Si 4.799487196643096 8.629100545553635 3.0861337486556297
Si 7.124346071357339 8.052961353616615 3.510521344649537
Si 9.409911164856165 5.241880596557314 3.579937892213997
Si 4.046043049968522 6.490815178213396 4.177525651954415
Si 10.373519869091563 3.1473329082015664 2.9892156349632732
Si 6.199192802259437 2.7223256016711934 4.440905681244774
Si 8.537904744293288 9.761793552150017 4.635549173450937
Si 1.8596902943455575 6.00555758094437 5.163384705997704
Si 4.4784636682321795 10.290395453604244 4.907531129459743
Si 11.022828990983317 6.115500499861134 5.351434933443946
Si 8.580039198998103 2.936297820794296 4.56582351260168
Si 5.332137253386533 8.07094975038266 5.469769676748932
Si 5.650222297131708 5.430852065632829 6.2920682678635185
Si 10.975267226719268 3.726539734670677 5.229814090121645
Si 7.596296505226561 7.612288585200117 5.8715598144791805
Si 8.589955796755378 5.455550542319609 5.828708260812622
Si 6.629905768410854 10.593148826606923 5.801981850418718
Si 6.494483872188856 3.2171420721053683 6.760258851350435
Si 9.772264861890077 2.205449163248166 6.54705008010964
Si 8.62962426208829 9.499304087886875 7.072172461910579
Si 3.3138200878705053 5.137478651838938 6.79248636808114
Si 5.200503903336642 3.689259610452206 8.577901660592088
Si 3.625510047062504 9.369438753087438 6.982192080997305
Si 7.193541495386466 11.134015186128615 8.006568035270092
Si 8.570169468428253 3.9472149366645617 7.758114406558839
Si 4.866909398169478 7.171182228512864 7.830390777242644
Si 2.3233839955976965 7.434321206448446 7.101505306701815
Si 10.239989868655709 5.791264640359437 7.615907299012049
Si 8.683224107999411 7.468437816648279 8.226434890780958
Si 2.964677255893864 4.179762975377451 9.009631026416754
Si 7.008423501556884 4.89190874330301 9.420013709033226
Si 5.794459079826504 9.323367647341831 8.810635703319399
Si 3.58485920789739 10.146961287918083 9.239045898685994
Si 4.276150621544359 5.9898777091484385 9.965816601596028
Si 7.075767279997693 7.658106261209995 9.886587744550134
Si 2.8863659138858853 7.835523178477664 9.403948062641916
Si 6.321571612556363 6.011537223518074 11.401461066730286
