30
Energy = -139.36052136 eV
Si 5.717498103234001 4.845150270900704 3.7543642143192573
Si 7.50783225969153 7.822642113579123 2.074195779516584
Si 7.402291444700179 9.577990063594328 3.685650719229109
Si 4.6544975632415735 6.883535881530479 4.334311734163524
Si 5.285210109738747 8.569440762170817 2.6777188746893805
Si 4.008219816261617 3.510074355959645 2.730310802535472
Si 7.935620022402609 5.495929835564231 3.1531525892558525
Si 5.221888141449316 2.5167548951675185 4.540081875667824
Si 7.66267129376582 7.419995051510163 4.732465866044547
Si 2.386268665903327 6.48470579014807 5.131749523720844
Si 4.162606224408781 5.4236603422193665 6.536309526387185
Si 5.278505191907876 10.355707740475879 4.346884007262695
Si 2.9269126198905195 4.200826309021149 4.74592653110334
Si 8.759109484838254 3.60506763128996 6.739289355335166
Si 9.12281901630331 5.471475435693901 5.234890128478142
Si 7.519713167716797 3.1338702376947376 4.587948375295414
Si 3.7861966026025273 3.0119004764921944 6.64527474107951
Si 5.734327149708137 8.444988102187155 5.819186261698341
Si 9.619218758696563 7.567413886781881 6.2732089073628785
Si 4.553542249617666 7.446185134451488 7.786834117724112
Si 7.4414642303417065 7.566285979205917 7.421002799410006
Si 2.2604048241517125 6.640236945016972 7.586156220622527
Si 6.4075227698854365 2.923670441090961 6.869491574367383
Si 6.758188037567176 5.231553031511057 7.44205557616733
Si 9.188310107195408 5.805680661689927 8.134967118949717
Si 2.967546794743222 4.395605282514652 8.542949648114908
Si 5.6856519027181305 7.565957094614149 9.900044181304798
Si 5.062453020629117 5.329040654250592 9.347532486214279
Si 8.081809890547278 7.794448627108753 9.749577012203986
Si 7.372517681429557 5.431024111852264 9.947286597063485
