30
Energy = -139.42567124 eV
Si 4.712527978369678 6.744640103466373 9.67757834894406
Si 6.712663677178317 6.083636102619078 0.9595792457179241
Si 7.415431176823096 8.097008310982122 2.158915522980159
Si 5.066885840451644 8.058812646815053 1.6490126387271447
Si 4.425272538418142 5.53207837279536 1.7552014693728348
Si 4.053321357506805 4.159242054627899 3.8047585583989423
Si 6.3566169004579445 6.121846677198245 3.4338242694326535
Si 2.6367538082246025 5.579269429817503 5.147406250397693
Si 7.416587600526476 8.50348693473202 4.5037694647554645
Si 5.490902576520784 8.053317523977348 5.790353205160737
Si 4.192831022561942 7.048727051574058 3.843125049368405
Si 6.4411292129437046 3.8977410952465643 4.291045281839584
Si 6.942179768331645 1.6591818764985997 3.792913333432871
Si 4.709907686549483 1.8570691339886884 4.683762969694719
Si 3.7771224987469534 3.5503672832411337 6.319702158747164
Si 4.521813406477344 6.044271722661681 6.629269631510368
Si 4.660793376765477 8.451211118893763 8.128694243905912
Si 7.817324339645128 7.167183786483204 6.493769965410463
Si 6.223479395777855 4.3718851893738435 6.853161511217995
Si 4.638331759901892 1.1649844472809294 6.998000431831719
Si 4.456461333619983 1.3461502023435137 9.351377249279313
Si 7.054801468405714 9.339956245218646 7.416417401813212
Si 9.03567012812092 9.266631612279868 6.137451699393461
Si 6.89520397826741 2.1260573901149944 6.1561882659595
Si 4.351546844566658 6.173612888081705 9.016803147590341
Si 2.6442685511737283 2.362963308967188 7.972367614095411
Si 6.616788635353026 7.137552810982423 9.010195984375024
Si 8.031582142004709 5.439765373983505 8.030641222517058
Si 4.71836961582213 3.6332222144410253 8.639198734184193
Si 6.347351123912024 9.392046834738812 9.67757834894406
