32
Energy = -150.69890226 eV
Si 6.876633068737403 9.582336842127447 8.24640980416537
Si 3.044438125854276 2.1278759045211393 3.5431032753559157
Si 2.825609496812962 4.103734521633848 7.022539253604511
Si 7.257356355404337 4.65063174437386 3.546584708196216
Si 4.349291569993403 4.566653595428224 1.3312905549213598
Si 3.596235982990003 6.028157341022931 8.159180326850896
Si 6.356699029513689 1.5396540446294966 5.362289400260637
Si 3.3673037933997945 8.980731284263719 5.435131004548969
Si 7.078305468476374 8.172179165012796 4.572737801771539
Si 7.1514926384442115 2.2532063210306132 3.1345339965606587
Si 8.701306476194096 4.640491511218269 5.513088314505159
Si 2.8522194287172384 4.399329675806578 4.697032074750289
Si 4.940225432336278 2.390275538087442 2.1149854427860486
Si 8.310723811899303 6.172165003882445 7.332156279394621
Si 5.1531599428535015 4.040168891315917 7.890939677885185
Si 8.295859352768352 8.43914634671846 6.661099066089845
Si 6.5714696639808725 6.006486358397157 5.523873024450182
Si 4.496460159651779 6.969544828188341 6.172532705657545
Si 5.2196884452602745 3.560392816738806 4.233748517175696
Si 5.863796311809534 6.100724700872089 2.2549818456729844
Si 2.0431386225939963 5.109255201802628 1.2874747911528728
Si 1.2525725130793066 3.5715564374471427 3.142395287448823
Si 6.207173286147751 7.329830744737433 8.020024849444749
Si 5.6293675132380585 9.203043260478065 6.226150029024105
Si 4.0655926186886475 1.842075756013685 5.697964335999453
Si 7.110964555627271 3.359119054396226 6.741077453814174
Si 3.351817635935682 6.0569407771780766 3.0306589667559654
Si 5.463701491440577 5.59094381142198 9.713743843592566
Si 3.582510997189733 2.1068849757759662 8.007621009781378
Si 6.4344616842681965 8.438797565289033 2.2748121198602984
Si 7.584178421947969 4.361662541475961 8.927725013146313
Si 4.45270348055399 8.108308228855533 3.5273307854832225
