36
Energy = -170.32052868 eV
Si 3.754786058500597 9.003519939156565 2.268206111599824
Si 5.614296951893298 7.422394251544923 1.5766567660934332
Si 5.655811330344626 5.179265069315973 2.7190763921517536
Si 4.01406702724951 7.119055119389582 3.49996809807663
Si 6.8581813278303905 8.498243676615386 3.2409664605207644
Si 8.21416916990539 2.6917816438209297 5.054291569875699
Si 6.310408908026326 10.533059307042766 4.46401972513698
Si 7.980422146483161 9.474533110157786 5.9215185868838365
Si 3.7249856092640274 4.934278741977302 4.302236483359502
Si 7.8115154541293 4.663936412368277 3.7017071764998226
Si 8.580812765750474 6.022639524330542 5.627121540772052
Si 10.636766544681837 2.4351210086912785 5.1529792396882526
Si 7.480153802724196 2.4230058194295405 7.2585979604988635
Si 11.039621318366272 6.973512996192944 4.763457155493186
Si 6.026497490587188 5.440075942508969 5.384213177965458
Si 8.944181844556702 7.996582658092369 4.315064008902422
Si 4.208115128459463 9.29902657049137 4.736128100173494
Si 6.098407894377496 7.831809380631471 5.5191750280963845
Si 8.964366404825583 9.504007458380123 8.059366104192558
Si 9.58497621925117 3.478333361567084 6.991459114563512
Si 10.141559301613306 4.64449026019435 4.365305121442416
Si 3.8334353421772693 5.8845044497222645 6.5425019534744004
Si 10.076352802382136 7.7187949813397205 6.883491826830038
Si 3.990719192515967 8.25719026259668 6.795354445457749
Si 5.889310898785617 4.270182856032445 7.471513694857493
Si 6.83786822322987 8.312365751247668 7.934988714136186
Si 9.370666287019523 5.672520984807791 7.886077906664886
Si 3.5373260474299704 3.9924256515547873 7.953928750912823
Si 7.148388304962248 6.004449469836992 8.522746599169691
Si 4.860178795966004 9.612613495419541 8.563283037171175
Si 3.912697913928521 5.456981599062308 9.781611674611456
Si 4.41016970319461 7.80478830034507 10.022349945434346
Si 6.04914579730504 6.156987330692751 10.588096728062798
Si 2.8275713285309143 6.764125989596179 11.611122200628209
Si 4.527961610534823 5.021217089327013 12.129048439702327
Si 5.0749707867838225 7.493045270085038 12.38323589446722
