35
Energy = -163.62125134 eV
Si 4.8488660198591065 2.6305472989749363 3.0111057598927298
Si 6.225098960077136 4.601967728566853 3.461719766215968
Si 9.922751281689465 6.2931449297937165 8.650841021002424
Si 6.20255191496542 5.435558367032185 7.744437027959583
Si 8.89782190661918 7.834777136030257 7.169718738643119
Si 9.23036275576676 8.91072846394546 3.6599123003631866
Si 4.775646985172798 3.3545887647350607 5.248644145758296
Si 8.85625183999475 8.590142490633367 9.449738119066426
Si 7.331216379303286 10.022264336674585 4.919752547055843
Si 1.8809556584506506 8.727729406826656 6.477866599999168
Si 5.396105731787425 8.233032998937576 9.017078656196642
Si 8.913389882454307 6.381157618305279 4.578296059763314
Si 5.986218057436919 3.0511054429972146 7.2128785099556225
Si 3.7785900381077564 9.5063513241398 7.828325283969326
Si 8.321992465043174 2.6410675590729054 6.628108631906047
Si 10.38836045541522 7.239956475605887 10.78488844994852
Si 3.157989364014445 5.11354535304616 5.257580744007651
Si 9.526764290504603 9.845237890404922 5.972092034765437
Si 7.155942236348664 4.725205073529946 9.94127240488758
Si 8.611585932730295 4.372680469183925 8.243082273927044
Si 5.923503913265648 9.114346636467092 6.78556513141148
Si 6.89485869502927 8.801200246695878 10.784572083575988
Si 7.969666645815105 6.01150363937651 2.416858598909741
Si 10.715486215985283 7.740642597870884 5.350932056456409
Si 4.222104967784937 6.167484716146163 8.850388494793112
Si 4.966969749973598 3.8577192181508346 9.346881574507119
Si 6.936004361085895 7.778614550883339 3.722907189322548
Si 8.054122857336763 6.718362334927446 10.907660470159387
Si 2.891402086214477 6.6651299567254325 6.968600073251529
Si 4.029241808088786 8.474506788921458 5.46458963263702
Si 6.910156109632407 7.044890660487892 6.06813240747243
Si 4.693763743032371 6.358065321853505 3.9898916265082387
Si 7.438525836916013 4.533525057626258 5.527044483981106
Si 2.7200959068008514 3.262866795433995 3.8595007071587526
Si 4.658061135670806 8.534240343014538 3.14855266757592
