34
Energy = -162.01557321 eV
Si 3.989668880193335 8.09315532552534 7.832656363897544
Si 9.686757701421511 2.903813195056525 5.654515364755785
Si 7.746056393406874 3.3465660158337824 4.220025324232923
Si 8.659747822223112 5.4392527435035944 8.888605233927718
Si 8.758587699396223 8.437974802017076 6.500403595511128
Si 8.33693376029299 3.466289411011901 7.568009317221189
Si 10.187822272177858 6.76937209192913 7.564370283576846
Si 6.7881204672661495 9.288255681995938 7.411798082859513
Si 4.092441495926798 3.9784233856953146 3.1519225870699716
Si 6.760479969645779 9.056624722223559 4.383118745111462
Si 3.0491550046687244 8.442030416472747 4.309028193630169
Si 6.543124968683334 4.3381723197334985 6.057739315015738
Si 6.106994992422987 2.8603803845863944 7.911322552049911
Si 8.881315592126736 6.580688119480107 4.138307625773413
Si 4.365637120415295 4.940132702323987 5.4388573660152595
Si 5.575818827135974 5.757949018400282 3.071696096492251
Si 7.75973038926675 5.150736383936493 2.676525081652874
Si 5.094070954881182 4.493187950291668 9.302909640704351
Si 4.701952083226392 1.5149949900918949 6.4182458130917395
Si 1.9708052541691876 6.809562323107038 7.793797317700355
Si 2.0219013629296265 4.306214206387979 4.432200402778358
Si 3.2944021207706937 4.875168904353155 7.885098187298521
Si 2.4115222777781202 6.479036149650072 5.490185460384633
Si 7.87011876694949 6.2129364937061125 6.624444354615111
Si 6.46791521659331 6.305008758448009 8.864198174018902
Si 3.8081175162551175 9.708154832862528 6.145343967522273
Si 5.053887890229871 8.044727273169928 3.0901164166279194
Si 9.123207847692797 8.928239333732105 4.181033297915965
Si 5.757481108337347 8.499510341428005 9.36312714823845
Si 2.942863012898338 3.148111198142597 6.418235742471658
Si 10.047144588974266 5.291332102442246 5.644218365356438
Si 4.962422091439364 7.458149384001531 5.542111135327136
Si 5.896479702914282 10.727187797229588 5.804471810518208
Si 5.540176125949264 2.6015225198883614 4.474222915295367
