31
Energy = -145.87708369 eV
Si 6.245144221250165 4.479790009536512 2.4272153048425165
Si 7.22465777226033 6.661215881129502 2.7289835970582357
Si 9.475504508394362 6.988710161824137 3.452810583079868
Si 5.9092043524330045 8.190392695902348 3.898005362182569
Si 4.514000551601238 5.273322867094008 3.8871041387596788
Si 7.244226970483802 4.376889829421363 4.57365296820886
Si 9.450755322386732 5.0274598414861495 4.8419416602899314
Si 3.612237120198754 7.492027770816109 3.935134033782036
Si 7.306600740400267 9.471905553286488 5.2935765139932585
Si 9.579200539904424 8.58032250013078 5.314272987645889
Si 7.590595935216378 6.833519844593556 5.2257614099135035
Si 4.0059959187758745 4.073299566453756 5.867715490159928
Si 6.245392648138534 3.499246574151706 6.503734084400237
Si 2.473599295045149 7.332274274876204 6.132009213724862
Si 4.8655209092234815 6.484840263860777 6.00406453546947
Si 10.561445200308107 4.718725623596712 6.8347966746669435
Si 6.0366958296843825 8.85022493620701 7.262473266115764
Si 6.585485937945069 11.189007862372588 6.8234896466976735
Si 3.722359461672618 8.462030887375716 7.773002557905381
Si 4.52463518695077 10.70007008688729 7.960738611059559
Si 9.34957279656167 6.784726073228156 6.978039572613595
Si 5.739645400250878 5.6144338264192974 8.099933740326644
Si 7.143129205654798 1.7222797714159346 7.794515693188186
Si 3.0893280521650603 5.473548464854987 7.560705327328006
Si 4.103005352295635 6.906756847497526 9.61043799086932
Si 8.782397009914817 3.4911069510993245 7.964803858169704
Si 6.567592413578613 3.623088689545273 9.166115605575948
Si 6.588836069949558 10.372398254614804 9.148491272379271
Si 8.001700882112429 6.414115272624659 8.866347210237159
Si 6.382146291055464 7.948913571623835 9.483510928694628
Si 8.5793881041898 4.4633552460753325 10.086616160663697
