34
Energy = -160.37072461 eV
Si 6.051095344842615 6.146864225384331 2.0578903296451436
Si 6.970700918042617 8.059038991237257 3.207470988967682
Si 4.434041418231894 6.784671437134005 3.670866700749857
Si 9.198456896059806 8.691568154348865 3.7270459099122992
Si 4.9699794360451595 9.064578034134321 4.003095318279021
Si 6.711477364723262 5.1551613024678105 4.123900532196561
Si 10.31237170938892 6.54303099930746 4.631611654826367
Si 2.911355382031862 5.232053250038921 4.74502126380151
Si 7.972862396721141 7.002144344988591 5.200848961413418
Si 8.934536164976333 4.509795866007865 4.692983009574658
Si 4.940763951039077 3.7662140008432705 5.064747077035968
Si 5.011164330630521 6.142111940287406 5.989622292832535
Si 6.248197401380142 8.518176381362249 6.13877352829886
Si 2.920096061527257 2.7940852676329397 4.548853696121442
Si 8.644920143772348 9.547931864683738 5.95494067826203
Si 4.432850598370772 10.190569434597192 6.05361446911136
Si 2.648554200265914 6.3752937271565004 6.903729954508891
Si 8.356585404639398 3.9675715827922553 7.015400105847169
Si 4.057798069576948 2.4340100845940276 6.899354420255213
Si 4.216544608404195 8.152197222729914 7.451137940125641
Si 8.33319030868841 1.7990833457126731 7.847978193207418
Si 9.788482186110945 7.3374247778879 6.868055884443482
Si 6.710966243712067 10.876573228651296 6.814598798923947
Si 6.264950024297653 2.8176177626740833 8.097078831653592
Si 6.442356139026065 5.349131171907514 7.698099671734727
Si 3.853137160628746 4.575083590505877 7.8401752366611825
Si 8.746275910891626 5.962737769688998 8.485576979374626
Si 10.360759381630874 9.482715644483042 7.640099739643897
Si 4.8021551969643825 8.33487450229314 9.754187684995998
Si 6.601869224598378 9.295225381344896 8.578367795902423
Si 5.326589810578097 4.356137698627597 9.673939483117305
Si 8.688603712597942 8.501815773219851 9.085431933937349
Si 6.441473264877441 6.527653159073232 9.81667615709537
Si 8.694839634727671 6.706858082200834 10.718824777543215
