33
Energy = -155.76087473 eV
Si 5.181283148932211 4.851192759202903 0.4827169133264146
Si 5.130315200365327 3.50725941691659 2.3976968492828394
Si 7.162652923710327 4.981982040677142 1.8755773475579176
Si 5.051101012148877 6.378275787011251 2.384727193016751
Si 7.305706976682021 2.6493775484830686 3.0427248351035954
Si 9.226881440734617 3.9345306273715885 2.3135324299501145
Si 3.8412316349522255 3.127622001458301 4.406213480060831
Si 6.691368150966008 6.132587810521855 4.130053830415655
Si 6.055872386821985 3.6152874971180697 4.991281711120046
Si 8.380184124866158 4.5276073246014965 4.50644406233181
Si 9.85847320816662 7.055891888771945 6.29659840132611
Si 4.29060824392823 5.463302376543566 4.5717815221649625
Si 4.730060773647579 10.318259377336716 5.636763154809602
Si 7.777071544841348 7.8987988183129385 5.206413556640997
Si 8.248482823786107 10.046170085659401 8.171911520227875
Si 6.513999351308787 10.935324535371876 9.61781041372739
Si 9.518571658372784 4.720206612880662 6.675032381604081
Si 7.148087120050608 10.043557571167815 5.939373151951879
Si 5.491068041588908 8.31406004085168 6.649595478140991
Si 6.089240186165066 4.570857716873791 7.194597703442187
Si 4.774958219753482 10.407814690777688 7.9938291776937325
Si 4.3329816374111045 6.284429423946342 6.829220189808843
Si 8.96281919807588 7.752307377017 8.479221684677642
Si 7.678802321992812 6.303506270166939 7.0213905073990635
Si 6.4759964946260355 8.518036789658705 8.845973804688866
Si 8.190656226289402 4.993715890609207 9.041953069712582
Si 6.313650023436113 3.5297121551262647 9.307339560561017
Si 4.000747191499218 8.655841243598674 9.432367166861507
Si 3.200221786249852 6.482572562455766 8.9218284321114
Si 9.161405935166007 6.549846411573259 10.58335429946612
Si 5.336908217457638 5.661915643823648 9.65285139861194
Si 6.804524804926316 7.106223991586393 10.725625703540693
Si 5.564461649553475 9.172319371001757 11.164592727138176
