39
Energy = -184.45598837 eV
Si 7.882460604059651 7.07927882721338 2.1937276880668435
Si 3.955420571527985 7.35855419370873 2.8976802753433235
Si 6.99616618714607 5.114310428390353 3.3920604781585126
Si 4.871110976956086 4.040999654557036 3.8800079607473994
Si 3.5199440571058647 5.852907857052976 4.6848145527022265
Si 8.707328940407514 3.474372334510646 3.8490428824308958
Si 6.154344454372498 8.124848130252545 3.478387297926701
Si 9.706626761118802 7.102112710074159 3.8201316868471404
Si 10.668026025033203 4.924208561744474 4.184614532512502
Si 3.5445833277375476 9.367868385497829 4.045127099760813
Si 6.008955144440038 10.438303751734946 4.518748930274874
Si 10.725983309797435 8.749101112626283 5.194719123667335
Si 5.780901853611186 6.26759708800904 5.186474686704794
Si 2.6654068342500854 5.478820968057957 6.874034914369281
Si 8.490260493389481 5.596115598458057 5.318192780236531
Si 3.915809398555584 11.57326612333491 4.7440408648729555
Si 8.700693345453347 8.032783047146355 6.097272382882337
Si 4.956351193415967 3.2396707236196223 6.090868140633148
Si 8.591612903478515 3.3266053992920894 6.209505346192663
Si 10.943275709334877 7.235060194925934 7.136622568556111
Si 6.395943045895484 8.549564721959722 5.9850177513026415
Si 10.361914955702414 4.8582038810405015 6.66728458464002
Si 4.130322998685549 9.666080965269858 6.240272921881379
Si 6.820108186981633 2.3730619496104763 7.357199053278668
Si 6.485776495600568 4.826967073649474 7.247743166345947
Si 4.466722363804982 6.515215745889199 8.070400404776224
Si 2.893285330035587 3.1215493746174032 7.297714702070781
Si 8.845082429335456 7.903596048333343 8.513579241727115
Si 6.255009272361338 8.13275990326874 8.339636781402769
Si 4.370511886649701 4.126553031559831 8.856846530159723
Si 9.984666694557438 5.62662114452948 9.042611620221306
Si 11.019877999540114 7.791075055110831 9.442147849188697
Si 5.470671640907599 9.45604798322216 10.102742663055214
Si 3.7929377611413093 8.874619513254194 8.458486315158789
Si 6.574191393528256 3.502393004815471 9.470845222580548
Si 7.5211795838560835 5.807465625467648 9.211032876224833
Si 2.0742555710398065 7.117784164706466 8.67626581320346
Si 3.5618061480680283 5.878074652619594 10.254373804395927
Si 5.6907175199130435 6.99582443966583 10.469967874297284
