34
Energy = -160.52033975 eV
Si 7.791684195822543 4.768195781556949 1.3509733729699176
Si 6.128790827628198 3.9651433927171222 2.849087611285954
Si 6.703995411044026 6.429046719055309 2.7716911427321036
Si 2.813379228613438 7.262625238287095 3.287295157445325
Si 5.019311545374953 8.101080825903642 2.8487030580590766
Si 4.4616107542701915 5.459894151917831 3.616153491747987
Si 8.594427909776543 4.118611798257135 3.599980107495532
Si 6.050817100010939 9.242855168435115 4.610719249645156
Si 6.626599222849833 2.947170356321871 5.050468533527302
Si 8.53160751135625 6.405798729597828 4.21417748823165
Si 8.862957934579702 2.0942024723408346 4.792109445656265
Si 4.108276067304632 7.612083597817992 5.282829615914809
Si 8.368951159410196 9.495613850404212 5.083163378090641
Si 5.634841468808438 11.135698417261624 6.042179019126794
Si 8.672775801115666 3.684856995614793 6.595960561073787
Si 10.198147822813267 7.933674867146835 4.959564051779621
Si 4.842929014628068 5.432201742223416 5.902601207599827
Si 8.564562901197455 7.454621244512579 6.642236232121979
Si 8.097775609540236 11.518717045379004 6.387770070586462
Si 4.722807322983189 9.143969703161126 6.978409355815693
Si 7.1919248346697175 5.436613411056952 6.122266283172307
Si 3.5234588613436375 4.37447391382884 7.575495353685621
Si 7.220126427229363 9.544560181201096 7.327990517608883
Si 6.807869881254782 6.263255388728408 8.476294916922084
Si 7.344548068614411 3.876451600274505 8.538908920488833
Si 9.086907193179185 7.112421119403671 9.045982656687528
Si 4.976541279032516 7.7292930891866805 8.985035611655181
Si 3.683251128012547 5.760993715801249 9.488324384579569
Si 5.031585098546 3.6517924919100864 9.197509894553209
Si 8.128561816810503 5.287296520362224 10.323785234882582
Si 7.340600940798789 8.644207527318882 9.535898385070599
Si 5.972550609575623 6.125152888373173 11.011325418005422
Si 4.271913999284322 4.442016166359864 11.356454192897255
Si 5.623911052519621 8.545409888282146 11.148656078884652
