35
Energy = -166.48844692 eV
Si 4.7813494447775025 8.613603957840809 2.865267394643876
Si 5.551880675420782 6.410979086989973 2.836053907063408
Si 7.857288230060732 6.230633839295046 3.1961283262303093
Si 4.547322477232747 4.390359810764835 3.3345905241499896
Si 8.873816892412874 8.30004981576196 3.505417585232504
Si 8.333963277544317 4.096270354657607 3.958685064044767
Si 6.656423136292598 8.423592279815875 4.335281739320985
Si 6.261064783303215 2.863031844304461 4.230930154244413
Si 3.132079064134731 7.98837009852197 4.504320023263856
Si 6.319637118201446 5.2211559109715555 5.051833521623253
Si 3.033940274123514 5.389709299443345 4.87574033148341
Si 1.0973663257968187 6.78034498827231 4.827732578781694
Si 9.824522312908721 7.400044754151292 5.508799292691653
Si 9.395696878406628 4.770074984071773 5.994520116972056
Si 6.041281279980906 8.993025466324871 6.588248120205239
Si 3.6721841790307423 9.166217985898125 6.421438713559403
Si 11.53979029619955 5.730897617485882 5.787082303371051
Si 8.317225845133468 3.4159301987257433 7.573983166814985
Si 3.958083616306844 5.328748538413146 7.038526113178623
Si 2.367123686163891 7.077822642956127 6.92731331455343
Si 10.286694466667283 8.79140492836257 7.396096079223961
Si 10.924100335500649 6.592798719505589 7.937857233500925
Si 5.914351653056306 6.548496038274115 7.59162850623253
Si 6.208570261823876 3.280477186498693 6.626807188698535
Si 8.321152032447502 6.855690985048732 7.386441427477739
Si 2.6352775405464146 8.88891569999817 8.47988465042577
Si 6.333385270207438 10.591342465448728 8.311412549172429
Si 8.21373928153069 9.187219536570142 8.494970423014522
Si 8.292613283090937 3.6085455392769044 9.934056935464884
Si 4.99066856739858 8.579278521536935 8.915835063028
Si 9.309955578314437 5.654740286028682 9.33311239029479
Si 6.266409973004509 4.67921110757586 9.199439383464616
Si 4.492155629246771 3.364440099409073 8.249350441907566
Si 7.989901312441818 7.4613996199363815 9.980053204001988
Si 5.758985021290507 6.825175791862301 10.301162232662264
