32
Energy = -146.5840007 eV
Si 13.429621491314212 6.262201032439019 8.493271915211624
Si 11.362459216106666 7.015486935764336 8.988662686969008
Si 11.643251942492165 5.035532200462688 7.6955223573432345
Si 11.306763356409142 3.8150608332949507 5.660400175708481
Si 9.078018125663839 7.570289518231833 9.131840507974758
Si 10.014909498677579 5.7555037681865 5.3201571984184906
Si 8.347282071618224 9.84974828367239 9.348461946528648
Si 9.1271754117108 7.460159034142852 6.66850814879501
Si 9.228904182589181 5.267370640131491 7.949874931285946
Si 8.762209061704745 3.705590238142486 6.170272171120223
Si 9.948152414946856 1.768636726991492 5.47836252486019
Si 7.98085134518893 5.119162284938054 4.2902448275585465
Si 6.681692963857695 10.0046235791372 7.630559480316051
Si 6.591082608523603 11.724288879555974 5.893294583822065
Si 7.046545233964716 6.807597619912682 5.703187366049081
Si 8.469373394401904 5.480093295765829 10.199412149170728
Si 8.59586988158049 2.707867795399639 3.761637478687324
Si 8.069543882908045 4.190047986545055 2.155747065329378
Si 3.605005562354143 8.883307665645766 7.1374510741956225
Si 6.300010491009495 9.056328877525438 10.138104174452495
Si 6.121600711898788 5.802329095277135 9.87300880872324
Si 5.672462002266141 6.356798098858684 7.534937414513044
Si 5.720295321094686 8.713871651155335 5.922444563135243
Si 4.5815318761387225 11.632026300776445 7.160419590027709
Si 4.553033326700497 10.219782259448095 9.070348796169224
Si 5.1010973571279115 7.416172078068747 11.410436761961932
Si 4.503424638209616 4.54276982919485 8.583493003379692
Si 2.5436071681276142 10.834137800991622 6.145427035341317
Si 4.717167450974045 10.63919568907691 4.800361864094557
Si 3.2315849248612065 6.426795147134053 7.430528886746227
Si 4.351173877769332 7.621579030769513 9.200673769045364
Si 2.6470201245478506 10.779059589384202 3.8204685583010662
