32
Energy = -149.98252635 eV
Si 5.226612935045289 3.414629305816498 6.254495026576055
Si 3.2744716705998886 1.7838435094607055 6.353711065084297
Si 3.6409653472211354 4.2777711085997785 2.1715505072089996
Si 4.857355374501284 1.8394915363113442 4.41494740519737
Si 4.122503274427278 8.495904224767894 5.5816903197477075
Si 1.3907861325455606 3.198027395233039 5.552762481095237
Si 2.4428656057448457 5.351811802622173 5.058096706885503
Si 7.896195701039454 7.7797044058742575 3.5337378913638116
Si 6.962898264537854 2.033318814641479 3.2156061498942234
Si 2.835068610787073 5.986117770113039 0.7518825112749836
Si 8.828252769492298 3.5027464805221618 6.999906872850689
Si 7.397233408977069 3.4968731200967054 5.0883815123538305
Si 8.11964914991824 7.556833206714413 6.865183704794042
Si 5.904240458045562 4.113097894163251 2.6291594322013547
Si 8.020206277874303 3.3325268324883037 9.275588457794392
Si 2.799841975345807 2.6539195767751056 3.675071505647014
Si 6.2263070694291756 5.993840561874277 6.6265944858355175
Si 2.35212670069959 7.261954541692583 6.507201890901327
Si 3.113535899416723 3.933588972329204 7.393801675868328
Si 8.203575879490177 5.528008981697544 8.28577227200565
Si 5.994779323763907 4.205858148337328 8.337574213830596
Si 5.802543575846138 8.489870234815042 7.421958250000459
Si 3.555118660887478 8.680085328026971 3.2339594705200154
Si 4.6516762936549 7.371789697095155 1.526916841365016
Si 9.990989014046814 5.56099703546975 6.510241364292825
Si 2.4691479346182605 6.555625585836113 2.9687041311025673
Si 8.16743960162574 5.8389013127663345 4.945544036355577
Si 4.2155331253171795 6.7653026510036245 7.846030981728168
Si 6.703345815927638 6.320218500883089 2.067425921468023
Si 4.817393147669389 5.165294560625939 4.608870469012893
Si 5.561631382154175 7.3385863766992285 3.973838317638054
Si 4.000429421753096 4.989769497317135 9.40275252825962
