31
Energy = -146.26211483 eV
Si 9.345733725623463 10.306413985474713 3.3513314876332463
Si 10.034118823658524 8.343029391396053 4.423261763306364
Si 9.715409977666422 8.268882904153049 6.758617697980939
Si 8.779493196283822 10.255358258353004 7.802685374112886
Si 10.503292331260377 6.365640079949193 7.941984741775736
Si 9.352325562526977 6.427740259385307 3.112092822190949
Si 8.168590860688838 10.180327246042442 5.462622881561041
Si 7.966627940716605 8.35937004799127 3.056547353963489
Si 8.500848824832747 6.587093432443065 9.159635462853059
Si 9.087069657216576 4.738427420257865 6.9372882912016
Si 7.226682843856733 8.35503843462177 8.181038350546363
Si 8.03236059464084 5.499481096017371 4.9383963310575645
Si 7.508755762407927 7.5147230423235705 5.9956820823926895
Si 6.309277455211115 9.061072868066965 4.579400058021073
Si 8.085816301866801 4.074608923755379 9.199384510501773
Si 1.1479693628244256 6.40679947890091 4.598788209274675
Si 2.438636484651988 4.736057235607556 5.604408930877999
Si 3.2625400028225657 5.194198670811414 7.772537216561645
Si 2.6002061461299104 7.319951303171386 8.744144064424896
Si 4.566609765731583 3.541146867705992 8.885339264058183
Si 3.992387889492085 3.833360918726313 3.969684153964616
Si 2.4669640472836534 7.460526325543537 6.3309956672152605
Si 3.3968221888037657 6.119755968208436 3.7806453143199135
Si 5.906170229905799 5.343306115012426 9.595104595567342
Si 6.407867388060919 3.418308685365885 7.38004947564606
Si 5.072973975224919 7.314966147643647 8.535382443932928
Si 5.95029088331546 4.447804979903349 5.279901944226377
Si 5.00373248282532 6.235797039875975 6.439885323512646
Si 4.267180432163098 7.973809852860855 4.942912252104374
Si 8.625484260435037 2.458407818467667 7.641564002681116
Si 7.777760601869013 5.3585952019610925 11.09868793253115
