39
Energy = -186.31546906 eV
Si 7.746124843806102 7.127420764461241 2.0023016511877834
Si 5.616197490998253 8.406038660139583 2.201544433227582
Si 7.090633768841262 4.918890425480566 2.6970592839426453
Si 3.865180705034425 7.282373220968285 3.4400402346875603
Si 2.8538317503293738 5.162871970108991 3.650576576186003
Si 8.724253295932545 7.760582179308325 4.197077336295218
Si 6.354167221567566 9.544379449193132 4.1542815905938
Si 6.323702680308492 6.900625628635935 4.053643180315679
Si 4.922150631829716 4.027729660680515 3.2718181065400582
Si 2.7851768452236456 8.786783446967522 4.980136738727042
Si 8.626514454144349 10.125843606577595 4.650259653465996
Si 10.038776191720787 5.822404729078373 5.058030785620841
Si 8.33329202619162 4.242537518689547 4.536588078165056
Si 4.473760873170037 10.598048067920812 5.1073161540685765
Si 5.497257776424587 3.0594982513630273 5.304297761642715
Si 4.706889545983295 5.457552560575467 5.281727012699211
Si 7.676811796551891 2.0601233310187794 5.176285070934822
Si 4.900992877497274 8.326483685130041 6.0291813049746565
Si 7.716760778058263 6.160633005162358 5.967943289683983
Si 3.7980326147212695 3.0145652107631964 7.093275927054506
Si 9.704969585414966 5.79222387938482 7.458151129351677
Si 7.720841788528444 2.4910246961379583 7.502893996911514
Si 7.356582454907997 4.831506004607555 7.8566684633387505
Si 2.724966418707125 7.647615727083703 7.314921169963491
Si 5.468248200391394 10.537499485257225 7.229012302729476
Si 6.878276998726095 7.992404494810456 7.2995091538622106
Si 3.9029923643116806 5.4612419010910775 7.513457967275229
Si 7.833226327843642 10.158591180945344 6.992670421509903
Si 5.691683809357526 2.9260670692913275 8.559527564972415
Si 9.3722762936884 3.7248892853651054 8.710225039878802
Si 4.350250601923468 8.947499287600687 8.51611742719694
Si 10.335094816427187 7.483321933124583 8.988640837069362
Si 7.888356015688517 4.688791298390013 10.317118796065952
Si 5.566731910243464 5.57071506525245 9.28731609915717
Si 8.542860157283277 9.037680968801867 8.966978471798875
Si 6.145864567041367 7.836421497870648 9.600690817872415
Si 5.710161425029292 3.7501141022842717 10.830662085870982
Si 8.682958756698163 6.90467779087548 10.518865470914033
Si 7.573149339451357 8.932328959600717 11.183188614245656
