39
Energy = -184.3753098 eV
Si 6.317485967071544 7.624660841287868 3.1621344152237008
Si 8.035638608642003 6.058528939051364 2.8900626380039505
Si 6.794612072926851 4.052504229059763 2.6359687286575966
Si 4.185779624741872 6.591154966526127 2.674945239353423
Si 10.292410695438182 6.394565245762037 3.512944987488865
Si 6.557294862773223 9.941470307371707 3.7259980388519884
Si 2.794888450076329 8.089871445580425 4.010908966875189
Si 4.865461420394011 4.68114801688528 4.034238856636661
Si 6.781083992991511 7.27574125240581 5.62076851530395
Si 4.574787149343222 9.35445735365253 4.866687393748763
Si 8.154797399217314 2.6604804479176627 4.060258224906142
Si 9.406283615163407 7.7708709018423106 5.33709039771206
Si 7.131446116831981 4.7737025220752205 4.991832544380697
Si 9.535559552251119 4.566300838382554 4.9307331979567515
Si 7.672341950664439 9.468476348574939 5.849180258665866
Si 4.366927505857862 6.802835061929623 5.2937843716231265
Si 4.253727624745793 3.0397352688275214 5.791715537907804
Si 1.937582803134032 6.7074351668583105 5.807484789293734
Si 6.6052576144588 2.517300881891532 5.903808266777713
Si 8.993222510614554 6.065550688339955 6.943819731439014
Si 3.9256484838432892 10.083862367825938 7.010660360675277
Si 2.38742202700907 8.38629285210314 7.476968094066037
Si 7.965811758503468 3.648599041657608 7.587986746127806
Si 6.67744243771527 5.824115907948166 7.584161492335701
Si 10.303594587142225 3.994522543864102 7.222307042639489
Si 6.032294652298749 2.033889931639444 8.30554508283134
Si 4.902721244427438 4.223458781832158 7.93604223878319
Si 4.765123778857325 7.758108233311156 7.714707497302275
Si 10.652786383763331 7.894683055233753 7.481563576056726
Si 10.329199545154191 5.909833536923583 8.931642765983348
Si 7.8841690477535495 10.955147165898847 7.748669459858601
Si 5.856382164084024 9.89792709879324 8.36586563017872
Si 8.642405702191216 8.786627394118295 8.290917276629969
Si 6.8937616160312105 3.77509687833962 9.663947197126745
Si 3.0598505949687453 7.791735708651575 9.670217287206146
Si 4.572808703883974 6.015952817048032 9.611304154586325
Si 7.941222139388933 6.819489826153023 9.441637975373355
Si 5.2166650356700695 8.607599555128397 10.22139651752799
Si 6.25838874100675 6.680554760338889 11.214382684935147
