30
Energy = -139.78167538 eV
Si 4.2130297695677505 9.338411109662683 4.693721392367019
Si 6.76946655766382 6.072886343393737 1.1789712240284906
Si 6.110757162856036 10.344802625831418 3.4942779339431724
Si 5.177916729009574 5.3913081551763025 2.815564333893411
Si 3.3187716629781305 3.860959921322303 3.314613661266763
Si 7.735746820833972 4.580419070504129 2.7310110991369463
Si 4.665197577144753 6.906290628092506 4.5450162094497335
Si 6.5009603801119065 4.203857741187379 4.7912843563932315
Si 6.691804302460368 8.188402301987816 4.384215820066995
Si 6.460293665896304 10.243461750063616 5.778436079163387
Si 4.295348554777368 3.3289250292636656 5.434571044013765
Si 8.476743353320252 5.70713046916277 4.91494441510553
Si 7.49745295350095 1.9454181968842506 4.919303643376516
Si 8.21772641695946 7.110943794650979 2.8966835302703275
Si 2.7798511616559067 5.504446218375712 4.9879017950546665
Si 8.53440899491974 3.6546963235211756 6.217298502107987
Si 6.684261654016634 5.884355532432845 8.268151356426424
Si 6.081298511057792 1.9650804044458057 6.819723332088234
Si 3.2749425870409046 4.308760560682458 7.346928801421744
Si 7.125956130826632 8.224669327250796 6.993282400807552
Si 1.5335536252256958 5.876871584821309 7.071335437749068
Si 4.619465998416804 8.667084510091856 6.9762920693039625
Si 9.006922673903077 4.671303901551222 8.39361152895044
Si 3.6650334595204117 6.716718624607878 8.02524639470795
Si 6.996361021144712 3.3835216741244225 8.534813579614806
Si 8.978648963410974 6.746408822322171 6.993126491999394
Si 4.77274457561817 2.8037979889909823 8.576519573126784
Si 5.267729625971961 5.575522200365882 6.432742579886006
Si 5.112638661910993 6.606417882173663 9.982993658404894
Si 5.896549840375107 8.64871069915358 8.949001147969822
