35
Energy = -165.43260986 eV
Si 5.020899040622233 8.644015515485984 2.3829489362453984
Si 5.748060757748921 4.5749659615733185 1.9275920012541568
Si 6.720557299917406 6.854664578458353 2.040963790502561
Si 5.820648511814414 7.297430592629937 4.3658067039345285
Si 6.271318099739751 10.410111573596362 3.3266435528199447
Si 4.680016829528229 5.212568058634845 3.9424505772696437
Si 8.27674503854125 6.935164822486243 3.8283096365981204
Si 6.890386539772107 3.859095590719522 3.910942841144564
Si 4.191781393012448 9.404939991116715 4.689972564946025
Si 9.043395452714314 4.769056576188266 4.511014056080571
Si 8.541131400387961 11.0533765399303 3.710163052798778
Si 5.050157577182016 11.612136948040378 4.901177701951391
Si 4.803428120621043 2.9900336324748444 5.576855539209887
Si 6.648065258124229 1.6637288979054077 4.9937520433839016
Si 9.058443278951238 8.993430496949419 4.701432778672405
Si 7.250512491531643 11.052629090517225 5.670326557376736
Si 5.82182599799374 5.182560559030378 6.147192065859476
Si 2.9995424394964383 4.56559135820963 5.602139355095315
Si 7.589610694322355 7.235396526570863 6.228386538497536
Si 6.715023499480167 3.0425642801434587 7.0639521569495
Si 8.150670453733927 4.95084285026287 6.739254286349039
Si 5.016611500826868 8.17178231202368 6.563678538396949
Si 9.33346028277349 8.626861621176955 7.031743063978477
Si 3.9966567189972575 6.124676109994417 7.275335780417646
Si 8.11639566210635 10.633845725020539 7.858363148106636
Si 6.73291627518738 8.758765909834299 8.05270663531302
Si 6.422158899984408 3.19409386224013 9.477952417055178
Si 7.9394453170634565 5.181196246067771 9.09146136238275
Si 6.7186689300692235 7.142240651404126 9.835780567371481
Si 5.241630525168568 5.3570025335362494 9.126545263665408
Si 8.46479752053842 3.6133653482979753 10.767250971023133
Si 8.026278808665781 6.030130558906111 11.565315345532763
Si 4.467118411527174 3.87455446192034 10.82531595503488
Si 5.22107605662855 6.220668417585582 11.49160940834084
Si 6.510564915230357 4.266511801071446 12.275664806444315
