32
Energy = -149.83948323 eV
Si 6.9027357750328715 6.638885736069803 11.954252625061244
Si 8.809258446141715 5.569150181264211 10.43265926755142
Si 6.4692009747707235 4.722797804013344 10.500087010351733
Si 4.45172033582669 3.7809930228670603 6.144662852313982
Si 7.683433903317743 2.74584570254262 4.103715524854961
Si 6.685331158036621 4.5831687929665526 5.474662914319521
Si 11.087577326286283 6.3076361048460345 5.900094309632357
Si 2.76494869376799 5.34661071048295 7.176814694782032
Si 8.184179771456074 7.863303486557639 10.05205393144936
Si 5.453418050664057 5.3332206495252965 8.333186265049132
Si 3.194492822698814 2.915871928241611 4.3572188116953505
Si 8.062312237822672 5.022635235582161 3.3848211993749926
Si 6.074786875456988 8.773811601778533 10.918063965836678
Si 9.39779390016477 6.740199394134612 4.344243773031575
Si 4.825577235416742 6.642925982429999 10.495216979105878
Si 7.716382931140719 6.076519163267981 8.353621322409316
Si 5.411346293845502 3.3390612503264916 3.604001022229561
Si 5.831959901087301 5.57784166442974 3.113887877082525
Si 9.021417878495084 7.2725143674296255 6.781718828316013
Si 11.15599390951824 8.537534891883345 6.895015872245047
Si 2.9855381262006873 5.338463822179107 4.849327149523017
Si 5.8323855279626216 6.96142862437633 5.212404467105925
Si 7.797502341693406 8.40905078890264 4.942204660692705
Si 3.985390602961275 7.088241618894111 3.482022703760407
Si 4.291957587695705 7.1561050652528415 7.150458431385902
Si 6.1135124404605365 7.958750382702251 8.62663363484019
Si 6.975099094943504 9.782529218623383 7.190356836659983
Si 4.016574624185223 8.701255896744264 5.2801934879354215
Si 9.583756285356609 9.162909354106437 8.58414697973437
Si 5.981937069518906 10.012590206580951 5.074674078728182
Si 8.70424072960948 11.262638431379491 7.822640835918161
Si 9.394024751827452 9.898647888316397 6.000556401989798
