34
Energy = -160.97106763 eV
Si 6.743548383381128 5.997511339611509 1.4710497033341376
Si 9.186246796427437 6.909485248814297 1.9403450577046057
Si 7.131215484471516 8.45790333555733 1.8992884384427284
Si 3.3565012436149346 7.287443067264961 3.91257571045652
Si 9.23049580679371 9.14969594823393 3.0186513066871115
Si 8.09762784747752 5.153308305216051 3.2715429536608585
Si 5.666166281864782 7.0693360698724605 3.3354872298937153
Si 9.320449618974068 7.011751809047207 4.5181098576229175
Si 9.281024608659473 3.3100250181496405 4.250372906818259
Si 7.385467287527074 8.596175820566042 4.4284317343225235
Si 4.091952470816003 8.465523706822918 5.763840466101709
Si 3.4992030817999047 5.8686061353297525 5.847197842702302
Si 5.953713672395286 9.83600122885648 5.846911234574884
Si 6.99718322202104 6.275713621480768 5.186900596198167
Si 7.262622929876661 3.2396363971865854 5.545664748105921
Si 5.046392344857015 4.064321660730786 6.057451454151564
Si 8.961877396068509 4.94357289949512 6.005013052442507
Si 6.227640228007141 7.571667401640274 7.136092292417067
Si 6.400431783660539 2.4039424601149713 7.5660925912993395
Si 4.034645307825248 2.2241320785430094 7.291217832310447
Si 8.668694986053092 5.110450080891258 8.370079188617149
Si 6.305671620271308 5.163234129060631 7.980090049214254
Si 6.067018123037445 10.246447246220379 8.196752380961776
Si 2.327358407901076 5.873463638441925 7.892435703388996
Si 3.98546055682215 4.2773124725783775 8.517910322694863
Si 7.41670545731625 3.365090597792327 9.40309647157386
Si 3.880125022421763 7.637534275092157 7.96290637376463
Si 8.031863975618082 8.32723043079281 8.578635841181937
Si 7.9956016618844235 10.514172627133076 9.549413102864904
Si 9.341060323387886 6.764523197118154 9.899107482150079
Si 4.186883612615818 9.527757653856886 9.399850849113383
Si 6.99618030307662 6.714470139324505 10.303887466470355
Si 5.6142058246598605 4.707008770547338 10.270280263056359
Si 6.30876432841652 8.935551188616124 10.383317495701608
