32
Energy = -147.15634523 eV
Si 7.284877617421501 3.9793713078517583 8.266554687108243
Si 5.974443150040197 5.9984164074460455 3.7003088057688394
Si 10.24872050141557 8.249857755417036 10.74548322421329
Si 4.471424882455268 9.823391041534327 4.885201199478378
Si 11.303583136448436 10.49113028734502 7.737190224406483
Si 6.709075075292619 9.840697580063637 4.138950357093306
Si 10.415833755434381 10.550724858994055 10.009809004467092
Si 6.69018295859331 5.15577980182246 5.834128309452778
Si 9.374174803932135 4.836244723981886 8.741538845713096
Si 6.512652477761675 7.17816950802914 7.278607013595993
Si 9.021326670434506 6.632993222226771 7.050853480445597
Si 6.941973128037965 1.6610285995607532 7.876905106734229
Si 2.34187411695287 4.597126375640012 9.831015102022382
Si 8.50783391379281 9.769559936081716 2.6351020327299426
Si 3.8670022704787175 4.462538564950041 8.067873638030736
Si 8.870774466342377 10.525581875760498 7.972707704181185
Si 8.282301131864804 9.049144690986674 9.694255396345847
Si 3.4769888194567673 6.478132913034452 6.852406135027228
Si 9.235133775135283 2.4751862433341434 7.710591255637061
Si 4.335952101098246 8.20183414545875 10.72422531501636
Si 7.817037545279693 7.613330494279711 3.6675702299665938
Si 9.827936434224672 7.668304727726144 4.997371907124889
Si 7.717264069681332 8.641645785638458 5.893835223528331
Si 9.387345401672249 10.0616815816873 4.92426342683181
Si 9.87484650598407 11.937803661465761 6.371644729668708
Si 3.606175404871128 6.556102604712933 9.204487337443586
Si 1.5234676411551362 5.60556257170431 7.7866710674226445
Si 6.088736167358366 8.207421295898808 9.34103010969743
Si 5.4766497575810025 3.331158092717288 6.7440063276621975
Si 4.99150926836131 7.540284180009229 5.323291226732818
Si 8.909430977420282 4.305167562169051 6.226931245336335
Si 10.295014155705664 8.40798380976263 8.374310342796134
