34
Energy = -160.95442171 eV
Si 6.2587318140705 5.154099748313906 2.7276946557855433
Si 4.9844236816379635 7.241216393766471 2.648143601322
Si 8.991498496912083 7.974083618815608 2.882287207455063
Si 5.520058823719663 3.314651882341603 4.0867633741736125
Si 6.8210296307134985 8.677896597818894 3.483151335023536
Si 8.314346680506546 5.819670340018848 3.6830552513503325
Si 6.05841490352246 6.624092692324875 4.772269774958051
Si 9.266466310922954 3.9633317402381607 4.763515654162071
Si 3.2672579581408248 4.156048794267436 4.508990286620059
Si 3.5367677836885854 6.588745086846694 4.42350497615903
Si 7.151342744997379 10.60360921375815 4.9086980375336875
Si 7.140478008581039 3.3873770057794035 5.961569421357249
Si 5.117429404575714 4.904942758581055 6.0139962960239055
Si 9.014873156170433 8.86468507537779 5.08496859087685
Si 8.086135700688413 5.6352807634043405 6.233103234611251
Si 5.440565067625513 10.295884695300884 6.677906213818322
Si 2.7112780217713315 5.113812081915813 6.6985564139280624
Si 6.877131501767308 8.388600811433776 6.190175746024786
Si 8.965290469576917 4.281782758072039 8.103636807524175
Si 2.1465808913919973 7.430170342207542 6.124472721431619
Si 10.566395491828763 5.054863026111874 6.518991878907238
Si 6.014636844970691 6.65015498400995 8.091751806739557
Si 9.606314283484226 7.385347586278851 6.82715770736791
Si 4.266101444403403 8.216631259890873 6.86884238486966
Si 4.196321220458101 4.961090904019961 8.5583158705805
Si 5.93697606626656 10.675222134689403 9.073384998433177
Si 7.5378562153080875 2.3590590349989418 8.098941452306804
Si 7.308903303255974 8.810680957844967 8.51103231822941
Si 4.789210453504242 8.587444534190507 9.184755450509101
Si 6.295838720960984 4.074334709227912 9.209732632893122
Si 4.6624820630981105 6.4776233338002625 10.28936435051267
Si 9.451537752171319 7.974886158800506 9.136260374286984
Si 8.068767572418135 6.053275053502463 9.42248806786247
Si 6.628557516886486 5.299403922045991 11.232521106358082
