33
Energy = -155.65857849 eV
Si 9.427124068850931 7.559720173955774 1.7324542792386686
Si 6.16064883779631 10.464841228514707 2.9582419704916783
Si 7.396467920190096 6.677993771373325 2.57404456523657
Si 5.63176088105138 8.167314609839263 2.9316418722984388
Si 8.228901559108616 9.28558318555833 2.9982647080021656
Si 7.472446824411879 2.7209447151144555 3.8961738770605274
Si 6.970697117570106 5.097283710791409 4.33760126948086
Si 9.557497973081707 7.518051637494193 4.144672006921031
Si 5.167083902302134 3.1827039857575308 4.197114756843504
Si 3.050115790242875 3.7389841109548314 4.873428958387171
Si 3.830506763859163 7.656315847874402 4.329201989895335
Si 4.681342302503843 5.53869746773187 5.063619292704079
Si 5.608435740557151 9.351799841972731 5.104665130927634
Si 9.442608975694926 9.717923659468308 5.002555455445934
Si 8.375823663390848 6.299201317639262 5.797580221955995
Si 3.3772190003664955 9.396492226324426 5.9493474226578265
Si 4.5708645183042815 3.5481400271386554 6.755830270479086
Si 7.638152805597357 8.538849671831215 6.189844842539993
Si 6.926258095040916 3.221926566574952 6.13051120168021
Si 9.602375138508883 5.321268503969447 7.595452117297014
Si 4.942580749820207 8.299372748502499 7.343890822903338
Si 8.382831431285886 3.160498679686509 8.022498398005133
Si 7.316102889244307 8.442074985020376 8.547044861532106
Si 5.06578481631732 5.899182499060144 7.531454126443425
Si 7.232799782566764 5.329153238644406 8.326568171827981
Si 8.905604217926584 6.87936073326423 9.346372161912717
Si 5.4980476301070285 9.576150144062424 9.368573351409193
Si 7.028380677242255 3.507980051348745 10.07858274447489
Si 3.445255252881729 6.006425654390146 9.30234603559844
Si 7.5963263860143275 5.648669559813211 10.863328038813547
Si 4.985707433825874 7.484875330370989 10.343872771400534
Si 5.116565750863105 4.896503126120894 10.561864749550082
Si 5.850489728442446 6.34852561480373 12.284166181552965
