33
Energy = -156.28189683 eV
Si 4.938567203004848 6.153654206134838 2.800790599053068
Si 5.944364985832886 4.121189637720953 3.2438954998249754
Si 8.49390439551648 8.546226922612998 3.038270800759155
Si 7.162182194370144 6.58564801059971 3.718593640308479
Si 4.088853985337305 5.588679204236312 4.905719348803732
Si 8.34898975708393 4.21277709140459 3.523732030026562
Si 9.697073568322782 8.057686091170504 5.139084773607552
Si 4.424130476079787 9.386787265247962 4.948873387088536
Si 5.528828007002881 2.0497672267299913 4.334617156574469
Si 6.938199165738768 9.389927985519137 4.581424506996457
Si 5.874486838276801 5.040745114502383 6.534563650696176
Si 9.16779244010155 5.756856307152646 5.113567260192563
Si 3.16340496782089 7.570031658122388 5.755367353022213
Si 7.248189003941039 3.3050628828535733 5.51559378489507
Si 4.12247392088824 3.3766590169919537 5.73167247563158
Si 6.935164136682309 7.426829908375402 5.994592357213545
Si 9.407204678774587 4.631768738234398 7.130223884945212
Si 4.996070781673576 8.320630311563288 7.191036524476134
Si 6.781260809657454 10.422754879046098 6.6788468845036055
Si 4.482747142801337 10.791716800998218 6.890207293101677
Si 7.555064636874509 6.14430754030733 8.034527021791176
Si 8.914291149955162 8.103707244338137 7.436577120939931
Si 8.702164948558373 2.364650098313026 7.160866349879468
Si 9.934515391817586 6.260690257618892 8.804793618757607
Si 2.8344842873155227 7.536495096160757 8.182108706638644
Si 4.530185826069633 5.8959433473074645 8.534302513866377
Si 7.1114371025917995 3.6395429438800058 8.36234862517028
Si 8.142786932143581 10.072792841920814 8.567979832333986
Si 4.635755383658567 3.5383890443985706 8.136339815630544
Si 6.218656490678613 8.83522972590722 9.253782769979153
Si 6.19140445991223 6.636781037997713 10.036018792530323
Si 3.9412709271635245 9.631958585789814 9.030797025648402
Si 8.044094004354205 5.1041129768439575 10.188884595114851
