32
Energy = -150.12354683 eV
Si 10.804711120882894 2.7618174420162407 6.155147102991038
Si 10.074258266597049 6.001284335650614 8.364351569211449
Si 9.51063597739564 3.7622493116214857 7.846056160728848
Si 11.031178658194344 4.492271078208131 4.4079261587936
Si 10.221854494639087 5.959174715094449 6.025214919545364
Si 8.50979814499761 2.6367675407134357 5.73102660868003
Si 7.712895343025578 6.024601951217382 8.163721444331223
Si 7.973703422502185 9.860690112952945 5.359041393765502
Si 6.990474176030871 4.864577964591377 6.204734107182335
Si 8.87659041627306 7.654429596368497 4.910970908490133
Si 6.755244823814374 7.756158262219526 6.273260465288873
Si 8.639536883858513 4.7921459940987745 4.4503429688451055
Si 6.490542060331151 6.271805938271646 10.159803228265929
Si 7.134742477172924 8.739858277932594 3.3318510443197735
Si 8.061771147938558 6.520044930233508 2.8208506678170693
Si 5.8549499433008965 7.936451901946059 8.570637076534387
Si 5.032808573507154 2.532444010469611 8.50441414723949
Si 6.048839544669118 6.570435075797565 4.167829246864464
Si 4.764114985993289 9.99115444393308 8.960994570494693
Si 2.7201975053122722 5.7711973837439725 8.691017264715162
Si 7.300581487015143 2.8928206939709833 7.733899270783988
Si 4.925247827679412 4.831231130669469 9.102599285870133
Si 4.768721098161202 8.673246675215884 3.43823832195822
Si 4.435923718171288 6.505879285165593 7.08646052398714
Si 3.2675181064337933 8.117668875901993 8.582730348122865
Si 5.492801962765968 9.711582304135344 5.496173812708338
Si 4.756229339222273 4.112062997033109 6.68244571588607
Si 3.971094822314582 6.489263466484389 2.97157542565424
Si 4.075722152984002 11.073420286147002 6.78124446660304
Si 2.448275761992361 5.086877081079256 6.372103506141213
Si 3.1109588726457384 8.949966701248712 6.365221971422626
Si 3.0461679112172493 7.040477771940729 5.0518498606091145
