38
Energy = -177.49298075 eV
Si 12.65153306136699 5.139611952787569 11.975946051660758
Si 9.742782463454802 4.825870117166272 7.198314683300237
Si 11.795962040579504 11.503021093211217 10.217474694513845
Si 7.745120077192777 3.606170059076324 8.199618676779638
Si 7.9145803213373025 14.387816425031696 11.439906004481344
Si 10.178273205306292 8.42392822307816 8.534659120236713
Si 7.103755400591542 10.917671574266036 11.44376917975613
Si 6.810580070935366 6.634828292214612 6.478032600744731
Si 10.341696447844798 10.766303959245224 8.474505309651127
Si 9.45390265509846 10.713558906861406 10.873378085970083
Si 8.370292015209717 13.70167742451065 9.159150787358904
Si 12.530824004109512 4.68438064237962 9.510461436822403
Si 11.255205396407092 6.363857780678162 8.21082045597817
Si 6.452304722383472 9.287410342495688 9.738721842519157
Si 6.087096130379455 5.781165231798456 11.107008237682948
Si 7.712240626787563 11.158820302838556 9.02384033396717
Si 9.390876824653843 14.111756107388727 7.078456333684832
Si 8.681545869854672 8.232215647713367 6.694663255882613
Si 7.717415178924218 7.331938054953737 10.112409883536037
Si 12.178925443517688 13.891929877936715 10.722139233866242
Si 7.816216229192174 10.119896728239244 5.453211063778192
Si 10.925442861507833 13.457402259537684 8.815359570397879
Si 9.961139086591945 13.168931275830968 11.170037506138492
Si 9.130484035903992 5.424011248978883 9.511956570269666
Si 4.547768821482065 8.662148406878451 8.482970502885056
Si 9.756981466721692 8.287908887867712 10.87972961728926
Si 10.962355445664205 6.190260055138995 10.770625097544505
Si 8.838687057982064 6.180219689764708 5.384007116979606
Si 5.603663595268513 4.242950887809453 9.140977791341683
Si 10.548652227432122 3.397330070858291 8.96235057412511
Si 14.434301859282744 4.360745931732146 10.744198569909354
Si 8.780585798141754 11.730079734799896 6.993101384965707
Si 6.269087810556398 12.932589499191327 12.335233677645935
Si 6.261814257995698 8.906445530345648 6.781042520541023
Si 7.563087661282944 3.901562810906891 10.645015215700278
Si 5.81673203182326 6.5723632303157595 8.653565340891237
Si 8.682144122635844 1.925590078528079 9.65718654998204
Si 6.189341621590516 12.892045505816471 9.94835837273326
