31
Energy = -146.40142935 eV
Si 5.8826802230623585 7.751781275071531 2.1592356960762715
Si 4.047620257786326 8.513490477924758 3.713877135415421
Si 7.318704214630954 5.947622850821073 3.073242370937362
Si 9.432866819622653 7.021936378372034 2.5763277257547634
Si 7.802102996262995 8.66044880950599 3.257689520005719
Si 6.413738718862168 3.627202315729091 3.483191340383247
Si 5.9591352634658215 7.2482333616203904 4.644886304549878
Si 3.9662862781069173 4.053560618381814 4.457023160676112
Si 3.6911618742439494 6.46647166913286 4.896742815112002
Si 7.70395010974569 10.47770874278732 4.854398969203449
Si 7.675853847021586 3.035288213215884 5.572363426634198
Si 9.260956676024296 6.842222128421684 4.924678599824682
Si 5.520778514334074 9.526953468644454 5.5233444407286925
Si 8.472228931093294 5.116509062233303 6.273814898123912
Si 6.077084341210086 4.92508685268017 5.470723056409065
Si 4.393425493542191 3.813979465646771 6.876870087630245
Si 8.753255063193459 8.762549370043907 6.171356768125373
Si 6.368070431916389 2.5638577828361107 7.515717128067834
Si 6.609792119328405 7.862696038250216 6.948660001272479
Si 5.692143072433313 5.824603268093157 7.652275695471727
Si 3.6200757045911387 7.12648356375463 7.144478049010956
Si 4.564942867430267 9.250284606839479 7.74370879707339
Si 3.2893017087127268 5.273181016159929 8.62190213851383
Si 7.081207597408847 4.39834349470619 9.027668271145737
Si 9.174069039463006 5.653652254270841 8.482084747969568
Si 8.588692037795703 7.985857415898742 8.436879403690199
Si 6.117314325805716 8.163172020154732 9.38601590973831
Si 5.258727534656719 5.978794182260089 10.064702231123388
Si 8.048770440722771 6.298613697555332 10.527091453729799
Si 6.6516476320539075 4.553855947190359 11.387760214351816
Si 8.063415865472816 8.775559651797867 10.631289643250813
