35
Energy = -165.78307056 eV
Si 8.19447234517774 7.309158459997895 2.998754171903962
Si 5.082275728241504 5.354016789604471 3.2431801814075287
Si 5.840533994123467 7.589380611237842 3.4614869154343735
Si 2.823998840429656 4.824774088510013 3.1822674316573885
Si 4.0305857764681114 9.10546563354245 3.6085463594795644
Si 9.045370368221787 5.086464256966252 3.0025261014457443
Si 7.060236415935754 4.269600190126825 3.9107503839918167
Si 9.61313943808779 8.543792922727768 4.517672711447625
Si 3.279153804681314 6.965042341929787 4.291374607770829
Si 7.140803083230615 2.409054429109917 5.428225440123491
Si 3.7826424322066603 4.271564571153451 5.344349804979868
Si 7.313106646793987 7.501984981565977 5.446831456522579
Si 4.694278044911141 9.43492888694974 5.885676444528809
Si 8.223640728897488 9.597530015024986 6.166838753134347
Si 4.981912765262408 2.5712460235539343 6.532726325741814
Si 8.895047006725788 5.769181316349488 5.304878202376844
Si 10.888152228500585 7.067077806550674 6.16490652694744
Si 3.025462631859499 6.160588186458636 6.509093781889512
Si 6.29618339824076 10.936205202418927 6.820222800829061
Si 9.418985957039963 8.233560126703585 7.64250095807535
Si 8.652740577754367 3.759062660358474 6.7957250298740535
Si 6.24530696643103 4.645430110419885 6.338418334916988
Si 10.010851598085102 5.438618895166501 7.746481708604201
Si 5.340905019730344 6.992738482091805 6.843686038525138
Si 5.281659575025555 3.5901916576810775 8.723948759528975
Si 7.236469974881694 7.176443991062407 8.344352582549385
Si 3.6633868080172767 8.677774523957082 7.838791604415569
Si 5.871944521941559 9.28539088927504 8.475872062680534
Si 2.137300283216282 6.92124184368287 8.602512070631716
Si 7.509772591977673 4.71154942398165 8.790779375532377
Si 4.283936184551157 5.773780104991026 8.77323409275222
Si 9.111431784765655 7.717172115460835 9.889015159612308
Si 9.56554575986621 5.351168468433991 10.074930723922398
Si 6.101185967706905 6.091234607197609 10.31376712271625
Si 6.857580751010959 8.367585385756309 10.4856759740485
