31
Energy = -147.16121665 eV
Si 5.662790605127275 6.952039550763208 1.3477703374030516
Si 7.349833168273609 7.849633318135952 2.8438709154516646
Si 4.311653894752013 7.195181762974694 3.303093791526672
Si 5.678613183759004 5.093407014931546 2.88033627150738
Si 6.675546048006596 9.777751520029653 4.065471845105507
Si 4.471529349681047 3.1484035502379832 3.6940944785439553
Si 9.089859748330301 6.846269475997117 4.064019429218176
Si 3.494026716987985 5.266099351820809 4.2514064239788185
Si 4.875876818155888 8.596436073971189 5.094263855346928
Si 9.56854288188437 4.540018249866976 4.604822638464788
Si 7.267161194516484 4.822722933611158 4.541965091650711
Si 7.079121175880924 7.680160184873302 5.35898406194592
Si 7.940872905957012 9.948705764712757 6.057207827219383
Si 9.487367443303203 8.223627490389253 5.943825390499521
Si 5.676393000851457 3.7879135302569376 5.872540874625255
Si 8.964109209333838 5.135299814683734 6.883007040117774
Si 4.116130173309318 5.404665437804393 6.5208386443228425
Si 10.130630285114691 7.009376893277678 7.827087386941869
Si 4.214143549902463 9.31410527485159 7.267648421218406
Si 6.602427035340604 6.168651756898289 7.235608236745871
Si 6.502660131145379 9.373209405570227 7.904203657499026
Si 6.606497296847443 3.6828508754235822 8.100938498009482
Si 8.889222203297468 3.6458167019725787 8.802410785549645
Si 4.469596114015793 7.150074237061529 8.257404890652188
Si 2.9210150758915443 5.350841271057673 8.551384589099294
Si 8.019457958992588 7.551181676839873 8.803281611142172
Si 7.5284724166770145 5.337821092868578 9.879278920236288
Si 4.975851852312936 4.6003190980151345 9.5035047836883
Si 7.189331196372396 9.324748033859814 10.187712384320053
Si 5.855152706551716 7.3555052652386435 10.261808278416039
Si 5.886114659430936 5.367163392007281 11.59020863955631
