33
Energy = -155.65400382 eV
Si 8.727401863514508 7.391158744037065 3.5173217498141245
Si 7.595942423306258 5.315550431563851 3.676812533891093
Si 5.591695668330384 5.194849433124718 2.4469170545148033
Si 3.2787158707781305 2.8828526464183546 5.882430292352317
Si 8.135782199223605 9.002324097418716 9.349190863479683
Si 7.074267813661986 9.179693130470474 3.2117603055048107
Si 7.951097186384198 6.810668185803281 5.751121489745159
Si 4.32318219252933 5.092814376741024 9.100323644693654
Si 7.221303750718861 5.648142096568357 7.663487817487715
Si 5.771781491442903 7.207321777158159 3.7996362799162426
Si 4.333523047250423 2.982097716279473 8.01675398046098
Si 3.4897404241042427 7.53101988354434 4.521169268844258
Si 8.649772406774394 11.234978709302283 8.641342864555035
Si 8.93410140182255 4.541470017034682 5.439915642933548
Si 10.278522011269569 6.533792473776206 5.136129996704802
Si 5.1655878771474 4.082310896145198 4.484206511896673
Si 5.019615299233479 1.7039484205929822 4.654377774453308
Si 5.342144353740991 7.773324687239679 6.432754638749893
Si 3.012376903565067 5.227365577143937 5.407960477732438
Si 10.897399339623766 7.88023996615722 7.039240151238269
Si 4.465585264356147 9.730832625295516 8.473368269995213
Si 6.641972857128483 10.40535447509578 7.596544271501982
Si 3.0670471659042877 8.698391598446928 6.688806348301767
Si 6.162447085394043 2.755921948650664 6.483328399207184
Si 6.047330502125269 8.019687163047536 8.849713660995347
Si 9.153692428997719 9.584034566204606 6.984715912495298
Si 8.37461481518341 3.371489000695082 7.427121864782503
Si 7.232366787836466 9.17586987502716 5.619589581985562
Si 9.252627152313503 7.088612554648412 8.456799172081727
Si 3.2578260141108286 6.432386190973005 7.459537487097297
Si 5.177315745995939 5.054733624373489 6.73597790766075
Si 6.291891910644468 5.9843986515524765 10.02511709020123
Si 8.58132874558653 4.982364459469788 9.526526694724335
