35
Energy = -165.8699779 eV
Si 6.753722858340319 7.794222061042218 1.4435045709270944
Si 4.525717409009367 8.700617609148166 2.0395338552744473
Si 6.988009026670222 6.061388425799772 3.2527163159813157
Si 4.896282806568971 6.142781756399631 2.0351366702894134
Si 6.606874674597794 10.03222168701042 2.627840074254987
Si 8.498310191507688 4.304905337226717 3.719823836284554
Si 3.9153661027158813 7.227846063850061 3.9953371462331932
Si 7.805700816753648 8.317981281604892 3.7978610872547094
Si 5.318742024536646 9.189692817019496 4.45115404488763
Si 9.462740520421375 6.10447007612906 4.978695580101187
Si 5.987617921678331 6.910107864258022 5.415119865905957
Si 3.8606087980761092 5.977453079071089 6.253734555320288
Si 10.1655265286669 8.22729897396342 4.1579672553871845
Si 4.827312010556502 10.334254349950765 6.425555451974781
Si 6.86149306997844 4.579744910084774 5.430791149999471
Si 1.9309940846649547 7.086158130359137 5.293610603884829
Si 4.640797625197254 3.711285820369607 5.893149992745864
Si 10.978368879791129 9.058589742795096 6.31560271584092
Si 8.743506779019702 8.448977728115754 6.260332709686122
Si 7.600463214643765 4.7521952916761885 7.622366691904275
Si 10.317710167686151 6.756771485073378 7.01794573673582
Si 6.473018921417808 8.642699345025322 6.9854471748380105
Si 3.276580360500372 8.506913192291377 6.70306834199331
Si 6.139721223791118 5.883932440194557 9.026147999034551
Si 4.792838839447867 3.4263337832679333 8.227229957434297
Si 7.402305679790728 3.0349681718570958 9.252711452853331
Si 6.028468236034444 8.412580548978799 9.30047908652099
Si 5.429798564999758 1.8292451881356133 9.87447168782084
Si 9.286511430207634 5.78784847609194 8.942221539105658
Si 3.7166907363198494 5.085951812416409 9.53852305481728
Si 4.0933680316474215 7.2210227132412825 8.48433036594853
Si 7.888174517139914 7.186998037354392 10.367585419373615
Si 9.425195181267197 3.8011043896406016 10.37748581094166
Si 7.474543898012248 4.967002257390581 11.094536949472078
Si 5.386918868341581 3.994435153165689 10.897981248970902
