34
Energy = -160.33330775 eV
Si 2.5168845376089104 4.67921277921152 2.944271406548017
Si 3.462567446777919 6.892625286007649 2.971937933816701
Si 5.633177333049904 6.026165175906496 3.29496779037403
Si 7.807316813108943 6.7822945547644675 2.6148215587840298
Si 4.591118410829431 4.126763862274569 4.189442963028995
Si 3.144470162648467 9.119777580747138 3.7634647705834676
Si 4.963252013614695 7.853835453471303 4.8073166614889065
Si 7.383952316147416 7.985642875090336 4.664623809605744
Si 2.5606367957594416 5.312838529917095 5.157076649177463
Si 8.121959062476224 5.5159399508041105 4.569871561766885
Si 5.259515758169882 2.254295395315663 5.439277458564576
Si 8.870753513188912 9.813885793591869 5.207597273152708
Si 10.180378133540845 5.955456455314467 5.585393308903918
Si 2.5203402623421174 7.695343708702473 5.606215395047765
Si 10.563096553364339 8.274195729151343 5.759801008547608
Si 7.351444609487142 3.5822873608460455 5.714756112034663
Si 3.5789836839631017 3.7190921056348767 6.6036918697521205
Si 11.335306512227092 4.648537899213402 7.100625664711236
Si 11.407448464443283 8.763970074446847 7.969019302262885
Si 9.17042211921388 9.458731804137463 7.5287444737017095
Si 9.19490016506544 3.598941818173703 7.271287954836929
Si 4.4936432073963655 7.289880874002208 7.042415307069844
Si 7.855433542002137 6.857856610080923 6.9017609462439165
Si 2.696523611007898 8.77689161885415 7.847323569633506
Si 6.916703368785493 4.780387109806315 7.743606628466431
Si 10.246789607343688 6.616726449363192 8.023026556525531
Si 4.9808140974383734 9.080058181060043 8.512969850907405
Si 7.289118523309073 8.536683349814359 8.59711343753263
Si 8.112271554565819 3.4090008657418216 9.370136446965697
Si 4.658438027578441 5.249907163088657 8.077389903924441
Si 5.026981532328859 6.861862081123989 9.814557206556776
Si 8.494651212876613 5.718632977671501 9.433069005159336
Si 7.269948944860111 7.339356526269149 10.633308546061661
Si 3.340758103479261 8.422922000399273 10.239117668262292
