33
Energy = -155.66733504 eV
Si 4.577007975195322 6.34365108276286 1.7731744716421547
Si 3.6628533441816247 8.362357344906856 2.92300858975032
Si 6.721344132672386 6.337629520707271 2.689122397251182
Si 7.440753888755918 8.052365595844297 4.127102331118941
Si 7.706730627241588 4.405040424823046 3.5339242364555794
Si 4.872176618715948 4.629793853035167 3.3898816897797017
Si 6.134127797157598 2.59309912363689 3.5890001543630023
Si 5.328911048067388 9.156543793317349 4.460331429468452
Si 9.761484522993715 4.546571843144513 4.740013759329371
Si 3.43581617068844 7.6402739738401 5.137773639131224
Si 9.05291052314427 6.796971363035765 5.414321641421528
Si 4.99313443466865 11.192927851119215 5.7219750520364885
Si 4.184969561411812 5.414056539266326 5.5060955999622605
Si 6.437182509317616 6.168645710549932 5.301150438929647
Si 5.922094671507003 3.234742325416779 5.923262994787016
Si 7.990140787808872 4.538995711510925 6.3517659221522385
Si 7.196758797956038 8.177874729131371 7.198500492776946
Si 6.93268619092732 10.447780880124347 6.890649378088716
Si 4.607422501629404 2.0625101539095345 7.666551985083881
Si 4.062192078158048 9.195076737507037 6.709290684977557
Si 6.386360801421518 3.2243901836841458 8.490107778111227
Si 4.26642175483387 4.503869903508478 7.680360186977697
Si 9.587312617419055 7.983428355298897 7.375980244141597
Si 8.586649271105815 5.2080380544700615 8.626772148994103
Si 6.245393215621183 5.991963949590267 7.856440161031194
Si 8.947454714750066 10.257409232410206 8.087508409912296
Si 5.08277080714583 8.261929105591904 8.583203646921644
Si 10.31339051165666 6.787139206155716 9.295431189116234
Si 7.833527796383037 3.6443730615269843 10.278194983215533
Si 4.463348201780382 6.234549325729599 9.626773873885341
Si 8.151467939911246 7.636012503711745 9.727853515974454
Si 6.899521794852655 9.674295823500845 9.47086140390026
Si 6.7156823909186745 5.795692737231004 10.353615569311954
