39
Energy = -179.97487624 eV
Si 10.376197495160708 14.452731957066975 9.222753805286695
Si 9.472278653334175 10.927002828047977 7.980938224024391
Si 14.180633932325758 13.291858877818461 11.164983206666887
Si 10.84351070486357 12.013292191425526 9.535629810233685
Si 13.031063666383039 10.80393580609403 9.654439574012669
Si 7.049979237524424 12.739991607560215 11.331400004549534
Si 7.023984137828399 3.7239879333219528 8.219056341016476
Si 10.689682111617005 6.930340743364625 7.719263585238581
Si 7.270621655496896 6.169141599590654 8.444222180713362
Si 11.331932055842534 13.540943219303099 12.227982730422566
Si 7.504779782935258 6.560682851257174 10.778333556117323
Si 9.510552786655056 7.756739069080474 11.84172057867907
Si 12.883250068389165 12.49889602622416 7.981722127347102
Si 3.3930336012671622 4.892043686751761 6.781857293699484
Si 5.194881466433503 5.25234375584732 8.2133229320799
Si 11.615826307739537 9.358270522200574 8.392740672277704
Si 5.553798930578219 3.9144350505731715 6.265568778129057
Si 13.347730135037628 15.082176852153735 12.491344688628262
Si 8.439500490306678 7.9615791215267455 7.409132008987428
Si 12.111600830632854 12.36328640815386 5.750374918348
Si 8.887519998596716 5.492493373780141 12.486926769762972
Si 12.439669869491036 14.974731928101566 10.3211582137413
Si 9.914131123699939 9.948400010091481 12.684778218338609
Si 9.202529238030541 13.250533073388453 10.866001403255714
Si 7.7535904009610785 9.712968878574394 8.990970729174643
Si 7.933548599777545 10.613763651169597 11.443882376115036
Si 12.275933494718606 8.217612146527687 6.3684189237957005
Si 7.257494967947865 8.45528812172431 12.22444674762913
Si 10.305500989139711 13.08407842435191 7.206509897437746
Si 14.257319165729141 14.19140287762723 9.006670367904162
Si 9.742747950611822 8.425904527925614 9.505333232403883
Si 13.363646063236937 12.228670464588939 13.18883073539614
Si 12.213938225220078 14.049189815122483 14.370729708128774
Si 6.390879564936894 5.999792611847206 12.799059436197703
Si 10.907832397177934 10.290134237243679 6.223845736177799
Si 3.8160288412553216 3.688191547598994 4.83147777414283
Si 8.011929646520025 7.2006937758763065 14.119543867712476
Si 9.93078220983713 8.091976468897847 5.455120502037309
Si 11.817284611173415 11.12592963701402 11.771907964285564
