38
Energy = -178.35996348 eV
Si 2.401917799203684 4.4768161630330425 7.0604923057489
Si 11.211690960218496 5.3343358846091515 6.436754161504055
Si 5.728471234650356 7.739044950877757 6.888011714640507
Si 8.95835179030578 5.953951487739299 3.386910125396381
Si 10.431350708411719 8.920651019787359 7.450291569906125
Si 6.89690134896233 4.472888108544568 9.657144796829249
Si 9.251504344523848 4.244131736347146 10.193120496002026
Si 6.134863366789426 6.429658009138785 10.885088711900487
Si 7.742904742329857 10.9809565604798 6.193244022646225
Si 8.450256877417957 9.906617111628101 4.102216870458247
Si 11.282098549193444 6.909063006427393 8.385173602694161
Si 5.588985354518901 4.092150156519347 4.157428669311228
Si 7.088538731520167 6.765069855540383 8.547998664302693
Si 7.933181062781285 4.085507353790128 4.734068976695567
Si 7.330608621947433 4.794931198474061 7.053152200525911
Si 10.624869665427772 9.30108427810096 5.0800895616998725
Si 10.275995462307511 4.060988857605096 4.279360717437408
Si 8.38169695579286 8.524772426989658 6.155729721654353
Si 5.526146353728252 10.155343748867331 6.528437462850824
Si 3.3534236220162716 7.581733307770937 4.186169511854278
Si 7.346009660750741 7.754157342870892 3.036486447626456
Si 3.4762429685536924 8.487725223835824 7.798850608385371
Si 5.021998063542077 4.447057325079596 6.525675202858323
Si 9.447705357832202 6.626619534914131 9.918050384548614
Si 9.489971369158104 5.025866975231955 8.00069635303683
Si 7.643108838228855 8.42091023593691 10.248772678440446
Si 5.3901185460696635 9.45890596267157 8.851176024453496
Si 10.233564063507147 7.001004334432669 5.129959983696638
Si 7.350817286722777 6.467484982935552 5.259712214368051
Si 4.545234439428795 5.913643755486519 9.1626423477513
Si 8.47223955699698 9.900230571300783 8.279711264650818
Si 4.7933507195113085 3.5652802281195233 8.762233859961437
Si 3.226869446755669 9.741512146230543 5.645297058121753
Si 5.30242970883915 9.070704462268845 4.395681121530208
Si 3.7273042901582993 6.491764732323687 6.326815853093588
Si 2.57615291818721 4.2583071593709025 9.507989987995213
Si 2.319028664018391 6.515739214392405 8.46530699316432
Si 5.43577850548033 6.4445826520666385 3.6948085621890407
