33
Energy = -156.92167445 eV
Si 4.7811193607649 5.348807031724576 1.8826154845607
Si 8.236748077837857 7.841473150874533 2.3155067180414997
Si 5.87971675491516 7.3615088945944285 2.562552980876555
Si 4.5648167928267185 8.71337760535645 3.871392664135646
Si 3.575649240568423 5.533357446892917 3.9706400495284613
Si 6.1491437506854325 4.784069014859871 3.6679136409723956
Si 8.033557737169325 8.983494615924357 4.409690373555227
Si 8.049416709827879 6.324693197910793 4.170010956641207
Si 2.5813964732405377 7.61721268024985 4.648739565186926
Si 6.0708559379459475 10.089518373502289 5.145916490612269
Si 6.139152062225573 7.483366465930106 5.27774539515205
Si 3.3128412222632564 3.582301161463891 5.405481326006335
Si 5.718857136782196 2.9069974933860085 5.135025412496875
Si 10.2198264368145 6.124176515414357 5.4178323369734604
Si 9.585524564191742 8.321079316250081 6.117327046882697
Si 5.070478368631349 5.262162454984105 5.926818671687553
Si 8.263582931575186 6.209041799103233 6.868782444594132
Si 7.103716931515835 3.9899639671111657 6.759733687221794
Si 3.3638425622709005 7.20056582462949 6.841390417516391
Si 10.249896232155146 5.071877513670008 7.8122458640162336
Si 9.98308861874134 9.33456714931632 8.233118845808313
Si 3.2804107192739185 4.901811261991944 7.457502566148689
Si 5.7246561305397305 8.862088806463312 7.187179761166293
Si 6.1606996375379115 5.595121043971511 8.345598065493657
Si 7.850170602291702 8.360336423652035 8.07771500078874
Si 10.014612418892321 7.075775241673808 9.077310257932714
Si 6.579123012523351 3.316951275379289 9.03211198540403
Si 8.39888996366584 4.845568386963121 9.496615178752918
Si 3.8216456987748053 8.701342353335479 8.592871415957607
Si 4.3407354123632675 4.456451637869364 9.651060429824316
Si 4.895350286772934 6.885131805240914 9.834497676893243
Si 7.31771803076988 7.124887191448777 10.074611111086682
Si 9.182760183650732 6.290922898867524 11.232446178089821
