37
Energy = -173.52085784 eV
Si 12.192824029497833 4.86433813710876 6.8738836789316125
Si 6.00974673916581 7.9157158323075665 6.192115301655513
Si 6.823870484660206 5.27714199679464 7.715499225276568
Si 10.226039487511954 8.061696567210848 5.059078416208803
Si 5.611483351321775 9.950137724887783 7.268480211821374
Si 8.75613989160605 11.786999913297135 6.2913124411997225
Si 3.1829287772981067 8.531770670616476 9.80393272476552
Si 12.242043009068075 9.308043925511555 9.942837734118925
Si 8.406885083987824 9.179704080335773 6.264569038359517
Si 10.422627206075223 7.7442531565534 10.521532704355552
Si 3.5260955245972796 10.575869448148364 8.462357895130214
Si 6.576475163278383 9.806699633248758 4.82793709509422
Si 11.695730640655443 7.876386711813193 8.20351214849796
Si 8.158898780296 6.7224399956484095 6.134063767753978
Si 5.159198352214349 7.913914748552518 11.006112623542718
Si 4.19535070945497 6.519981648192982 9.028584536565267
Si 5.6528522605196505 10.5265863447706 9.696616750389753
Si 8.035524657924295 3.187252133793612 8.300636348715903
Si 10.62519245004633 10.351719372910603 5.746550416542711
Si 12.276136530657327 7.168009658855577 6.016823105914572
Si 8.5050183045203 9.836743055425746 8.497921336321689
Si 9.480663266760931 12.24382318739204 8.559993130770444
Si 5.208050698518817 5.560400989746046 10.989726413222906
Si 4.614508931145144 5.9964390062945885 6.7190983851772055
Si 8.111664422268138 8.447684461849288 10.323930574342686
Si 6.563501246297016 9.673461956550758 11.716280646955942
Si 3.527321538640978 8.258503548597762 7.300437332970542
Si 9.400194586212606 4.904065079995596 7.412025968177127
Si 10.835321481987258 10.28730100539449 8.187775737238727
Si 10.998183540096509 5.730482250613642 8.956114555212364
Si 6.335492470965105 12.039079070351992 5.983607674739437
Si 8.910633146698052 6.467474035837505 3.8078406103362448
Si 7.136162332407809 6.380453473966973 9.778841839753365
Si 7.088654195135926 11.863748970086547 8.373159372294973
Si 10.486415266857248 5.467312615249208 5.353600045431589
Si 8.82422598698555 4.744475978014068 10.016359626194602
Si 10.7813759137988 5.4133200732087206 11.250281045152283
