33
Energy = -156.13033125 eV
Si 4.4934779062983825 2.514291681682049 3.254502375990395
Si 4.60791865737352 4.941500226865436 3.425137949030493
Si 6.473481158755095 10.377241894828797 3.4337580096483102
Si 9.86259586995592 4.023793423284384 5.2803644637354195
Si 5.626054371048884 3.06128351246737 5.285274227753214
Si 2.9624817228640796 3.6393384911243603 4.8322833465687225
Si 6.273894372665125 6.046844479875737 4.681483724821637
Si 2.348063338130709 5.627328532828525 3.6818262071298933
Si 6.842934358383171 8.339902294741222 4.695389378562184
Si 6.930016080247412 11.633150407409468 5.5757903011672685
Si 8.62555940897401 9.853697663601984 5.139088018197906
Si 7.55712898843515 4.4337544886116875 5.7526797273415955
Si 5.08836359408964 9.895018914343806 5.320283087007969
Si 10.238325755178657 6.296050996039117 5.563392243816725
Si 1.996687751225499 3.270269615047299 7.010143963546232
Si 2.568361009224877 6.799956050785438 5.781662313783113
Si 3.5414621327599063 8.6959549412553 6.711288425951956
Si 12.001502223667561 6.428390706217301 7.08619988078058
Si 6.872504753179455 9.555303871137552 6.858904941910481
Si 4.839956001943745 6.4894788397794745 6.518295175747116
Si 9.908638195533465 8.269902862351966 6.874765203127644
Si 4.302845188261834 3.3702463739199606 7.155432960607044
Si 10.618970191676889 4.586101851552964 7.531921356459764
Si 2.6005758668689203 5.523646224167241 7.714308562009546
Si 11.900809403689731 8.45210191785025 8.392019943707831
Si 4.764723961626821 7.895678645269458 8.5764756743287
Si 7.4655414162311295 5.162959308573596 8.007093091684073
Si 8.123102591709142 7.36147373172806 8.27569945062262
Si 5.149090080339329 5.0929083710216245 8.521684741563188
Si 10.34014673900847 6.811826184511984 9.0548855536047
Si 6.763597416601284 9.102580019923407 9.158296558035167
Si 3.5063502923182495 6.25781054052071 9.84233470607248
Si 9.304839201733111 4.690212936679851 9.50733443568503
