39
Energy = -184.54563127 eV
Si 4.090072501346286 6.849186122642247 1.4697483360355301
Si 4.7720861487886435 8.923154297762501 2.418842430462543
Si 8.016839898353563 6.323797896826163 2.341834392464323
Si 5.783394840891178 5.397313570941953 2.435232903462939
Si 2.6409809324288775 7.728711102609318 3.111304118277716
Si 5.812357447237963 7.318179973485055 3.803682382971456
Si 2.9553052214597706 10.117975496968816 3.412962926753653
Si 5.217884967090163 3.323751124382678 3.5920761121267883
Si 8.200663216086534 8.284240804444835 4.104070636352443
Si 8.574932841678228 4.597361997967134 3.9165457912060617
Si 6.622933721005989 9.58107923452342 5.637419614204331
Si 7.418444749063795 2.4997844210628664 4.37289321024551
Si 4.293999909124273 9.154482194426325 5.203417275124403
Si 3.43361367525825 6.770300474700575 5.157394885798916
Si 9.75798157841643 4.679882616461942 5.9850147044956765
Si 6.437903595391558 4.733177030244354 5.154436635977084
Si 3.9726131608915405 4.433301577375069 5.329405711872633
Si 6.921575764660934 7.040457605692925 5.915339528111712
Si 9.289628613675099 7.131510789049753 5.946002625209722
Si 4.879063263994823 5.939965608031937 7.069265649679905
Si 7.739803850374826 3.4244297206765615 6.6628201939068274
Si 2.4979416392069163 6.440563777200114 7.392253911591865
Si 6.278473056224756 8.351679556786287 7.81296436807001
Si 3.2270223190682947 4.128930272604727 7.639874098924688
Si 7.524889467546773 5.531080222309965 7.94562691478506
Si 10.059397754835997 5.499045998925562 8.261762818402829
Si 9.592243701265723 7.983628763379389 8.183259814115189
Si 4.2705525638972865 9.84855845532706 7.6556839311777285
Si 4.102382028911132 7.6662267767480134 8.733872515016326
Si 6.592063098896126 10.722593825582443 7.83210002681726
Si 5.209010458953053 4.63689275839716 9.027098200641776
Si 6.97683167531606 3.0165778974065973 8.964972622094196
Si 11.272296033431275 7.112550857295721 9.656774833789136
Si 7.190113872471135 7.0216359212752275 9.860435811021212
Si 7.943171925824025 9.280975187217416 9.372176658166508
Si 8.682096734243874 4.384889593405213 9.936246318098007
Si 4.979722096765347 6.418014790778544 10.657898585864677
Si 10.95141237919849 4.676214588537949 10.468576502509073
Si 9.31829929672518 6.527897096545722 11.058712004174456
