31
Energy = -146.53015772 eV
Si 6.606860815902056 7.725454591313194 2.758519929188944
Si 7.477404947049162 5.515986108784835 2.7877684260491944
Si 9.754164507622543 5.041116684635573 2.6935266879398574
Si 8.474545306582659 9.245197372065658 3.483826680856901
Si 6.120033889612609 3.9560267175275223 3.9004734381789037
Si 4.756419617268655 7.4379681779465265 4.176398024792034
Si 9.510893328380943 7.079954110984045 4.005923968253968
Si 7.227519849202011 7.431316711881351 5.158613756678447
Si 4.1442581405492005 5.150596682821438 4.626506830011139
Si 3.1922577825578293 9.181353635943426 4.723265509367582
Si 6.215041956709786 5.430817473164458 5.986730726701276
Si 8.636608358915524 4.15194904185803 4.6849449083939145
Si 7.346989989902381 2.203042244728051 5.191026612176949
Si 7.500090963514248 9.758494781909496 5.701658079023915
Si 5.150572413436303 9.90025601062259 5.876329658029433
Si 9.141830536340212 6.014110053096958 6.056933185354413
Si 3.531348956763784 8.132170457297933 6.833254234652417
Si 4.026583786928607 5.8538361269757715 6.947834537268101
Si 6.780743404458362 3.4655668633636045 7.191051296585005
Si 5.77808417822233 9.918283273700123 8.103947886204525
Si 8.137215967375246 10.357714452604233 7.980694025442558
Si 5.963058900637459 6.836114599556061 8.20168741754251
Si 4.300630642945337 8.310215791398326 9.081112580062383
Si 7.954697742038369 8.028033359096641 7.614912719079373
Si 5.515479080541613 3.3519598500311694 9.207686202839433
Si 3.8197382450652007 4.982392267272421 9.141997995646852
Si 9.556258426661731 6.372416947347187 8.324642679052868
Si 7.941057324378781 4.645843022386252 8.880212922401583
Si 5.962730949045978 5.645335987663761 10.299386668647838
Si 3.8098207835976505 6.658836182149541 10.909049679252075
Si 7.167059207792037 3.7176404198727453 10.970082734325278
