36
Energy = -170.54229443 eV
Si 7.927565251652675 4.457342933977596 0.32906887491136705
Si 8.24335799137667 6.8824730401379295 0.39096944552465707
Si 9.995701825981563 5.408762915993347 1.4644223846545545
Si 6.560181675559757 5.831669554906678 1.881919486582526
Si 8.197541313421151 4.366856442910574 2.7655116766118883
Si 8.529195264137355 6.80232019380288 2.8368444032050935
Si 4.376401668764288 5.844478849443442 2.7772515232186787
Si 5.107869928265094 4.377083358758317 4.451200474620202
Si 7.200209322939679 3.4106395776960814 4.669707574496281
Si 4.965058619870962 7.302515361418942 4.519044301833015
Si 7.797207033450097 7.846070446748799 4.844142272339468
Si 5.982509732810989 9.384386422170822 4.400245001862186
Si 7.411023774375267 1.9149924630509423 6.543891965627829
Si 7.861542626729697 5.54298424083032 5.665353486872898
Si 8.604621640673136 9.186835162783979 6.710921600225429
Si 4.798265287768794 8.275551689260045 8.186707484129922
Si 6.443900125201736 4.668570512732371 9.544371663006576
Si 4.219193947256748 6.362398697462243 6.527704820250455
Si 2.5250212084581904 7.3444522589324 8.040544707728436
Si 6.3981384914505925 5.965390434615062 7.461957117087871
Si 10.14607527772431 5.078748051642361 6.2077234634061575
Si 6.239146187266091 9.55668857453431 6.779517685323117
Si 3.8952114210893223 3.9908123605881674 6.419113812186902
Si 5.921852798306902 3.459932594554051 7.595080477202646
Si 4.817974401478877 10.870535901966958 8.347225299174962
Si 2.7912530069025356 9.669713415984827 8.760479915401223
Si 7.612288929669698 7.761893084969418 8.485623412481122
Si 8.821084600836455 3.56023458117569 7.45374445806394
Si 9.806706681849567 8.527493974809689 8.702328810110378
Si 6.076392434562786 7.826212772552728 10.283928219801057
Si 9.536401283318565 6.221614062589322 8.19386139419446
Si 8.822673493880137 4.429627899007945 9.621693449120045
Si 3.6020663235077026 7.091350680193708 10.190066704184698
Si 5.275953479851409 5.799408698870852 11.327133389070962
Si 4.832361871131234 9.83789502642743 10.484246932518658
Si 2.6580510784809808 9.142063762500104 11.13645231297119
