37
Energy = -173.86605738 eV
Si 0.6868425313417756 4.301071950840436 2.397633270772424
Si 1.6446622138873321 3.7006392403349078 6.61090349456203
Si 0.7687024494211836 2.8816544066421703 4.420362311043476
Si 0.001154362785488724 5.190293144571971 4.736013552298914
Si 2.8067210437778587 5.792664042001332 6.864140468516214
Si 4.029306967725292 6.130985974178802 0.09332786507554003
Si 3.564282220069491 2.1891505010123042 8.341646785013427
Si 4.251529933486424 6.373037883778743 8.612004687367538
Si 5.796703046856433 4.945693681338677 1.0789654259560622
Si 1.7436509109661051 6.971426601086642 5.136811264671538
Si 0.6403718659216375 6.756221841304722 2.9254295889051547
Si 3.905806600539915 3.0480975504526846 6.108763697708657
Si 3.6524774209636277 5.8790558817832075 4.231442101064185
Si 2.871705267451266 3.6096903112186527 3.4119484549442785
Si 2.832200346166609 4.550162178533082 9.217463027221017
Si 2.661987908890005 5.763168826135567 2.0127842563748963
Si 5.4307942075743805 3.7923649604661356 3.0655881939681477
Si 5.48138689923816 7.730231991793295 1.2312359630972054
Si 5.193023430844883 5.226664828346287 6.04879058175356
Si 5.142246408098529 4.106911813443977 8.227820785096306
Si 5.31279509404546 7.518864833370734 3.6046028622650623
Si 6.161540799809584 9.089491127557844 5.204785332806143
Si 4.226972169611912 1.7889113932290144 2.498156713283586
Si 5.216047230162905 1.7206156777111012 4.676738691615766
Si 6.904098701020379 3.911770979939549 4.864552358872341
Si 6.310780273701976 2.507572756747174 1.1235450344802103
Si 6.629903760418767 7.062171370337256 6.41667768874672
Si 7.534091368138074 3.931512498193674 8.588804630323569
Si 8.349594425171022 6.032664178504375 7.676169576630079
Si 7.603982576753597 1.5656346812798552 5.06553230309414
Si 8.6218231596257 3.3469468900089616 6.544995472912436
Si 8.662172134455822 5.718846861823852 5.3602199886284385
Si 7.270853506750557 6.462213995437844 2.246573635686163
Si 7.857164556835717 7.721024178444393 4.236509907368337
Si 8.839061637329909 4.877877216789512 3.1435388493087784
Si 7.908618355700032 2.691738496391554 2.919888666474048
Si 1.2468611582355849 2.87487219874327 8.81754945586837
