30
Energy = -139.0949325 eV
Si 5.0377099441511195 5.863522130872528 0.39377824825221863
Si 4.688520513345848 6.874237670684035 2.481042684469875
Si 3.227003692706704 4.7361924575637495 1.6992641803163617
Si 6.826041829633861 5.2522665610765635 1.8649000765879944
Si 9.678375321023788 5.224292747948409 4.851466298253505
Si 8.459951312553354 6.521784305120059 3.145349485980713
Si 7.368456918611466 8.532064103319177 3.5903666136544063
Si 6.39668054462691 3.6406679893709444 3.4960318474620116
Si 4.078912196797626 3.824088576108746 3.6751640026096304
Si 2.6752697824533067 6.205964806257251 3.5228609197967358
Si 3.9197539102090495 3.579405725815135 5.986969661329742
Si 9.247262846211449 7.154189962059093 6.16185861095478
Si 6.267898554888069 6.1455518552865795 4.139332278971343
Si 8.787894584767832 9.362181445490348 5.36210898210985
Si 7.538871052727424 4.345928995448558 5.402881209773946
Si 1.6289601565732008 6.398440271938511 7.744773691741938
Si 5.4288233224657825 6.751877915487983 6.2569443536595575
Si 1.8867818575081183 4.083307424240962 7.101857882688301
Si 7.437130466974088 10.616415037331553 7.038756727314362
Si 3.1809766512305764 6.023285034055767 5.962227049388743
Si 7.08509366287518 8.29009703058697 6.726962264640689
Si 4.5065179401973365 1.7429264783535228 7.445291051166338
Si 2.898542401827977 2.8581803146415106 8.908902094015172
Si 3.3926081866475193 5.158067119270709 8.814026501507284
Si 5.688344457665517 5.649423989858118 8.322723264536014
Si 6.231226463880638 3.624068394247153 7.241460171931812
Si 6.470124547712973 1.7533004825965766 8.61065344776061
Si 8.691142119254968 7.156683993606976 8.389265656747778
Si 7.558031209956508 9.116334724139803 8.971359116782288
Si 7.013092167368333 6.811251074068682 9.987420242441406
