30
Energy = -140.08901108 eV
Si 4.844184488326794 7.749582313271693 0.29364642238976424
Si 3.4566319630414615 6.8591269591211645 2.013982406567546
Si 5.43360495773631 3.4062377237176977 3.5723417184614292
Si 7.193086987476975 4.556799218985821 2.248297668233845
Si 6.06608819334235 6.819296140344916 2.1835356325745137
Si 4.5627794265266 5.556023743803966 3.618964512338025
Si 2.7884888242949386 8.511023550597569 3.8515540477388335
Si 6.8408069215692136 8.776280553895553 3.5345447084007113
Si 5.951553320754391 2.5635909623134023 5.975756243820192
Si 4.674576038068784 8.997280492631461 2.414653425391976
Si 6.41423121424255 4.882291342538892 5.343945045831403
Si 3.7080741639148016 6.799861291130395 5.409506931698068
Si 4.898533088025772 8.985982187978419 5.067141350065089
Si 8.629396037589084 5.252559395631203 4.162626918978857
Si 3.9844058055609746 1.8860691714719027 4.9201392699607
Si 3.280965267016813 6.987649816680975 8.83798989151721
Si 9.793793525056115 6.3288395392683325 5.930093004205504
Si 8.550235491770707 4.2481566754746165 6.370799511248003
Si 5.07714340287891 7.80519661033035 7.2855074561036135
Si 8.070985550792788 1.8947151221590948 6.785515132547871
Si 7.339481508620845 7.122147688951505 5.199201540407084
Si 2.3744820758175424 5.616542805105345 6.95020030126239
Si 7.224282164740862 5.762979428442983 7.692866899909323
Si 3.631342576917699 3.5054007388468835 6.690971938731301
Si 6.761935068362994 2.2722604663923605 8.904187984604551
Si 7.58786734802351 8.049210960906787 7.383329006989052
Si 4.771267616704469 5.382710127093385 7.765760669426314
Si 4.4813642946424075 3.0101186505776814 8.88967768948707
Si 6.505465174859196 4.508649398033308 9.562222305666241
Si 4.23889658364445 5.039366004622747 10.276989445764281
