34
Energy = -160.18766207 eV
Si 9.032611198675795 4.869200900579827 3.756799428606878
Si 4.274511467568385 8.030814362764703 3.863492995414178
Si 4.943349727026493 3.4683376424562593 3.852124892140748
Si 8.750637521066416 7.180693434149665 4.0355043495495995
Si 7.072863966037079 4.257725328523775 5.0127069895440135
Si 5.034605561443129 5.874369185333649 4.464889290742447
Si 10.837174201032804 8.211318004548325 4.018647779916835
Si 10.455772649096117 5.884127099808933 5.433451287737556
Si 3.211288420926494 4.349051408541752 5.280682647494339
Si 5.359372507336658 9.797979923577767 5.1014364549302265
Si 7.228688723007995 8.362459989942272 5.421763736350683
Si 12.568810527994476 6.675201707537289 4.669874699591746
Si 2.723544452923048 7.029553682470834 5.343146298168395
Si 1.0583871184080915 5.339072337625203 5.288185011612041
Si 10.937237721634073 10.244015744910339 5.246607645695407
Si 10.873567660414995 8.524940246996145 8.361786981433816
Si 6.348849949376622 2.058358406054523 5.266085673540808
Si 12.005921560407195 8.387216845187652 6.243141624672388
Si 6.675825566722883 6.24961991229965 6.310307880419026
Si 9.341161230252649 8.87475205085395 6.4452725519882765
Si 1.992156110464704 5.555455724020331 7.526315324336034
Si 6.264647612465965 3.3083414697089863 7.308035195213754
Si 2.6381063574363983 7.904233192689022 7.742387363206085
Si 4.904015414024757 8.986231257632301 7.347587906543543
Si 4.029050160032916 3.9424743517128134 7.454611798700235
Si 4.6126603559067565 6.493828965625506 7.395663156417045
Si 9.81586584542012 6.623552494022116 7.580976917206917
Si 7.654537526455243 6.0052231152485716 8.435159691659363
Si 2.6508944395723537 4.0189491295514665 9.337101026057752
Si 6.94486251292856 4.020911730401912 9.571267176661149
Si 4.175035849026911 7.500789274641714 9.720364761544545
Si 6.54693873545048 8.071106931656422 8.833494478678807
Si 5.2469466446284425 9.704550802527535 9.753167074326784
Si 4.790100704835372 5.195543346398838 9.577959909900196
