39
Energy = -184.86212383 eV
Si 11.308597449976773 2.2534139393512382 4.056858217386616
Si 8.505665598716817 3.1305047141120337 2.82751755880296
Si 5.75753679245162 9.311555959750068 2.7663370965552625
Si 9.359539942445018 0.933239480282871 3.338503025860326
Si 10.009782379750263 8.614056301473033 3.899739436838669
Si 10.106858764066242 4.308664252443571 4.048600031769832
Si 4.86939069988698 7.592224228043129 4.141165257100313
Si 4.759072229435755 5.330887551269644 4.57994484247689
Si 7.692607073130015 8.222968049833925 3.6196878873340332
Si 9.793968900062653 6.464329277836459 5.014274855047677
Si 3.1476955537359763 5.407377244456761 6.307512941460931
Si 6.657805350567218 3.9545990341326425 4.3089222545130905
Si 6.196918271925111 9.987203926797475 5.009559940656181
Si 9.099733070482685 2.407593994723547 5.136844148628012
Si 1.0792642292283712 6.424156562615945 5.713709806694671
Si 2.8860086836327548 8.08161488888075 5.34041068503839
Si 8.766768399194225 9.600813798200958 5.69383518210122
Si 7.5679519839373 11.643878443572948 6.027482000188254
Si 7.200867777526945 6.202632566417534 4.714127997951953
Si 2.800917225003276 9.60958044238197 7.165640095003066
Si 7.769621325608297 6.408753089789393 6.950694384002841
Si 5.60908886506206 6.820683391030229 8.167473322041866
Si 7.4255428628273625 3.377641331366085 6.501760880591485
Si 1.9923657354575952 7.385247972093692 7.685484281783778
Si 3.745511963064258 3.7376878967422287 7.871614723234248
Si 8.878943245870717 8.359944764998767 7.693219287076308
Si 10.244455265853981 6.415686799487043 7.3269976424270915
Si 6.886935323465047 10.294834774439698 7.910538008221888
Si 5.1224667005051865 8.655088641100237 6.68302892357393
Si 5.716161379122246 2.4796445556652 7.9020340850685145
Si 4.622785174647164 10.103254309738224 8.65177545252285
Si 8.83228977315947 4.561218526452312 8.120089102533045
Si 3.4645864685586565 6.248937448772784 9.118159633734697
Si 5.460069525434556 3.9584296106947323 9.670792728603708
Si 8.37783969586368 9.61081654192199 9.645246054720479
Si 7.176882093248719 5.529202668238882 9.540446616793593
Si 3.129493284173555 4.122782204077049 10.153373182379722
Si 6.8805367349352204 7.791923014673132 10.102229891073943
Si 4.589983650067883 8.149437244222963 10.086877980289843
