30
Energy = -138.825447 eV
Si 10.016477036912212 8.82262298920458 2.5662737205234225
Si 7.912872622730189 9.639076164147108 3.357029535653644
Si 6.186286594954542 7.2511158933758635 2.0529781788530816
Si 4.973394408019064 5.1726342562863845 1.8116997135850315
Si 9.218807776375753 7.881514671442948 4.529759645229631
Si 2.681195645688107 5.271286550458062 2.619862169129899
Si 5.173239488364587 1.5474591569799314 4.471308798911101
Si 5.984091872733505 3.6291170409627074 3.6271501048069914
Si 5.967070563347429 6.0949055250268245 4.166159838709891
Si 4.164219535090506 3.267491550636308 5.849778776829555
Si 3.978306434949757 7.198513706091633 2.868184430191398
Si 10.550305668835085 10.016633050529807 4.594434029964507
Si 4.740450054242416 6.634387509756106 7.543707937108849
Si 7.362730700869351 9.914586954703564 7.719688203289914
Si 3.728733068902842 5.383492739597852 4.825410741775918
Si 8.471337866825221 9.864338856927697 5.627195945425199
Si 8.077218638934244 4.0858417410133185 4.679296330391952
Si 7.863934128323242 6.302697386396251 5.611488722516861
Si 6.668965578696852 2.701628979481333 5.9344710880474345
Si 2.5616216679692423 6.386447165296856 6.695537672638911
Si 5.9526648207593 4.4982962267615925 7.355368640038779
Si 3.510983450992878 4.515528692619024 7.9864380538944335
Si 4.103665289878317 6.855653676097613 9.944255932712291
Si 6.436929788492748 6.583856569168476 9.414785269635585
Si 6.792972148327742 7.760942212597319 7.125437992019442
Si 7.352174342064453 4.291377094330352 9.359906216526943
Si 8.04588701809803 8.305758892754321 9.30224555308512
Si 5.171076025004029 3.1356627342688763 9.372159419193187
Si 3.295716468339692 4.554876293809659 10.433117921446993
Si 5.588568234792875 4.964152658791539 11.086766357377341
