31
Energy = -146.04339793 eV
Si 4.757558652534679 7.445291963246206 1.8581347075279877
Si 6.523637292583139 5.982894101511807 2.730308346309226
Si 6.477486570741162 8.58424650515803 2.8685310383322506
Si 7.924873882080917 6.539109407836214 4.497346826093833
Si 7.785734991940177 10.404671880280416 3.5350065194249503
Si 5.1296142606291335 4.462940989898074 3.937817896103139
Si 4.226582389552966 8.186904157883697 4.141412292464288
Si 3.5126634936343044 10.233386990698872 5.095300370460131
Si 5.933105088807392 9.913755644550564 5.056555656313444
Si 4.689643084892956 6.221325197629853 5.429925063657713
Si 8.774826406946735 4.8396191305908465 5.914991259854715
Si 8.668273637536986 8.704823299194752 4.9931784405794515
Si 8.801907105822881 2.521061972007753 5.382414267969252
Si 6.53577980420023 3.30137371852138 5.45546751114102
Si 6.530572005338664 7.855779597238894 6.120305275227361
Si 5.579978793252725 1.9581157335744177 7.173513754577811
Si 7.821573767493272 2.468046250578437 7.585021739020342
Si 8.704524088713653 8.200325685416022 7.302178865176229
Si 9.977731122720892 6.159780682662892 7.571802284308656
Si 3.0376815563055732 6.529578380746679 7.118055595820328
Si 3.7340912820264 8.788842477475066 6.973717335959347
Si 5.614093100558085 6.297475787294386 7.770897299024934
Si 7.711097341584791 5.239554393269144 8.05267464543478
Si 5.562320403449473 3.8161091254803594 8.62132279036629
Si 7.719642083976555 3.5007259719670007 9.74485461046668
Si 5.700160385413628 8.80623192348983 8.293955629713315
Si 7.91550208532628 9.380285100366956 9.189647136937806
Si 3.8794951218325107 5.432663554955461 9.229693577704591
Si 9.341710652653903 5.411833259015968 9.957416901875202
Si 7.639876287642366 7.0976656174237736 9.841141127345978
Si 5.288263259807896 7.215581500036576 10.057411234809274
