36
Energy = -170.70834075 eV
Si 9.588639202031807 7.039334983373562 1.4316997785794043
Si 3.760897529743512 7.253114739166524 3.114156569559904
Si 11.314187978230116 8.220035064727396 2.8700481063287135
Si 11.308301987558677 5.730686835353368 2.701522810527251
Si 8.954099777176271 8.114073552223742 3.539853998214675
Si 8.981122868502542 5.755486844876445 3.4576496941185324
Si 4.858541269097611 5.404135057840155 4.184468232841529
Si 5.030874455405916 8.389988497767636 4.78061134300645
Si 7.114908386377687 4.8034028373108315 4.545783937069252
Si 7.295071026897483 9.162630795627898 4.861525496438886
Si 2.287429776043722 7.093991426118427 5.042534329577567
Si 10.581842427141655 6.8896514345525155 4.816240946794973
Si 6.666717523723145 6.822430795961908 5.72462387110431
Si 3.8108435157147498 3.6339116953128987 5.269740154776137
Si 1.5918127045562693 8.934051593620998 6.511248844085939
Si 3.942954175763231 9.759747008860314 6.407600150768426
Si 2.3504857922120905 5.11857273448051 6.278198797314086
Si 7.400491738068689 3.0580922850580516 6.196243608488732
Si 9.842175814648563 6.658077325948495 7.130439222134557
Si 3.570499824041739 7.390333241136383 7.125540016505261
Si 11.36333453489062 4.56187215867913 7.481973081345273
Si 5.561864318401019 6.167079596749795 7.808242676604058
Si 8.082470010091994 8.308379036699034 6.941424511618617
Si 8.929946402250925 4.4343600061714765 7.366767325121132
Si 5.296325865244043 3.769633040475789 7.0965947639701294
Si 1.570945827665835 7.39224649272559 8.545412320352792
Si 1.5377207499130994 4.919093736160379 8.448223488123752
Si 5.081209547857581 9.037610651300682 8.338968302645178
Si 11.094509918057936 6.384781031767439 9.189359902182758
Si 8.748189366331667 5.73214877295927 9.350888012686909
Si 6.721820069978308 6.841872917976754 9.729906726055495
Si 10.239141714148225 3.9145223620553566 9.493458381748404
Si 3.577089290913966 7.712319020961525 9.641258771762848
Si 7.31424362452155 9.100043710209627 9.073164733511375
Si 4.713646151428979 5.9059557939591745 10.68468952632853
Si 3.9156448353668156 4.586332921829447 8.819937567706374
