35
Energy = -165.25162064 eV
Si 8.641873959390109 7.658663930702189 1.3783205674521004
Si 6.621397020576441 8.695292867377022 1.7955602696688577
Si 4.471346393003523 9.423942776379079 2.320596486423379
Si 8.728217457480632 8.885520455222427 3.4630996999949413
Si 5.08180490637498 3.2758359666573877 3.6399940456019415
Si 4.057693324767021 5.343283753427552 4.366119764034304
Si 6.203311623498234 10.27026202627978 3.7559614391284786
Si 1.8926401735251919 4.705866935596463 5.136439401494692
Si 5.116435513389622 7.496108608967287 3.745046743032578
Si 7.416924104339118 6.784041026208646 3.3188933181595335
Si 8.302666295343567 10.891200401561171 4.7208448864515145
Si 3.012502520411941 2.5425517125445984 4.517844725472772
Si 4.780207956691179 1.7705181046800778 5.877035795008072
Si 6.74627643831459 2.865841370486679 5.25882051501847
Si 8.990040968724665 7.5417695328840155 5.425412845514737
Si 5.451109254285186 8.492992362072215 5.852961477112923
Si 8.993272691846133 3.320782262370186 5.765414481604766
Si 5.904397139104739 10.764263857385348 6.12523680070486
Si 7.679025761668943 9.104172476528769 6.610987232743514
Si 5.794985706908017 5.494384899890992 6.085909453737908
Si 7.964117871105965 5.397724173765285 5.191990552845997
Si 4.662208366499768 7.084740538826828 7.468328350930839
Si 5.167282971538434 3.4979426144447103 7.478913445048716
Si 3.47240124431349 5.0766467598573435 6.888062051113244
Si 7.759528212947858 4.153105361050052 7.678284770610763
Si 8.109030457568108 8.523740352639843 8.868000132633314
Si 8.435489296890417 6.162575700772499 8.821161383720485
Si 6.095736656686987 7.17409629823539 9.285276750187558
Si 6.567737648177332 3.068025344733783 9.39252151867743
Si 9.357207996531828 8.166411525386295 10.930208460103671
Si 6.879955867877667 5.234741759672987 10.55231597898585
Si 6.7639367498830145 8.959667595025588 10.87426383867567
Si 9.262722751803356 5.61443122875027 10.991797742464541
Si 5.392927045584191 6.942863118415456 11.56807774718629
Si 7.729524346701952 7.12192899495565 12.356234022210515
