30
Energy = -139.92665878 eV
Si 5.194100629437493 3.4270384559740896 2.489867763646124
Si 6.41839572003675 4.43613130406671 4.2803668175042535
Si 4.390230323403289 7.6910382015686425 3.0837614737358634
Si 3.905307775388649 5.318310543935183 3.348565674566827
Si 6.743008635070588 10.538512307106938 4.045150277468761
Si 6.818251732237913 8.157796276106316 3.3353800773823497
Si 4.353027333201099 2.932660102431331 4.7072193772515245
Si 5.5376240044365375 6.549297081004319 4.899609820428292
Si 8.128865279636495 9.351809054236092 5.464344854923198
Si 3.90123769679398 6.412987622840926 6.615012444606653
Si 3.620530957946545 8.546829375066837 5.293817097260234
Si 7.09743863282326 5.103839173189523 7.814089294923819
Si 8.478751602543138 4.575640033413456 5.667117700621884
Si 3.657005537416733 10.57825035031605 6.956168903818707
Si 5.6314994193628465 9.553142630843416 5.9894959178497995
Si 5.262802245967095 4.253849233958106 6.54990413571004
Si 6.6021353660497875 7.708519349317468 7.229854892830299
Si 2.7254236514306522 4.689987996962174 5.32365667725747
Si 8.835101795508093 2.8335858543358405 7.3520749593777435
Si 7.986668883252689 6.954472256332126 5.1308341496268355
Si 10.241031667597941 6.3241060511842635 5.815512024870935
Si 3.017020054928489 8.374153303962741 7.811684375449258
Si 9.961363973565819 3.5188781020352615 9.296887401923973
Si 8.98583106743401 7.9608726062560855 7.34921043570734
Si 4.877932316685145 6.9560079215988955 8.786762112611452
Si 7.510771160538171 3.4846036912237257 9.542128460635086
Si 4.373209375951167 2.061929296239454 6.990619382831269
Si 9.47381229020045 5.5476940115541025 7.978760568126009
Si 6.600992933368279 2.2092349783815592 7.787576550917828
Si 5.186094362687216 9.464289259458866 8.58003280103705
