31
Energy = -145.2412777 eV
Si 9.422028041708785 6.947215013614937 6.96342366895331
Si 10.86710844046374 6.087472523518927 4.818911129507965
Si 10.254916265680462 4.98140989135282 2.524268364056604
Si 8.644695549833525 7.537489457714903 4.70371653112915
Si 8.52561818873577 5.083822041267526 5.859113721624053
Si 10.258649135835679 7.447789916656129 2.8402754662143863
Si 7.289028591638244 8.123520483568619 7.57266327331377
Si 5.870180428389863 6.962497058330338 5.905823522394327
Si 8.242633886292252 3.9722193229276304 3.5626757338365818
Si 10.242347437611178 3.7023726824708345 4.89224964334161
Si 5.047097890657532 3.294577871851272 7.007062473749786
Si 8.125480730591438 6.273035840408523 2.7848552317393573
Si 2.6763390339176647 3.847409405082273 9.957907583037603
Si 5.279330802593665 7.125959121000066 8.306853754504246
Si 6.1740931552859815 4.68326278535406 5.469980280596354
Si 1.5887009858004635 6.057984493947099 9.013148825404157
Si 3.8964965110757097 4.964711825624905 8.301624397184145
Si 5.8781930084599106 4.070494917999461 3.142056996328366
Si 6.127745631518582 5.883865914515567 1.5550039548887815
Si 6.952409758998927 9.093872124455977 5.363884110857565
Si 2.3212857648913485 6.113592309875055 6.7700541757792605
Si 0.2241476016672183 4.3513357451989565 9.871289955109734
Si 3.379947270223809 3.1971150227962486 5.297053387664306
Si 4.800379270438432 6.580237242953856 3.328835244746584
Si 3.91658389376902 2.712053269935771 2.9934751490057256
Si 3.7575193868770302 7.9578417887620825 6.664021373792838
Si 4.660051237721713 8.6569083374736 4.521715475594084
Si 1.052757462198399 2.6940770308507123 5.839349325742696
Si 1.4412468071472608 4.882519986993295 5.008589926933701
Si 1.4166946181283897 3.7549584537771237 7.938581376176873
Si 3.126431755601338 4.921698812673321 3.408052272648976
