39
Energy = -187.16214403
Si 10.309130674189838 6.03460941873367 4.024648243221177
Si 1.7827386850587401 5.522158392116291 4.390412853988923
Si 4.69888827990933 3.938993131432045 9.521883711718793
Si 3.05942144763997 4.611709622570182 2.647361498068067
Si 6.998663729991914 5.474781379332288 2.059187924911365
Si 6.915544447291127 4.366958323886707 8.904546423749856
Si 4.6778522623415535 7.963080752792911 9.674290132423023
Si 1.871181437051119 8.400764553385194 6.724480345121901
Si 6.1823872489542 1.6699762455801683 6.520462828916081
Si 10.281710174443862 3.241387469605532 6.975802678504926
Si 8.429543030597626 6.024042115496165 9.449670149862701
Si 4.477217601473054 2.9268322799579223 7.473279864265341
Si 8.112980823169522 9.388066205554763 3.3885828747065476
Si 4.0544780584264 8.322874154817097 2.798629195384357
Si 0.6782813589629595 4.401480020065117 6.189555254302626
Si 5.912625315598468 8.811986373290297 4.175074517240177
Si 7.967624840455581 2.9146225949982996 7.436123908151307
Si 3.5397823370719954 2.5188946694389913 3.797002150426351
Si 7.577933633923266 3.6766025466097645 3.517339511295675
Si 8.312463427350307 7.043842454516858 3.1896121012421594
Si 5.572626694656834 10.011996608276847 6.222942054143751
Si 1.8112218970820961 6.108867624355327 7.51810229551329
Si 9.42115531808123 4.032033838435039 4.892774193289817
Si 6.7697854488445035 7.456771642440603 8.640900284986438
Si 3.7402965634728167 5.970270087668147 8.796891193535966
Si 10.768078686167245 7.24346670186606 6.059901578284521
Si 2.467002973619477 7.717720967879421 4.4765499372498185
Si 4.896644214932666 6.109268498215504 2.921562641494633
Si 8.914577952328232 8.706039067543566 5.5791413208220115
Si 2.756470700815 3.2393675789749388 5.969251037216677
Si 7.497954238510785 9.286566996378165 7.355072759370966
Si 9.635627224459613 5.547539237478716 7.438098291606869
Si 5.80361133327683 2.422170645224497 4.346005890633892
Si 4.049271042565991 8.814973310884481 7.548712249675121
Si 8.40006846078375 6.317269272112648 5.577523161026788
Si 4.434285897154413 4.6672271220417825 4.8813701036867245
Si 3.7547509868408593 6.706439601495062 6.22189247690117
Si 6.729353642907117 4.267860755837921 5.855093744193652
Si 6.097165529116459 7.48088535822746 6.200666238382686
