36
Energy = -170.45670976 eV
Si 6.6043301012862985 6.211593967717929 2.76877673971051
Si 9.678765178277617 8.096657857616787 3.5969984955724312
Si 6.350154867827822 1.154219173302121 4.567022980230178
Si 7.316649482824165 8.338804079203802 3.580057660376541
Si 6.5601915649167815 10.535059798895738 3.1173230319836303
Si 10.73949501029087 5.9514381179503575 3.7079122159678017
Si 4.890871020587188 6.060141045530786 4.38425505585669
Si 8.411412587490258 5.256055446794824 4.0200938359062866
Si 7.589128542223779 3.244865573155165 4.939414882917804
Si 9.958348286487176 9.541067816790715 5.378577673405509
Si 3.9627117724796324 7.975561977689676 5.326832559926653
Si 5.226505618707713 3.144621965444036 5.5223701740794615
Si 3.3244249923182494 4.4525955202290275 5.1173469849017055
Si 5.505560152402001 9.746820817390121 5.128347688827182
Si 7.874534099229555 10.601826283625734 5.124045137879966
Si 8.114370178131601 1.3687229183391825 6.401458415409819
Si 10.424674836980461 7.092049079616958 5.798452406667516
Si 5.666560543203924 1.1301616456329422 6.909510502625986
Si 6.406947525449363 10.950319396250247 6.943240119274677
Si 2.0497380972602506 7.796399599907269 6.730877469958937
Si 8.31755398666464 5.942760163366879 6.345764603717549
Si 6.4431056933468245 7.383834128478974 5.83807991080815
Si 6.813250400989078 3.268963138620814 7.249089691532416
Si 11.248887705875369 8.808198596677416 7.267763237279077
Si 3.340463322645387 5.812390511922164 7.100433030145984
Si 6.954655106405559 8.832346527081873 7.867150815150571
Si 9.1272045648879 7.828864943983534 7.929909766998062
Si 3.1905769506313493 8.107793036701581 8.797680899739117
Si 5.425485703219147 6.733149773721895 8.092470791424287
Si 6.8753712343840805 5.015638521168064 8.840885456024727
Si 9.177356467591064 5.475458030562741 8.498665738801755
Si 5.323408718172636 8.67761884182752 9.68374844554457
Si 3.128936226228393 5.219734923716441 9.40626210491014
Si 5.149999318889422 4.498646113965484 10.46257294141337
Si 2.24258600072866 7.0339822525206195 10.7161711508692
Si 4.5857841409706115 6.711638414604759 10.840437384166233
