30
Energy = -140.4787022 eV
Si 3.6133902088168144 9.170015883136452 3.8244853164912787
Si 5.4300934470617355 7.598879680760021 3.616548761850004
Si 9.368418163100717 7.971878462319523 5.507376122150743
Si 5.446221636796365 10.206651505121918 5.139632428342392
Si 4.617766120803603 5.372323756937187 4.292840007054152
Si 9.041958225744521 3.811229829770738 5.67673801354056
Si 7.925737018822329 7.999378805603126 3.482106638830603
Si 10.469945455240667 4.280884069443394 3.826878738434024
Si 2.997911500255091 3.5861432284229684 4.623176438250432
Si 8.6554410697925 5.773976032086265 4.074739866911311
Si 3.7307054014139696 7.465856494492601 5.500570038271337
Si 6.824971302862534 8.22275182357249 5.658823783258615
Si 10.646116255660349 5.867932436399652 5.676534199599295
Si 6.713545965731024 4.803515429970965 5.252008766450828
Si 7.032132227051835 2.5282545100496745 5.86875548939675
Si 2.4084627470703976 5.538077913315048 5.810547842704013
Si 6.3326221195477155 9.919219796808513 7.340182186313239
Si 5.916351719816733 3.8614094151557774 7.476341663675631
Si 3.843125328681363 9.499120563121267 7.044477288930239
Si 9.553652630129191 5.184012294336439 7.762929605251775
Si 3.587484644902787 3.702632552543697 7.022127027307863
Si 8.875624124321678 7.667421029110955 7.828840910838749
Si 6.342092365332071 6.395582487055324 7.089257112557842
Si 2.3896690545474124 5.450274402524363 8.166382796153698
Si 4.213938771946701 7.080808387432531 7.917884736441797
Si 10.011252027397967 6.568763015822171 9.619392921204083
Si 7.4907250359639574 5.062535617690592 8.869535068853866
Si 4.975305254379852 8.97808097857587 9.246385110163706
Si 7.035558164219013 7.677572825497791 9.301107921695394
Si 7.944866589011798 6.189901349345016 10.918477775498687
