34
Energy = -161.05061006 eV
Si 6.462160997422491 5.914711064081068 0.329460752327191
Si 8.154247205919392 5.471022984812936 1.9250716370156002
Si 6.520482311598252 7.400865578660253 2.217723345209279
Si 5.608947112761586 4.850922124111979 2.296140901635756
Si 3.2718501732766767 5.341464380498105 2.868287327163935
Si 8.57940378878556 7.222208885942789 3.523738241571349
Si 7.509620761965089 3.5403541868659643 3.322382340298787
Si 4.8507532891186775 6.822962557935412 3.939311681308156
Si 9.360787577727312 9.267846632725186 4.524958726882239
Si 6.185436010635711 4.94657278582723 4.901536526363359
Si 4.837143975296661 9.027405926990092 4.853632148516948
Si 8.761285548031482 5.130060485640221 4.7096032537705135
Si 7.185198107450102 8.994641114259219 5.6849261241756475
Si 3.6977149473255686 4.514086446687816 5.059901459525466
Si 7.342555499071865 6.670961128087321 6.085590608399827
Si 5.292636894531435 2.9388278412707645 5.888415398959758
Si 9.703127935319802 7.898325342098359 6.481588452615849
Si 5.586643843551612 6.516761682083212 7.763158921941296
Si 3.191408555411871 5.800819484282216 6.992425222558538
Si 9.413962950498938 5.625272320254714 6.984075733973884
Si 3.9031270376659473 8.031224198046312 6.798462879582332
Si 7.340201289451926 9.3736382530338 8.103114426140472
Si 5.077563973232832 4.140553753951027 8.037701125379607
Si 9.551825902570245 8.84684200087928 8.640720438889023
Si 7.901561368134227 6.998346762814068 8.695294936361945
Si 2.8904029490619885 4.593816863271997 9.016833234853134
Si 4.4321842325049134 8.361696901685322 9.06713685983961
Si 9.174503099169481 5.025202891668381 9.374919235020684
Si 6.667012702266105 4.9539162085446105 9.655137838832319
Si 4.217595246399739 6.270634875190626 10.051183458323637
Si 6.047843738600658 9.741118114589636 10.056458862210567
Si 9.4460784635665 7.289430362091619 10.551617427434323
Si 7.016560274105398 7.680838525127996 10.866647209159623
Si 5.818172237565746 5.7966473359864334 11.732843263754262
