34
Energy = -162.29439296 eV
Si 3.6323709129606176 4.821682757244423 6.486707802258676
Si 0.9806895595131105 7.8629811380854076 6.391567758402063
Si 2.0785649885556565 4.003890140324225 4.886890174421646
Si 2.8477707794933402 6.84006976197273 7.688724791807192
Si 0.4750399097209425 4.203732192429666 6.649734357521975
Si 2.1901967525739856 4.388993753449989 8.380529512635892
Si 12.889961190261094 6.15792111571919 6.421648949702917
Si 0.7010029037965912 5.926939443234054 4.681990391587506
Si 0.6070852819365103 6.194760095447162 8.321046232591838
Si 2.8803343408908026 6.791264080959031 5.222972452083169
Si 4.430214506065951 8.331276745734408 8.660928226132745
Si 5.116303328078475 8.898762698800091 6.43073486352781
Si 8.348196825101429 7.260180206244248 3.813854568045149
Si 8.913750089872682 9.01806513016819 5.315457028274565
Si 7.156278773148666 10.115490788412648 6.464657236880824
Si 8.863671650271707 9.01801889217892 7.69653512034043
Si 10.58777179948586 10.367273723842349 6.542399771309878
Si 8.726862918897353 11.491450794363086 7.762638554541316
Si 8.783372358743806 11.496910042479078 5.250318670891575
Si 8.274496006296943 7.253193317337677 9.176790815255977
Si 6.262840162916205 7.042600102027222 7.8512932077052415
Si 5.945606856060481 5.163018651178818 6.474752675781669
Si 6.299088011150536 7.026410145350046 5.08228599411419
Si 4.461348642248634 8.269718687465842 4.20482049218078
Si 8.040575823312361 4.129201778011465 6.496865758254192
Si 11.542025858592975 6.189719117510816 6.529130286528886
Si 9.309517014345644 3.0974768476816217 4.751952688938912
Si 9.423950233960829 5.748117681058806 7.741521461028072
Si 10.86693330969722 2.483115555986035 6.50828111679414
Si 9.279604582652725 3.0726355690601768 8.241382412917892
Si 12.889961190261094 3.8719640277435095 6.5420299562020965
Si 11.330335941892006 4.3564373760781105 4.720129374631205
Si 11.286399002803654 4.345998424482847 8.322254399084983
Si 9.449752846715867 5.746010435642392 5.2724541153298565
