35
Energy = -165.40319281 eV
Si 4.852342180024705 7.353975140560779 0.6384917358512813
Si 7.24242059407809 7.100275979977866 1.4348450627306562
Si 3.4760785696448604 5.719647223159394 2.026444569112891
Si 5.843438226038395 5.405033593013926 2.6391593557182946
Si 5.91597722298039 9.154611609830567 1.9830771412502426
Si 3.236530290916706 8.223315403487607 2.220363518465537
Si 6.635792711554973 7.493747054053374 3.701293952219153
Si 5.226746751715779 4.240996893210686 5.074856743179791
Si 4.197249056276284 6.5873278798489014 4.11406726890556
Si 4.704709956032534 8.929324927767452 4.059209075239413
Si 7.748992150747136 4.293419431192767 5.5658295670009315
Si 6.6828785849059305 3.2508002032839727 3.6032076896185394
Si 7.8135148548181 7.3421770300062565 5.722272735384611
Si 9.629057246367207 5.8417016719471135 5.5889149830606675
Si 3.654541410759763 5.520038678235932 6.200703703158954
Si 6.142540549770335 5.964701024995422 6.635444102946714
Si 5.227676725570512 9.533087254848418 6.286224278830622
Si 4.434644835838985 6.359644962716773 8.40217161981553
Si 6.563277341132239 11.52069852231511 6.510442642549108
Si 3.800949648504973 8.719295507894785 8.113461656943901
Si 9.12608719539729 5.570658259931048 7.913042932744305
Si 4.61786826366116 11.265101306539952 8.038969055486566
Si 8.055415409744692 3.2790429741300278 7.750435702214239
Si 6.993241536537702 5.982662384746468 8.917222056300877
Si 7.4892734433145804 9.331706107577244 6.96470100518504
Si 9.644563360023803 1.5234017942128146 8.272391234935235
Si 6.216749390701807 8.299795475244029 8.821148122971906
Si 10.209707287736931 3.6608432584758592 9.102182129529163
Si 7.003519528031663 10.84865980665124 8.92960791541771
Si 10.30739548361182 5.785964282167627 10.05934793305977
Si 4.909433244333019 9.789965201948522 10.062061540684432
Si 6.297879760441497 3.669522217887454 9.44523432635702
Si 8.330306185467856 2.2092217442659146 10.101926775646124
Si 8.319233233155888 4.687881593663633 10.812563158478651
Si 6.941762864137132 3.03354869418665 11.780479802982299
