31
Energy = -147.68564997
Si 8.058640988280464 9.324386223031496 5.004601921768693
Si 2.5023442376332965 6.043135356709458 4.689304708209848
Si 8.16485349568068 2.947111094909854 5.000384068091661
Si 5.832641954960208 6.094468366464768 9.561567250723495
Si 4.572922421057962 3.467054517645951 4.889597998806653
Si 8.237731807815303 7.714058545647049 7.992953742079767
Si 6.287828616573083 8.95314204919704 8.114060866190885
Si 5.125030039443173 3.9464243491148574 2.6310777476181793
Si 6.382501619509208 3.2552433128368863 8.109813558128893
Si 4.485566527943486 8.68495489393787 4.893779318928296
Si 5.053720872643628 8.228027904676367 2.634438617533176
Si 8.29084318668494 4.557829256808866 7.990013801388031
Si 3.5159064725645424 4.893204901926298 7.8065245711297875
Si 8.834654376395456 6.14893583619256 3.0066693720411792
Si 9.376960003236084 6.155181029077938 5.30814368958286
Si 3.4770334905677633 7.221185335902702 7.807755905484129
Si 4.712141375578896 4.009705551778432 9.61123271115127
Si 9.87931877786128 4.058679439343286 6.3254468548018705
Si 2.391074795624198 8.121898094515673 5.8912328640894485
Si 7.205792273480522 7.744271899024855 3.52421106164294
Si 2.4615321532528034 3.960166021090864 5.888107005370504
Si 4.643347097135022 8.140733005719733 9.614014320357027
Si 7.259981109099678 4.499514080838229 3.521574161260374
Si 9.80773433200312 8.266029488839322 6.328131185996375
Si 6.173508519173216 2.1388907336524787 6.055456691306085
Si 4.341321796161363 6.074381972902762 3.2566063983927367
Si 6.041388668495936 10.064420768660817 6.061020551886928
Si 6.628829181303336 4.592059585893762 6.023270702510726
Si 8.194315956387154 6.133274997769237 9.696118165776564
Si 6.578314128774674 7.62804052550465 6.0255583893082045
Si 4.625185182049436 6.076556317756554 5.880297255813897
