32
Energy = -148.58163398 eV
Si 7.009820789423322 3.1719534981096347 4.200918218017673
Si 9.811120768600153 5.779810620808668 3.0044991103555327
Si 12.424617559407386 8.666436537435658 10.961248340922909
Si 10.97077621116961 5.771283962462481 5.295459038660401
Si 8.12224900684117 11.002488495542737 8.117872765040875
Si 5.378207907076139 9.414597449320087 11.962218027647559
Si 10.678292902663525 7.799322065946579 4.271941675310376
Si 9.271082545528872 3.974050093657387 4.627671853451131
Si 6.522311065394034 6.59301778128904 9.0909616431374
Si 8.720403351313266 7.535823686830853 9.74472648558073
Si 6.667924029072684 10.35589009420979 10.042709477290002
Si 8.12894131090815 9.121631083341619 11.530183496596246
Si 6.8662729417772645 12.914653450175685 7.373294792865954
Si 6.932480762711373 8.088321483765327 13.416672792360973
Si 7.079764998846186 4.660823567624817 6.069490392240174
Si 8.362641633654892 13.51622778736813 11.145769893621011
Si 10.824626217343608 9.866201945246614 9.794707276106884
Si 6.456956765745781 7.192975706332135 11.352791269004914
Si 7.534171895403852 5.49108006506773 3.711121839356851
Si 8.719810311702787 13.320979777893022 8.799838277804872
Si 4.926528102726568 8.480992126018089 9.732254447574528
Si 7.015695022325397 7.0967632891482415 5.435729477989891
Si 5.280004214638849 5.920226772741561 7.093779553253108
Si 9.199580972448855 5.103366880754938 7.062148338637667
Si 6.743399029640213 8.742106423381438 8.001998077469175
Si 10.948696619211713 3.6428737363790655 6.328119307927108
Si 6.467851398481369 12.778735390051896 9.77864543855307
Si 9.073365508377554 11.349276525101839 10.370883485585633
Si 5.139593185916717 8.25140038690744 6.19618472695315
Si 9.382314466930788 8.95300287894335 7.950167654350646
Si 9.212889795420976 7.430101173757678 6.1595557320222545
Si 10.30269144913309 8.119991042725315 11.538066821878232
