32
Energy = -149.10240618 eV
Si 11.446746719600199 3.119132380442421 9.022396514991483
Si 9.008767529583064 8.76532198748544 8.310748233274058
Si 5.825833934984022 7.171751304844869 12.322547792018092
Si 9.478557237158805 2.2551863095603455 7.683256155130303
Si 8.482628816098005 3.3959026107475183 5.858125692298712
Si 8.815905649522234 6.163818619025911 5.380439770417607
Si 6.374116122869478 12.506700917513271 6.418528189064353
Si 10.367955641566876 4.392064973522931 4.962787674613654
Si 10.098076690185762 10.956691934288122 7.984095316587439
Si 6.97292669509931 8.509562066328458 7.172272619918993
Si 4.080277647208634 8.833117724435184 5.074872883623732
Si 9.149229373790522 3.740445599173397 9.372870097990136
Si 6.133348904110653 3.10049062607145 5.416583409964844
Si 5.3178545723686765 6.921578657505263 6.283002331395079
Si 10.716666507437848 4.611435664828493 7.425493104281575
Si 9.195273601840324 12.044112587462012 10.028221684048598
Si 7.535814189789484 5.3752961518378255 8.916251790888621
Si 5.466436715110254 10.300741815109372 6.463628296490767
Si 7.164860116392287 11.204993033543191 4.413044869515065
Si 6.4117698842585815 5.414389553743722 4.785826804642906
Si 6.079844298168294 4.702116605724498 7.212817512299654
Si 3.1705195618120308 7.826074596581235 7.27974956089176
Si 5.791670549289211 6.434149027315217 10.125716914419923
Si 7.614817378706817 11.676122683882733 8.363951095774512
Si 7.858142851592851 9.957471644319215 9.9863759801325
Si 5.10199997347628 8.317996091909034 8.62127113811291
Si 8.528347860215671 10.936780373872665 6.258938676582567
Si 7.668664068775681 7.055197880400335 3.5297676152910857
Si 5.878461623332641 8.900192423884256 10.785832367032196
Si 6.519289263937068 8.755494173561646 4.807644468976575
Si 4.166183989218231 5.8036763389289545 8.294772318756506
Si 9.18298743564144 6.493730880449547 7.696101613320362
