39
Energy = -184.2673872 eV
Si 8.469982113021462 7.7436117534945295 2.3973573234076535
Si 6.953848287301861 4.283690180781257 2.4508180066921055
Si 8.929061224335591 5.450418743604567 2.806796462265037
Si 6.376201313120719 6.5676267959676515 2.5977019250929727
Si 2.2512405277242924 6.719646045506613 3.4075055112711152
Si 4.295850206451046 7.52641632423649 2.4249754875531884
Si 6.390274701721268 2.5629934112029304 4.14249465569349
Si 4.974747201457672 9.068184821438473 4.050552268320758
Si 8.19644785873273 7.443388835916358 4.7522523204020395
Si 3.381921980361172 5.849526847277011 5.321704124368577
Si 4.9989227961727325 4.111511675114199 5.318699745528321
Si 7.195309870511702 5.162543704878483 4.828194825793121
Si 2.8647823158834864 8.38832892541429 4.984412689671093
Si 10.130783445291632 5.032147479579269 4.744873175102074
Si 6.7399242429563095 9.284436483504766 5.554923198708016
Si 4.980423063171179 7.630744858063789 6.211120884088904
Si 8.152276781089272 3.03127163426183 5.839947998390897
Si 10.533747085701291 3.117470221188995 6.0555763991001115
Si 10.309457980873693 6.871391656283628 6.18140046832424
Si 2.568303307126966 8.162287072948653 7.370535542220985
Si 6.295122140444668 11.223888493835316 6.945104529296506
Si 9.368598330811094 9.018645536720317 6.370941183298711
Si 1.977184022260683 5.8539306742449915 7.335553107906786
Si 4.552727532657138 9.716261368519296 7.536496443090056
Si 7.525422132112528 4.914520127514586 7.3052349332308975
Si 9.97659142718951 4.945456051168651 7.586098364201969
Si 6.347878420429201 6.8316545053059 7.992331921714461
Si 5.223973009812049 3.8513640703339966 7.587532203556748
Si 2.6737502223851943 9.99620712054743 8.944370529912334
Si 8.250036177214554 8.21352130239223 8.358510919005456
Si 3.931081540266929 5.553050730894192 8.537299254213876
Si 7.147512209517776 2.561903068816997 8.057445786501978
Si 6.629829360544925 9.849814926116103 8.91172558166936
Si 8.307359298204716 4.151863429889335 9.626020382380718
Si 10.6165096986269 4.890858019431436 9.888215196590393
Si 5.238996716735102 6.688019056077403 10.076599276582119
Si 4.6776540141062295 9.011873830010654 9.930757345955335
Si 8.92660865922956 6.595897928824597 9.953169523436335
Si 7.139658784443511 5.623632288690658 11.114750505459922
