37
Energy = -173.98303274 eV
Si 7.265653298550331 3.639425843588967 2.6921218757347662
Si 5.051132466774157 3.0645134418561386 3.690874702941351
Si 4.21279844720695 6.44860351613506 4.746348224933395
Si 3.9507170918243144 5.790811052534175 1.444591648249397
Si 1.4112198438449022 0.7383828025916565 3.192616832398454
Si 7.799244591669646 3.304917079009531 5.88681480539765
Si 4.951595591076266 0.7882099774161687 4.43589750069929
Si 7.178351527226924 1.5356288766224857 3.884802492802026
Si 0.6990258469924217 5.018157532850697 3.5138761689923954
Si 5.6270609719640685 8.289404482862833 4.1448792438781155
Si 5.087094991602964 4.369341241571049 8.191709676579517
Si 7.478114636749253 5.8360879513758785 6.474509032900215
Si 6.475329456761666 5.3839943779881985 1.0124388138604277
Si 3.483882257706061 1.350168457079525 6.7304999440061835
Si 1.4460140681341827 2.995825262066106 2.514877235229143
Si 1.9148499371749799 4.996185197124898 7.254828183899845
Si 2.7649327257701803 7.198600328218278 6.728382692309487
Si 2.937002859553948 2.955097161649866 0.739225718552694
Si 5.509413064249304 2.636166773900597 1.2476543145731689
Si 1.5793091830247505 6.443883465366978 1.7777923239342945
Si 5.4919438211575375 4.372496393934307 5.704921290603026
Si 5.179909494227505 6.478996629123818 7.039087447379094
Si 3.1891757767075526 4.693299299950044 3.4277424660817855
Si 3.758572064448014 7.979296051082484 2.7272091842613286
Si 6.556844514571005 6.36170439401676 3.1374254555212584
Si 3.633158523952294 1.239081646730025 2.36065469854897
Si 1.458770482499112 1.7008406696134277 5.392444553835788
Si 8.329502489385513 5.242247029420363 4.241721476720656
Si 0.48716483856997084 3.855125311172401 5.703296101053095
Si 7.591130315990292 4.1757837255441475 8.30144274441325
Si 1.5204694615877798 8.687874626505218 2.722079928474222
Si 5.972968154255498 2.373879677457898 7.152223906343796
Si 5.860501686670374 0.3238704404549682 1.9745410979846931
Si 3.034522363876422 3.5449161883401983 5.72975525228864
Si 2.972600943241373 3.197462892856417 8.382042055628377
Si 4.6654433802975115 4.247171949659789 8.382042055628377
Si 1.841167397631045 7.1091368192552835 4.464764895937692
