37
Energy = -173.27012825 eV
Si 8.117242099904713 5.485251924775067 5.5499735953739275
Si 6.853040639591517 6.232185057593936 7.417762366118545
Si 8.661148399512081 3.207068092579585 5.8344377686735465
Si 7.606451150471414 6.773066295359706 3.6743856491803277
Si 4.059851029792453 5.745459309219356 8.25488489667717
Si 6.04216293142503 4.756282834720038 9.15006742254727
Si 5.80803348376794 8.417093023599076 4.339270824529558
Si 7.117295258063318 4.925419091314797 2.2766477516311903
Si 4.876845049647063 7.768467616793153 6.891004646411393
Si 7.158526793790641 2.758023166563744 4.059106222792247
Si 4.392970227540915 3.2831228514587294 6.275495466291319
Si 5.297864315419169 2.363460303232325 8.546832215095609
Si 6.950908610189219 2.6150206582402435 1.7195320060914723
Si 5.659760200264099 6.122072910752677 5.167302919385143
Si 5.2193104620155815 1.6301638151090148 4.829882902212232
Si 4.181021615565163 7.292602296837472 2.933563154236875
Si 2.1529537290791474 5.009876300137306 9.459723101942345
Si 4.917754062208521 5.432124463216792 1.7879963507509504
Si 4.700941209784048 2.8172842042724597 2.706815874305486
Si 2.9520509386345353 3.0315459253651604 8.300732809140504
Si 2.2040827797318165 6.551345129315964 3.8873830348776375
Si 2.6590776141784978 7.101587427976401 6.112509207247152
Si 3.728582279930824 4.439962398043715 11.819231768692333
Si 4.075409469196286 4.753868893533985 4.1507752800538285
Si 3.880571174341517 0.5033978086920093 3.2249233334499756
Si 3.400350794392931 4.2425522963559565 9.459723101942345
Si 4.212420261192828 2.2397929328394337 10.852363758699013
Si 1.6512741787485525 4.2283575536919535 4.016979165817307
Si 1.6184711311262767 5.367224396889453 7.221023739409845
Si 0.2251552867556937 4.0395434419750735 5.853719933790448
Si 1.8486885033936455 0.6886678247404986 4.497939632199859
Si 1.898267548039359 2.4617881965359842 6.173263900019825
Si 1.422148541825363 4.747088622325193 11.027381450696067
Si 2.2130155395559963 2.7208002593171905 0.40626905115105244
Si 1.8103869239547905 2.4816771431837217 9.907336139998234
Si 2.130202251817002 2.2999857232159457 2.735655748240401
Si 6.580582911524068 3.751589206598766 6.9341915840909865
