34
Energy = -160.81134721 eV
Si 6.3816817149588205 5.655617302940191 1.0756965425877012
Si 5.491621283371825 7.685549142764155 2.0661394459686493
Si 3.5493909664099674 9.089907499576002 1.7078590284742536
Si 4.62465694530246 5.31414174292607 2.562432228561758
Si 7.469916578189368 4.894572590913224 3.1217341076125695
Si 6.845812510707111 8.311037873730571 3.8775489936452563
Si 3.073643692210054 7.048585712318097 2.8936179588495428
Si 7.212476507824301 2.814329473361377 4.427382847563123
Si 8.820673652552776 6.804213483706699 3.7814579389419287
Si 5.403727978237392 4.3765984636357995 4.588708059355114
Si 4.254396281913003 9.136641004075765 4.030852956977716
Si 9.222359399721292 5.99384825356746 6.0616681444523905
Si 7.91980672699295 4.028901664301375 6.403947313876025
Si 2.982374001222938 7.4528789141490845 5.211722269204735
Si 6.893243872446951 6.290449527575869 5.180011937327484
Si 4.462517522505135 5.923517936331794 6.1747887892623
Si 6.138611610685675 10.125033512994516 5.182523983520847
Si 5.855560919643195 8.133125817829049 6.479238034746365
Si 9.433414060139356 7.82863313872362 7.6567474792582315
Si 2.0306873681434237 7.386621702199072 7.531240505489554
Si 3.658437833761644 5.777571263038161 8.315745396987268
Si 4.191793297985682 8.185402168283396 8.18721127528218
Si 9.48115464048871 3.3524040761474896 8.175338644919407
Si 7.103963854298935 7.051438211955689 8.237428816577681
Si 6.530815928376635 4.674161856171932 8.355350816712567
Si 10.38836297157568 5.501147209072118 8.429457995515644
Si 7.959789843078746 9.066680710560831 9.456468084991261
Si 5.762009624472794 8.140620641632388 9.999991586668257
Si 11.325893537512755 7.418770219137415 9.317014984139696
Si 8.450273893402294 4.593687374158299 9.869758470332064
Si 4.659917631697025 4.185001069183231 9.78092158977433
Si 9.186133876091334 7.1777456980115115 10.348790492673972
Si 6.082689517878639 5.912110947453903 10.631792104321365
Si 8.149274831900396 5.666138673272761 11.87649605112871
