35
Energy = -165.43483983 eV
Si 5.586025213901288 8.003953981133659 2.5626680757234577
Si 7.761929273145752 8.43561168903828 1.7754863141614423
Si 8.877690974233591 6.600740200526602 2.791823228760645
Si 5.611569565054573 3.895859175488744 3.2065748718165885
Si 4.587845239100276 6.0244002087542645 3.2807016418934287
Si 7.608821716001585 4.929096319843091 3.9081110185287855
Si 8.82544778747846 8.943158274266612 3.850081021460283
Si 5.069909955995591 9.68891062004276 4.154565901859937
Si 10.468113862967805 7.3377418799424845 4.414033868320344
Si 2.4408815454422017 6.431075976521986 4.421980022274525
Si 8.107065312231589 6.899275844200626 5.269203737839926
Si 5.674507855687357 7.460013804053685 5.052356554443599
Si 4.9663492331264845 3.813053420151044 5.575608908171497
Si 3.3569447812133646 8.463494847390354 5.267338034503434
Si 9.06828396362612 3.6741582117099902 5.39904412703795
Si 7.113802129415925 9.422981032979642 5.527204890994554
Si 8.912058604583548 5.527516142969415 7.0438761274443085
Si 4.105759169606388 6.0014758227059195 6.104478484919259
Si 11.013438429271844 4.4904825661414485 6.678723189000839
Si 7.015179514157972 3.792434733638131 6.768247188556791
Si 8.058473014780965 1.6579176067635393 6.354648731640486
Si 3.9627306355547165 9.119497814368376 7.465887092317744
Si 6.2808249618512635 8.830938812793539 7.7037515123692915
Si 10.174196322006424 2.30213507308857 7.598812314967422
Si 4.170052986458779 6.790754094706636 8.382425119095888
Si 7.608928015493646 4.759105651888424 8.906152430388065
Si 6.590222674069752 6.914776896530385 9.08839208199901
Si 9.981552924870813 4.2171138578535885 9.050065865446221
Si 3.5975915334213417 10.84163733937154 9.229033795948785
Si 7.9234026971271225 2.348562947263659 8.7213545886554
Si 3.0265983156622367 8.631171537641778 9.712425347131745
Si 5.573782541167818 9.621478290144768 9.898787525621806
Si 2.6757732435147394 6.338519033133872 10.236849826946028
Si 4.803739427821965 7.18677068191419 10.831136175362277
Si 6.891161240362686 8.094840271445348 11.258825044804848
