30
Energy = -139.3702211 eV
Si 7.475662334760098 5.124409710309511 1.6233413788817537
Si 4.43749747931135 6.968558934578007 5.789816505389019
Si 9.944365730024293 8.355373066899695 2.0818194305543676
Si 7.71406205757879 7.667373317687948 1.9213455757655062
Si 5.4663068118777085 8.317120756760845 2.409851469619172
Si 9.40559575611648 6.038468941418264 2.8491842754105687
Si 5.306488117640093 5.986638055080168 2.250362522056696
Si 4.912141984601681 9.11604327038453 4.643882530861185
Si 4.261068466801323 4.57027065536926 3.746686677558168
Si 6.502580456269531 7.254223729042674 4.453763198656489
Si 8.064750812111892 3.553688408389307 5.381973251602607
Si 8.786637662174874 8.298631849493944 4.111724596141219
Si 2.626563521251889 5.635559261199552 5.087500932733164
Si 6.58454707566393 4.429574478883541 3.847982315006048
Si 7.184820602376323 9.64090427565217 5.309432214658775
Si 3.201910158989732 4.376606210924752 7.02148166232279
Si 8.558693557965027 5.869753166922637 5.115179223703888
Si 6.429871981421969 3.9548775902762507 7.068431732037193
Si 4.842926255011227 7.2577264876664165 8.076138715514412
Si 3.326561528477893 5.730760489204146 9.008456233500743
Si 7.513274501514687 8.333276300141037 7.241645748628549
Si 4.573810592628658 2.4540133000082323 7.023170761605938
Si 8.988534504732328 6.5810665955999355 7.330325662497913
Si 4.702110295810709 3.764132342212694 9.273392688485645
Si 7.032822959648706 3.7205732020339535 9.447605804547825
Si 7.010752179622656 5.909909052045987 8.54277710039666
Si 6.474300972129927 8.235200644017054 9.362858633080364
Si 1.2896230026665856 4.444674783262652 8.615665417222193
Si 2.709543480401652 2.396412287843695 8.729532375179245
Si 2.704422472138847 4.0464261484130315 10.66691867810253
