31
Energy = -145.86234087 eV
Si 7.573169384346119 8.417776649510575 2.4043648858569897
Si 8.985584958524878 6.5476691494201615 2.4261010816174373
Si 8.843847188297895 10.392013033396601 2.712076666308373
Si 5.640136540352901 9.086252325366878 3.643472834782734
Si 5.480386905541676 4.475242696652247 3.941435558732837
Si 9.739868039053674 8.441257263196203 3.702375328184657
Si 4.796038988338214 6.824809933822495 4.281776490248338
Si 7.57768945777779 5.706806593388616 4.154332309304826
Si 7.630281661507778 9.985840803768223 4.7352209306877615
Si 6.040226199467682 2.2232928705804813 5.345843824353383
Si 6.834531732462673 7.663154924426717 5.381337239363704
Si 3.5545554985205174 7.419031020609079 6.175243242032217
Si 9.352583365958495 8.406246658405188 6.019781985447224
Si 6.0348166784745105 4.554929222075284 6.34423053038877
Si 8.36736394805946 5.215573707698778 6.313529111896837
Si 8.474498620003702 10.466183835189822 6.951647224166875
Si 8.066562533079749 2.8214011481823933 6.6930548264728325
Si 10.139401524307258 6.53062682708048 7.260230827268691
Si 2.612345692805989 9.44564859717778 7.170217930667922
Si 7.016826768828799 8.624161759852417 7.590266458075519
Si 5.694771403408905 2.3390950794046645 7.654664480451061
Si 1.4631778370944672 7.263199065994373 7.552139201377549
Si 4.695075588456768 8.470483337128686 8.022559709296011
Si 8.113243084973833 6.706548672417658 8.396892129328055
Si 3.614371493915452 6.352023325108061 8.28544972489469
Si 5.190318503231954 4.633879923491014 8.691636806686905
Si 7.669224424610326 3.1041957961883555 9.028714806278145
Si 2.683365852378986 8.323094826193284 9.446271525513868
Si 7.024785449351615 5.305812595251903 9.92503946110613
Si 5.26233811295432 2.518706071394383 9.960858069751284
Si 7.314010284166894 3.2204400078797026 11.274632519711494
