35
Energy = -166.65576406
Si 10.057743330904929 6.426209852658363 6.165018051495498
Si 2.0973792974823233 5.7142785740077136 6.314388485652492
Si 10.01488736533292 7.032005222798493 8.468955249476627
Si 10.11234001861058 4.105281788512947 5.708074445190218
Si 10.18768937553005 7.855047105196433 4.2805139278812
Si 1.7105599724700642 7.623686393086517 7.754224250929728
Si 2.034874385192134 3.357912824264434 6.688945274488075
Si 2.8292278285427357 6.086934547748876 4.085991375561944
Si 8.87938547556977 3.949902781634467 3.5599034523909365
Si 8.480623321395596 8.97935487749827 5.54147104681471
Si 8.325079399353601 5.427083561900427 8.743800878840847
Si 3.1856870353671134 4.064214170710134 2.873863404323216
Si 3.3487331840132812 8.760865740605269 6.414874297063287
Si 3.7994262907225487 4.160151964386062 7.920967353017097
Si 8.548904517419249 6.320838003523554 3.4353374528066536
Si 8.22924753347716 8.37042956444033 7.7865210164022205
Si 8.757069825409122 3.383141948385117 7.624293948027376
Si 3.752339010449857 3.136277134528564 5.073057242262376
Si 3.542568482420113 8.3096143169082 4.132660810445206
Si 3.8305368763897008 6.5571984682595685 7.987655651878494
Si 6.597594763607609 5.2954109973667824 10.288130284942836
Si 6.651624206745299 3.527013695437893 4.332339012144825
Si 6.269552290900221 9.58244758313873 5.060226280402923
Si 5.068353412965201 10.334756554269296 6.906829930172944
Si 5.546936211127516 3.4105262888322327 9.17834777737385
Si 5.156326606760394 5.149805973811245 3.5336060008850363
Si 6.3305850909400405 9.318004320219366 8.66373403098444
Si 6.469158027247468 2.890713442646606 7.078072819175231
Si 6.430797924965711 7.0531314448553655 2.935879156178714
Si 5.940398890375553 7.069998185770314 8.914143801163494
Si 5.612382928381355 1.6148454124731935 5.258966749446745
Si 5.380032110255867 9.186547139401352 2.8886653083478424
Si 7.821190705082848 4.86661579866917 5.928922906181971
Si 6.997109449364141 7.052327735311887 5.442148038897669
Si 4.665979873795816 6.689751605311143 5.691795307321745
