41
Energy = -193.37729011 eV
Si 4.385477661121535 9.730082892899278 4.473899585888745
Si 1.3022977828578317 7.1785568129543185 5.090064578588054
Si 5.341688922156574 8.177514786142227 6.227176337879309
Si 3.3777240113218645 6.8053935547703555 6.241925268208222
Si 6.354970711188316 5.457260798496301 7.594588972654714
Si 1.7463554452513452 7.844966714521578 2.8118114537966465
Si 0.9490895042797698 4.865033438177428 4.865499300982781
Si 2.422163207241473 4.384874418495058 2.67753433261058
Si 4.16608216480646 4.320717777519145 6.136915373664133
Si 6.507065860415648 8.892353332832489 4.128755821698585
Si 3.8818965742962863 5.647149177393584 8.243031360745118
Si 2.014577282896828 3.3330314281533115 6.2158094951391485
Si 6.926783930626213 7.857926336894992 8.03368368507132
Si 0.8338089819221374 5.983190396273209 1.4758560921156625
Si 3.342585066345932 6.238363101163432 3.9013714594534643
Si 7.956265041224312 8.013711497547295 5.797909599190232
Si 6.280881844051078 6.096974663757611 5.176246950561146
Si 0.0404321211931688 4.130816174172461 2.805998281082544
Si 3.093678819696689 3.3610189825973986 8.406853841317691
Si 4.197829576179148 8.146651661958842 2.6183207504345676
Si 0.6017235848092873 0.3637612510369921 3.315662898240655
Si 2.984175845902085 5.6111857377100876 0.5437829463042418
Si 5.529485853074734 3.9118555953212133 3.999242360835491
Si 6.291932573550338 6.691120177835644 2.878831777331271
Si 2.1124077363132985 1.4588696330213604 4.765043060417441
Si 8.191539378995717 4.7781884385633795 6.1043268684040335
Si 8.58695356169703 6.281005557605246 4.289452130921138
Si 3.886253930559619 2.282111737324809 3.3407053013299377
Si 5.457914850120495 3.0654413550328274 7.705349255376447
Si 3.912834340640049 0.11496656372791098 5.539702774045828
Si 3.940227955954629 3.4861370744827767 0.8810583736580694
Si 1.2415385107336967 2.197471870503775 1.9112863252094459
Si 5.92581569678189 4.57712349278739 1.741408634474945
Si 4.0826881394076056 1.0537725521457748 1.2220208891532287
Si 2.891337938233831 11.310689697041207 2.9399662338707104
Si 7.655047742411987 2.9813642722433675 2.406150914207285
Si 6.0929003973948666 1.25769324930864 2.5028022917711956
Si 4.190771282591821 9.730082892899278 4.199225335887371
Si 7.488482541169977 2.902432055299051 4.826752616706827
Si 6.050839100762547 11.228779488782832 4.233373945982478
Si 5.972101681590543 1.4088654330346435 5.888029938343721
