45
Energy = -214.14714402 eV
Si 6.661433731667955 7.225779034726917 2.4011198720064204
Si 7.267222445738996 4.880692035920424 2.3653432689829375
Si 4.408631037144071 7.9646551332495905 2.5842359269329465
Si 3.996243137201729 5.750739785387265 3.452168279485001
Si 5.891239931065899 4.337637759833173 4.225796165401008
Si 10.226197419630674 6.730818707188369 3.4454163167294665
Si 8.667324919745154 8.369600121016923 2.8324610117644387
Si 9.386237558257632 4.5296248865484 3.48788110890433
Si 7.936639561666306 6.401388391446062 4.284596737863684
Si 5.06083645709965 8.300247307774253 4.872362641025427
Si 4.469197197200937 2.614581939750372 4.946622598745454
Si 4.968640855635801 6.062776854497861 5.7569906460293145
Si 2.3436617011063605 5.94385051804102 5.2585440394070275
Si 9.16697343919911 9.207342645082301 5.052632125511744
Si 6.7701635037969705 9.514296012058463 5.937022115184474
Si 2.5403568057962316 3.845845530936209 3.9284431406480795
Si 11.143772679644288 7.826146007848595 5.343665200150802
Si 9.425503771236297 4.146056742803246 5.97823243020893
Si 4.223038201629642 10.506015333712762 5.936866021366069
Si 8.387475214608061 11.266100964478769 5.971846683714713
Si 7.040465181471387 4.132360817486663 6.452697009992895
Si 1.8573323204556822 10.16683656364518 6.193126941227517
Si 8.004524523982539 7.4218115184457165 6.519878103001979
Si 10.254471011756875 6.321655791173869 6.970453533443482
Si 3.4952611599799144 4.227877554312931 6.459606490080757
Si 6.095253625734934 1.9011763468232716 6.765813754560144
Si 10.638424517499423 2.3885998916896516 6.989823509590625
Si 3.016472267205822 8.144667467876921 6.417505301222341
Si 3.043298179021577 10.478364252169825 8.259388471200984
Si 8.240728843586854 9.976821982876027 8.007412832661279
Si 10.570301992608247 4.410984883802657 8.393595840726592
Si 9.485730794693787 8.027476591271768 8.495216694792838
Si 8.387663517826965 2.2983564787512405 7.701273939350674
Si 5.470760815483371 9.883735470519536 8.096542599208226
Si 6.506390355404614 6.016948690072267 7.849917531709638
Si 5.407129414946025 3.220795643258796 8.57711668174238
Si 3.1390430313815467 3.794367999538122 8.757469588368865
Si 4.479522311626853 5.712906670789212 9.10542852867672
Si 3.8398730986904477 8.168417345925304 8.691188849928535
Si 8.395260917908606 4.6443563876413485 9.276548928143544
Si 6.818715813175265 10.63298293358638 9.864990384849536
Si 7.897128645642063 6.869635297202315 9.771703828602842
Si 6.064286828142199 8.331430450756717 10.094434014402399
Si 7.342889291844749 2.6353118437513103 9.855310607011173
Si 4.0682819708622135 7.2679254143346155 10.87130970544502
