41
Energy = -195.12075078 eV
Si 6.098752907633747 6.481516200307338 2.557312718195779
Si 5.1757204027931065 9.875808206782327 4.102024787164676
Si 7.046567392545678 8.557480563455584 3.4237395479782844
Si 6.964084511121091 4.43766628735894 3.450372435454085
Si 4.396271591797145 6.224263452123562 4.128553859539522
Si 3.4602628650883545 8.326781651080092 4.332633231132236
Si 9.287880774401268 9.280655986451906 3.2403828487972257
Si 8.600729178313507 2.9917013880291905 2.379096617375776
Si 9.16354759945603 3.9029748360415577 4.389122548130892
Si 5.8307953454454875 2.75448563392173 4.6251704074862285
Si 6.96663055688563 6.460355428927581 4.962324540822623
Si 7.940919379869814 1.5229769918014793 4.2609165253402885
Si 4.934134726883903 11.783001897551314 5.575275575042116
Si 5.430236053906001 8.117203299476936 5.9208415009113144
Si 10.71164311178904 5.589864408903931 5.1444549930829595
Si 9.154948738174523 7.391784030099347 4.648351223309719
Si 8.911852734773966 9.828781215874876 5.5708672799061585
Si 3.631696761605454 2.3779140101316285 5.49218120427406
Si 3.6836937494296165 4.786496926995632 5.869638373716698
Si 7.737246936818939 2.80800497773338 6.313760995481731
Si 6.657393082176347 10.338412078391116 6.363804635417849
Si 5.251896397901889 2.638469498047116 7.211673652739477
Si 7.772319676209166 5.10147284562548 6.923678372601918
Si 3.059464001155432 8.236418726912776 6.663588206629174
Si 9.024285488645925 8.210200149517865 7.30113001209916
Si 7.087365570148794 1.5852357785373605 8.2993656091214
Si 9.94986102942652 6.0335489939292515 7.331085538374711
Si 2.053044392773965 6.140308610657674 7.227813394190001
Si 5.456790384372007 5.062289766980342 7.5541786252379355
Si 4.093821260516746 10.253993404169837 7.289750214296098
Si 6.767558132843177 7.531273783107219 8.241195609472902
Si 6.6321853669919495 9.994535072140042 8.706087914935353
Si 3.8846704303198805 6.430635555635972 8.714519387624893
Si 9.150770344326414 4.935147537773341 9.314808187927499
Si 8.788219539614182 9.197711602675849 9.459270807468206
Si 6.993435668902463 3.8281787150913975 9.137034077958534
Si 4.8347900602487925 8.36785372842717 9.692867518390782
Si 4.53944530073476 10.69855336826753 9.597504899090316
Si 8.291528624520035 6.981837087740571 10.14116033152435
Si 4.973618981187364 4.723419145910865 10.196481759751157
Si 6.117168154953789 6.718034364113654 10.753227238707815
