49
Energy = -234.55578127 eV
Si 6.430708143838501 6.38872597916901 2.0222958185066986
Si 8.41965566198186 5.199712707278628 1.2499896089179434
Si 8.385088234311109 3.2319295305562354 2.5456425541571575
Si 9.342194627151168 8.427525411470189 3.0293678102666037
Si 6.9986131797017235 8.538700727662295 2.763169039006786
Si 4.531402261132349 5.4044685284753875 3.1119385947725524
Si 9.84114238415528 6.140617978701968 2.9513190104001725
Si 4.107720763962674 3.024984401599601 3.2707363548681974
Si 5.74401754287853 10.333045187010486 3.646209758918387
Si 2.861886225768349 7.023052827395583 3.7340378156620164
Si 6.453721509892522 2.5783043513372 3.745703433492254
Si 7.7330906478226975 6.494548871268272 4.044474975272229
Si 11.605076491808159 5.0986886341183455 4.145883515348869
Si 9.98584532735737 3.346995507347528 4.23430271819577
Si 9.361513745661426 9.163870871221654 5.256063174398444
Si 4.330717753561162 8.714561985435445 4.710234022119828
Si 7.5425750424329285 7.514182537785617 6.146857642623637
Si 7.248372201413794 10.135325009835423 5.54454008629062
Si 4.9192875950420065 6.452343287240341 5.260362450259946
Si 7.743641599819114 4.200270013388409 4.815508397668076
Si 3.9622286288811157 3.886036993485905 5.468757188977089
Si 2.4848861545435645 5.709404876439539 5.672547744072809
Si 7.570834486859812 1.8276632584375578 5.727217614380018
Si 9.968295338000239 1.765458520606094 5.998213849460453
Si 10.477998940377065 5.628594167503604 6.1748335560651695
Si 3.7446403608468546 9.287363866916614 6.940805957960771
Si 3.978290353426208 6.885609210785322 7.458476517263254
Si 6.088352971322936 8.842992069026353 7.429304434908112
Si 7.947021993270834 5.223392089075038 6.997202807072329
Si 9.80664788551424 7.725950326592953 7.043959547450173
Si 10.020551720416247 3.706590281250944 7.439995658626778
Si 1.7994382737534949 5.904373861555336 7.95848750613585
Si 7.0710490585221395 11.062334448633667 7.752067206572357
Si 6.62294667687912 3.0799930716632224 7.428829443589045
Si 4.63811038212531 11.200274631764538 8.087660648739773
Si 4.319846462107854 3.031477103607521 7.635655568886213
Si 2.0439355200155593 8.29065478653428 8.428742440536144
Si 3.884019948420966 4.971939852362772 8.858381540296234
Si 8.25516589585967 3.838909328757179 8.998514803315315
Si 5.58138678243296 7.257898903097345 9.520148938282327
Si 9.485571372087113 7.889371715441684 9.43273210517394
Si 4.751500151004688 9.941227527311838 10.059098988892332
Si 7.602063172214088 9.341074678919787 9.346160332856055
Si 3.375374845829781 7.983815030062472 10.444486388364917
Si 7.799539849165157 6.177648804110636 9.50891801062735
Si 4.185901417641391 5.774709709968446 11.11313071959613
Si 6.567587687697008 8.857788266525835 11.491633986093186
Si 6.601982166055448 6.413126519142461 11.605990950415777
Si 4.256939818647351 9.560851005733197 12.227788017855385
