46
Energy = -217.00887971 eV
Si 4.982929268791996 4.883660925734625 9.68683487896546
Si 1.901556863196552 2.1201699767881252 9.825877783391963
Si 0.7488297609060142 4.176035450069058 9.27341310200698
Si 3.8389279328658485 0.8041226307896007 9.183958620947896
Si 1.0540308574644155 0.5973848341775199 0.8661690304852847
Si 2.8064293513273535 9.513129103082242 0.012611347028503419
Si 2.7003778944134575 4.644160814455036 0.09331702669836493
Si 7.05180167090513 4.787962786573712 0.6271253957716435
Si 4.431002453909183 2.653872556471029 0.053306250780537086
Si 0.8821025494694414 8.068988261367798 1.8500585340685314
Si 0.06833853853921891 4.1386722005073695 1.0888414055550646
Si 7.630711295649718 2.881131657337942 2.2379059941344814
Si 3.0745179127977353 0.43888442378626025 2.25724909368889
Si 6.376563324530922 0.9993652027009895 3.0719661541612124
Si 5.066875475618059 0.029773010044258575 1.0390110844083638
Si 10.037731719938108 6.10615039599794 2.3674849848893853
Si 1.9424253783159544 5.883557750144126 1.953495772746014
Si 10.242516593151878 2.05910064379467 2.1973152450921467
Si 7.147655054778081 6.4671849064485 2.562076314994566
Si 5.220386019406413 3.1842150002372334 2.2503102961322226
Si 3.960497376978345 8.540484442577288 2.07530762209485
Si 4.907367249991001 5.439509114291402 1.637459000084183
Si 2.8503472855434238 7.653349581267325 3.463279847666164
Si 2.2107032660482107 2.673369368562905 1.9109479455126903
Si 6.966691003608815 4.460578390607344 3.9045943566225865
Si 5.971034157287358 9.124947498478837 3.344173027292327
Si 10.445206967740559 1.1401561772428974 4.381226930354204
Si 2.37618680597662 4.968091386214398 4.054461074206186
Si 0.8323513291828601 8.540484442577288 4.298320553392432
Si 0.05199871695900825 5.819172848108298 4.73011120774095
Si 5.032261106298914 6.631968413583707 3.7104699517835837
Si 3.883339853153122 9.953197952253642 4.261477624562509
Si 0.6980363380383444 3.439767070059365 4.78769316483365
Si 4.648161737438005 4.503153055152705 4.851341241531336
Si 4.2444960434840295 2.0063216513114397 4.143701120969453
Si 6.575704213492686 1.7536571348341412 5.377495405379785
Si 2.123232553261878 1.4650157452113879 5.294120344276907
Si 6.907799513930358 3.9540658761044987 6.2718660206855485
Si 4.622950078944588 1.402636006916682 6.565284914167847
Si 2.0608708866998247 6.745365822705423 5.6641951981427265
Si 2.0230914611587165 3.4350587905458116 7.0226161710797985
Si 9.928139422203932 2.0992133375271456 6.543737350923239
Si 10.372183078961571 4.5155013320155115 6.919207755102855
Si 3.0259586448966944 10.101221979532065 6.6004560019805085
Si 4.490387462346713 3.7298712513989383 7.18225264252675
Si 1.356789811865094 1.237815081877713 7.760442452679415
