45
Energy = -214.6366679 eV
Si 5.6576657440405365 7.822184421012824 1.9915253799896255
Si 3.915921774767089 6.188482531015975 1.967207011744249
Si 8.059865911937015 7.407269303709911 1.887593485815168
Si 5.435911067759653 4.496866535264304 2.6646760695058154
Si 4.970811306848214 9.13794771240812 3.7371414990178637
Si 7.563245936386278 5.397343901597053 2.9876249137884288
Si 5.202886840060672 6.496805323431144 4.077822875020047
Si 2.8406839370080386 6.788602178233157 4.151164335398087
Si 8.667072742271934 3.586389424184474 4.0086006052652765
Si 2.7800718659181225 9.157730696782261 4.582882349662024
Si 8.407644630455128 8.24676459131102 4.1046361171583365
Si 6.905319026430596 10.052890600920287 4.636771876999425
Si 4.82322972271104 3.046603078048662 4.385903216027867
Si 6.906019556906649 2.8562173930661094 5.450514042204941
Si 1.5231655658810217 5.201449105467519 5.368217851404414
Si 10.309954118769648 3.978347656404471 5.7081560809552405
Si 10.486663040472212 8.324049126721121 5.295500966814765
Si 7.0142177947062745 6.97136542574063 5.642294894033411
Si 10.349298309300965 6.225752798914513 6.439599035522393
Si 7.082696784016355 11.826330592782423 6.207112604208518
Si 8.062501201841716 4.918527564033082 6.099567041963991
Si 3.55433468326384 8.331554196872238 6.686553050517915
Si 9.202394762955207 8.814874581780074 7.215988718767861
Si 3.6568875287684777 4.350492852326546 5.954190230221865
Si 6.863904553090407 9.15980552553798 6.846010611234662
Si 2.3548038135689446 6.412265024917017 7.240931256661969
Si 7.417065281425508 1.4425624211363965 7.326428765239452
Si 11.409403551219835 5.985254129253585 8.611905039642899
Si 5.096365358931698 12.668566277570774 7.029039475751284
Si 4.978465044509467 6.308004822327581 6.89430605879642
Si 8.473250767688302 10.990687025471688 7.9836085474190375
Si 9.484277574321007 7.225731997057962 8.901350241118736
Si 3.652686416637958 3.016979861988553 7.938052340399334
Si 7.593662205839846 5.291249881559938 8.777763303171888
Si 5.055987539708631 9.021578305769696 8.373824515066005
Si 6.137191043049398 11.166370162086611 8.517200947310291
Si 9.081177800217949 3.0869972794256078 7.590523133032169
Si 3.5563086743267402 5.117485633112181 8.9041409314802
Si 9.794613119790252 4.380028823136924 9.378452235854594
Si 5.901649092080924 2.8344282272344614 8.499796314261344
Si 5.627622968395137 6.901040157565434 9.312040235051919
Si 7.7879595482558 7.135237268002722 10.518924228301785
Si 6.146149207566291 4.141033639053881 10.401387369906267
Si 8.284245588615498 4.85395393184617 11.210314899035211
Si 4.424746997284877 5.735898013917896 10.992755299258844
