47
Energy = -223.02559978 eV
Si 4.903111505858126 9.29998379517996 0.8688520876729251
Si 4.220970195635036 7.03447867928427 0.7190097515127533
Si 3.345759746703703 2.4181954934155434 0.8848186210885972
Si 5.9157689247004095 5.373293718001178 0.6856101431456378
Si 1.9135094241776947 6.4811195230097765 0.48566110475853747
Si 7.096818647643022 8.746221054639982 1.6718153995941571
Si 5.738507034045942 3.0535209308287623 0.8988662129195022
Si 4.303743189533233 8.977126086686214 3.1906039912844246
Si 7.820312749182571 6.528571746239982 1.4159025473569746
Si 7.288781173186791 1.8940300181875054 2.4972531081799425
Si 2.603923624679523 1.42068308789776 2.9519354420205994
Si 3.0650959401211417 9.29998379517996 3.7079482758227362
Si 2.239821984603499 8.716641913788937 4.305046773317576
Si 2.3535714928977467 4.459773088202847 1.6770399831259923
Si 5.659613856138517 6.869365695856569 2.797471794906657
Si 5.861546223348771 2.305571352708183 4.357042366476262
Si 3.571385190296118 5.621954458536303 3.6434871414110526
Si 6.513920933595718 5.245048139353697 4.340937019296208
Si 1.6845406345815108 6.943420010588252 2.8292606745209143
Si 6.498294762976857 8.885610621780266 3.9689313294407484
Si 9.490410010569144 5.685686428053552 2.818687046058752
Si 9.964742259917513 6.657692787443612 5.055750210626694
Si 2.1219112292767623 9.939924452601053 5.866494684026899
Si 4.384089228655233 3.5140459672582 2.8329488523127355
Si 0.6590577650190743 2.503831533631738 3.860712387634781
Si 1.1161889625290313 4.900389756900159 3.934774361915695
Si 4.361987429003044 0.6221777853365797 5.033065365158758
Si 7.6638801035019775 7.178074390608447 5.317415943808613
Si 8.271378401380812 3.8021119137543864 3.424206323716377
Si 2.8767941680432183 4.780841648642999 5.804553985724355
Si 2.6885073833046595 2.3975742595476 5.382096886344906
Si 0.49361599793453464 1.4832580465215492 6.056074633631662
Si 5.205293268783969 4.039877294873211 6.088948728687627
Si 2.70215013099703 7.293803982049858 6.127683298268634
Si 8.640675625727669 4.69105094322861 5.633146617658896
Si 2.921189373757591 0.07693912619654558 8.22641782781095
Si 6.757070293283438 2.1228166484712396 6.669157210806848
Si 1.7302147845207638 4.670264669144932 8.061746529661571
Si 0.6870000581261814 5.994413730866756 6.294047809252987
Si 5.2376487601361585 0.21684655461632893 7.284035860069808
Si 6.099746088200315 6.3391300181732415 6.820739708187285
Si 7.138189019172139 4.278091662207873 7.699091425168945
Si 3.9289602999470583 5.295165273971638 8.53174478193897
Si 1.9397224047025001 2.3442895952247613 7.773906231347597
Si 4.372461994951684 2.405863074661544 7.861058944270442
Si 4.3275486342193545 7.506562742770607 7.848774831359635
Si 5.405594087865254 3.762173988514306 9.580250744129064
