46
Energy = -217.15963028 eV
Si 8.11494882233543 6.197066401473516 7.256185759544889
Si 9.864908097592396 7.910184694059858 7.701370281400802
Si 9.244382305893543 1.9551587546815645 5.0439596605649655
Si 7.051641347170206 1.7945686830978531 6.421623022238738
Si 10.503302379177324 5.685285139284902 7.004435420048152
Si 7.338458916460716 3.4159951615337243 4.534081063608348
Si 9.520551652194339 6.179816789158039 4.905444793681918
Si 7.320053851385757 1.0166572157212086 3.8363817959686934
Si 9.50043503855162 4.115328701997751 3.6308775114492335
Si 9.80586591771117 9.75879038651343 6.23640399541584
Si 7.438228890354678 9.420120739122748 6.489280131300405
Si 7.237168148049256 7.202923323869399 5.149722457156629
Si 9.69669889282063 8.47471530063547 4.191539983459684
Si 6.481641425934149 11.263186757471424 5.142385644861904
Si 5.520901254870715 9.130143085467624 2.4904363510194996
Si 4.2955892259181 7.098531529994853 2.4164682520284235
Si 4.288721830605866 2.4076470904610248 3.909911299664749
Si 5.865679291463154 5.865664838351432 3.7156132918975855
Si 6.210453289147801 2.6011849756719605 2.4905203603030297
Si 7.435768549226576 4.632778759950092 2.416493293257046
Si 5.24969615467132 0.4681889627808872 5.14242684172197
Si 7.442602825494491 9.323667238392037 3.9099549198696755
Si 5.728209708041465 2.866686160266293 8.404581590304987
Si 4.494152469143303 4.5284184695569305 5.1497135715591265
Si 6.5349748588275745 4.363514556857976 6.697409921981224
Si 4.293059415574997 2.311190358603939 6.489337483791751
Si 2.0346734223925567 3.25664103285925 4.1915020177260995
Si 1.8664012106581227 3.8211126713800927 7.701403400445307
Si 1.9254038092423584 1.9725102100528733 6.23634098845347
Si 2.230910619869719 7.615982395728965 3.630875895886155
Si 5.865620323408405 5.865655952754089 9.063464839968681
Si 4.679686540056468 9.936800574901861 6.421600404354814
Si 2.879656431278618 7.716148018759425 7.943393793722663
Si 7.986622088607269 5.334166755362893 9.911454903927922
Si 8.058794052526745 7.667495762178893 9.203358039250537
Si 3.7447276087216874 6.397233198336599 9.911405629252137
Si 8.85170942168178 4.015182465725075 7.943397024848823
Si 3.616422685095829 5.5342309639663085 7.25620272295779
Si 4.411303115977629 10.714640149718772 3.8363292901665864
Si 4.392861700731832 8.315346631892659 4.5341157982159315
Si 3.67247486664533 4.063865418005055 9.203375810445218
Si 2.486938311298856 9.776095798335426 5.043955621657026
Si 2.2107754272506943 5.551496731913373 4.905441562555438
Si 1.2280667049094258 6.046040498509857 7.004458845713537
Si 6.0030882912671855 8.864668557665045 8.404588052557626
Si 5.1963861474435955 7.3678902435307485 6.697394574131398
