47
Energy = -224.60679108 eV
Si 6.037456222957717 7.036068925089696 0.35764713016188354
Si 6.103130499540606 5.218358358147838 1.9714458321790085
Si 7.581454116303456 7.50310303526918 2.0969718749505395
Si 7.583252947095817 3.496823310469136 2.719669834730955
Si 4.844194727298565 7.78684485542812 2.3908174471177466
Si 9.746341299283362 6.710312911513138 2.8936510953996426
Si 9.64356145833795 4.3774741620632005 3.505656177257465
Si 5.972954899070917 11.403977506621123 3.578382673804791
Si 4.477755160432443 5.836840175462373 3.637981519802521
Si 4.213324344256405 9.836064003085193 3.307541374680646
Si 6.703711496472117 9.09249497158024 3.6613905369184576
Si 7.6630522749977 5.698773906591409 3.838983468272835
Si 2.6803139626868178 4.392795739056984 4.206207713122082
Si 6.764408844093397 2.380566999621224 4.694160239035423
Si 4.5618492932564125 3.068912037462993 4.965045769575061
Si 2.933248635011104 4.967633159372087 6.53978858846558
Si 9.572560002152311 7.443056954748617 5.1589861392571565
Si 4.722904994869472 10.762915938111854 5.581840328674278
Si 10.355176506544089 3.515667677919629 5.711088472529527
Si 2.609507323759172 9.841803828448347 5.1164193739276325
Si 7.299037933943354 8.304769961427704 5.826515841848083
Si 6.012549897091477 6.305351181470504 5.396956218098028
Si 8.157838964822645 3.0954989273548756 6.600451743747171
Si 3.945903448781814 2.9260128915369834 7.213740540054992
Si 9.497351712433584 5.5449514733290535 6.543458409146834
Si 11.113833584059007 8.793293031566204 6.488702472909853
Si 6.103575739802156 4.259392951680866 6.470281674519492
Si 2.9300973959201912 8.86813588811166 7.305388147782113
Si 4.316207692282527 6.8061608993154445 7.186661787039093
Si 9.007346023926882 9.132520375467717 7.545378466692177
Si 10.501172541918537 7.078122876792469 8.05965230949442
Si 5.404195035251112 9.11529695742299 7.160105420978646
Si 1.9780755425335046 6.740234302788386 7.984918280717007
Si 8.029912729993871 6.8460722061983565 8.325513470689922
Si 5.610958133217621 3.3869054312522255 8.812466409619054
Si 5.771339527660062 5.8218593925632405 8.934867410038667
Si 7.836474985577215 2.4559591305165966 8.97714647862425
Si 6.554820723107048 8.96111004561321 9.179029472835747
Si 3.4842665530367265 6.379032121253253 9.79039208842621
Si 9.678583912902791 6.393379292171593 10.190249454354763
Si 8.47121149291125 10.206211101138077 9.689792622136338
Si 8.062143437014429 4.713250836436309 9.720459485452272
Si 5.291139078613253 7.698913645909703 10.677439501218958
Si 4.348754395849881 4.290873307715911 10.666100820435872
Si 8.259529925149133 8.108628511208877 10.877985918061585
Si 6.419266394974636 5.455988710893 11.32616371266408
Si 6.644254188805559 7.441586092801785 12.616506252549973
