43
Energy = -202.75444545 eV
Si 7.085244125003663 3.4946797019508598 6.486988079586383
Si 5.664582207861313 9.398626217560285 4.907020040669425
Si 3.8393132410577167 8.437347721119792 3.6864213089464393
Si 4.144783520596882 4.2290203275838545 7.321765104101244
Si 9.703250798642646 4.236391664809308 8.596949597378485
Si 7.128157594801637 9.490854148844281 3.0644558516510934
Si 7.091267690939027 5.79837424588613 5.4953707001796746
Si 6.759885397350615 3.379552603035096 3.1497035644107396
Si 5.186857904060852 5.1606545179018815 3.919197162987077
Si 5.882554831187195 8.300267740967623 8.7402857830408
Si 7.741244844787975 5.709532317643447 8.498997624418001
Si 2.530622194609722 5.106815494756334 8.916074979778955
Si 4.402102626235039 6.494365783741674 9.594656600933401
Si 8.657493684498938 3.8469937401369134 4.59257443223712
Si 10.336467853217906 5.2434381875122575 6.500099534853972
Si 2.1369377953469204 7.442444996311089 8.72245789939082
Si 10.436140059434656 6.649025396143918 2.8255236284422702
Si 10.641552200174845 8.051376335663468 4.750694418933103
Si 8.206001629850567 5.98058514569857 3.243454119757023
Si 3.0240387377914395 5.038334662643156 4.944663712375131
Si 3.1205745870651627 2.7718160345539866 5.7173135110547815
Si 7.6902442318771875 7.4994512549616115 10.167801226632328
Si 3.9510748412810175 7.881342426749268 6.115960277906743
Si 3.783270721792179 8.798712197102725 9.94999669629242
Si 6.391310286536298 5.332585630843944 1.6850672376662836
Si 0.9060324125629986 8.17678397901586 6.689942902770314
Si 5.363823566574892 2.797550104358788 4.983872394670663
Si 8.815816219793106 9.436484415178716 4.752865787857251
Si 6.31683366052082 5.433221608344249 10.690543491076212
Si 2.028647223029473 7.192350030845039 4.674887123695673
Si 10.790493053221848 4.731383704094778 4.260259205013344
Si 8.077251665187518 9.731428732647695 6.963847935996844
Si 8.748706243982333 7.377001098157367 6.21258886462619
Si 11.137679310402744 7.440103402140121 7.062410270819109
Si 1.484955034920958 5.753680045878808 6.831826964866307
Si 3.075281015437051 9.499419592850847 7.622351679168826
Si 9.40043712299866 2.5508329744452567 6.620130469730261
Si 5.402696019514403 6.319417746934024 7.152809218104143
Si 6.102525835679657 3.9129241644302213 8.777342107753766
Si 6.012954291941012 7.315392530627459 3.238208476324943
Si 8.036418487436844 2.3815559901120595 8.521756703773397
Si 5.710524401973153 10.080429697932345 7.155208056375205
Si 9.263718223117596 8.298845844435187 8.395639268909166
