41
Energy = -195.22040213 eV
Si 3.159618031924342 5.997088828075949 9.351131984604846
Si 5.004335006608054 9.661394404156491 9.290639116122001
Si 2.8852719553381263 7.219217071585692 7.181962694737026
Si 4.944243271760877 7.410907995030097 9.86373568222291
Si 4.037028847402375 9.31422852503455 7.136374420433094
Si 4.729098927622361 4.1004207304324725 9.487850831166066
Si 3.954458954787953 10.827614484811454 5.291363741617257
Si 6.722912407782988 6.4547166270912895 11.091795928516733
Si 6.2549406454936705 4.081182896688594 11.390852285508082
Si 4.053072955958471 2.2272425292421847 8.077082329394585
Si 3.9686087330956377 6.605154563087649 5.191108542868073
Si 7.368694525599613 9.63689897947957 9.027348559514651
Si 5.128543501482344 5.857396497831044 7.704320566524277
Si 4.277786190057621 8.702262454428558 4.175592543864847
Si 6.1991686161047195 8.138507669721992 7.524522726712031
Si 3.8477976810440477 4.023242933544981 6.534655270463788
Si 7.104581359863029 4.755966175562702 9.290983945724797
Si 8.205207711131889 7.529240339882788 9.604251970060552
Si 6.164531253990549 10.119989178083657 5.852717397513029
Si 2.8061959028075663 4.661602349947253 4.41376825349703
Si 9.273550193579723 3.685792524624658 4.423697774585191
Si 10.503564619633472 7.845782779674291 4.670233475757259
Si 7.94791373422356 5.451209225493253 3.541592677931037
Si 10.093988714767145 5.6423566376933625 5.5128543157802525
Si 8.785538689106712 7.60927582511634 2.993625256555588
Si 7.83282154130603 3.6801783015750598 6.384794810162154
Si 7.442090944952269 9.210516303658432 1.7235305989758138
Si 10.892870239955705 5.233634231643825 7.797012782243028
Si 9.088029463921448 3.6065622142296574 8.496100336052681
Si 5.830857588351111 2.3527541858435947 6.517109679236489
Si 5.654230267202243 5.489066265197839 2.9850483674451014
Si 9.420186113496253 8.775895920711681 6.633162496870172
Si 6.258168806180243 5.36753950103612 5.49600821000719
Si 5.4824303297788965 7.8409292315197865 2.356522329047458
Si 8.031145259094314 7.2254836934220465 5.420388796225764
Si 5.129102674903489 3.355118826049896 4.492509852688729
Si 8.538334115270105 5.88808445465603 7.541925067181774
Si 10.258030627854076 7.4719391981380765 8.492430051917076
Si 6.914997777376812 8.94642231631802 3.994480787555136
Si 4.1274101264410525 3.763391892913356 2.451681478937754
Si 8.178641692749625 10.733791236766072 7.093232063779027
