45
Energy = -214.04593103 eV
Si 6.294213180953002 8.689064477658635 1.7621630434567814
Si 8.036003991132683 7.065341376315993 1.9351490041898292
Si 7.9386143719367706 4.660090097641576 1.9300194373481998
Si 5.003847457521447 7.498501917735023 3.389753010448847
Si 9.857385030163416 7.74181351288168 3.242674261734915
Si 4.15234754581698 5.242392498113103 3.2327889123097044
Si 11.17326447784415 5.9335327169705785 3.9116045102107506
Si 6.279460212131734 4.123474910428273 3.59716946793119
Si 7.347572386675437 8.885139987676896 3.862486483959919
Si 9.986651762632045 3.897846331940156 3.22008052367598
Si 8.5877750708703 5.711678334634858 4.075104295336665
Si 9.460886320399323 9.73281570391597 4.454899137982614
Si 3.087149145879605 5.181455931854361 5.342046266914794
Si 3.818381615393084 8.85930237440498 4.952460266259528
Si 6.65540295924341 2.061520938649072 4.67005598625376
Si 2.706091315849091 7.291450811116675 6.2771035592777995
Si 3.821984456326275 11.1895081674458 5.2382686998591454
Si 5.472426419925872 5.441356172827634 5.454042267628515
Si 8.59601684177346 3.37823668287144 5.135530230676719
Si 10.649721895838757 6.280485342712516 6.255339990515605
Si 6.124280966602643 7.760429279538812 5.649635798928186
Si 8.318598138916936 6.684218401912822 6.296617227487511
Si 2.9358418085388815 4.069874934856264 7.405084142871912
Si 5.555485371072131 10.107439228805374 6.229164056445153
Si 9.762708430145011 8.716746579524271 6.627890449909873
Si 5.928687842826887 3.1624895980989125 6.70138781014506
Si 11.677427325019499 7.7562572420666696 7.765496844118036
Si 8.263722826899349 3.014356527264204 7.454151495844065
Si 6.183096131130286 7.480288765058847 8.124200994515212
Si 7.084950091400544 5.196485550058938 7.626556231980326
Si 1.4122992710902824 7.455879520782006 8.204539075416509
Si 4.331593744480566 2.4357610971209946 8.297690239060158
Si 1.3683893640842462 5.109325577141684 8.812572200493891
Si 3.681654950660844 6.415079018944825 8.480852059537037
Si 6.16951551016728 10.289731168986348 8.531055638575692
Si 9.759015719450998 6.921148904763542 8.995135958113371
Si 8.144333999338048 8.891344374672821 8.421290617705214
Si 4.734199480357047 4.4138207442453155 9.580635664279239
Si 8.945372163693193 4.633659750077773 9.183498922436733
Si 4.918190663251412 8.582167039056902 9.78136031564569
Si 6.869537334890565 5.195668964234356 10.143177780556249
Si 2.680343374459045 7.897892901519291 10.313418826313429
Si 2.883762177747501 5.458647442562947 10.705814601573708
Si 6.839112929909317 7.482664209065248 10.622878013023994
Si 9.002683925563039 8.503614891847668 10.607155679055374
