40
Energy = -190.45875947 eV
Si 5.252667173447851 3.4692648538958712 2.8298411003289354
Si 10.296453391041757 9.11768601310656 3.251726363584774
Si 8.403276476888525 7.703920022105019 3.8342724007126754
Si 6.469144569465626 9.04908052598639 4.0951729066354225
Si 4.462359379150345 7.7460984540399584 3.859957257600381
Si 4.750548588070831 10.557657869817524 3.420943109089183
Si 5.270958038506918 5.497290962521201 4.207412471789873
Si 2.6562448982857987 9.15940698097201 3.6809517050822556
Si 8.599033560749282 10.29080040750984 4.521378539962392
Si 7.569796846206767 3.6114357796990424 3.6149134973878905
Si 5.865882123984924 2.3286206121778537 4.894777028314935
Si 7.6099159138068 5.685990614820075 4.698131728022951
Si 10.015726515178201 8.478098750011666 5.512267848993724
Si 8.365653142574564 1.9461952218693745 4.991257865453791
Si 6.7953463991537655 0.1277343509940415 5.120592900587611
Si 5.701892880725191 10.875997767903023 5.629621079493305
Si 3.9528860276110462 5.2694660291173 6.20562201238629
Si 5.585451941949247 8.500191229855787 6.365061134816952
Si 3.108118620915428 8.420958487915133 5.9318928481014055
Si 7.89131356191516 11.990618760571058 6.042418124165812
Si 8.049073433272374 5.317517111100913 6.991888055653918
Si 8.811280315574706 10.034924001508115 7.088964335465139
Si 3.983962740538254 10.255278796601505 7.193606198027941
Si 6.615688371718373 1.296983879215864 7.200893367825474
Si 4.800312061793604 3.1396097781246883 6.956096488035911
Si 8.448166121964952 2.8657838094706065 7.23882296613313
Si 10.774867174173062 8.670827917884653 7.728836059422191
Si 2.0444234411180426 6.491992398657478 6.958300326791104
Si 7.351820335252099 8.525157029584234 8.099808651036627
Si 9.141713075300435 6.916437213599799 8.317764862516787
Si 5.845393382009681 5.337453370558639 7.785183475342082
Si 4.672874899240991 1.4464572512688245 8.637670890501553
Si 4.918213613110733 8.772994004826787 8.832311163307125
Si 3.8676066494827905 6.67785713439184 8.473450514534559
Si 8.25517884552626 3.9678030355260585 9.254764477227768
Si 5.905938642483591 3.3743611307596746 9.312393579881999
Si 9.146912345913 5.7852977994908255 10.505073384151105
Si 6.676520200501331 9.122410315982178 10.31966953253824
Si 7.013302367194665 6.76421956570563 10.26359030107374
Si 5.054081934203465 5.410120760853574 10.132699448023672
