49
Energy = -234.71913142 eV
Si 7.063209568959203 3.856122014438036 2.636006854766535
Si 7.662931821259103 8.271755271840782 2.4895417260546444
Si 3.8280809742359314 6.4355788827692475 2.679195265200529
Si 4.796614949763756 4.221434848835696 3.1714121734611944
Si 7.839948830461179 6.032652314250207 3.23247394635653
Si 5.461898569042459 8.099665970520025 3.313294264496715
Si 3.377196178912263 2.43726507899797 4.064887187823287
Si 4.647593446369687 10.165937068877401 4.1990892496015135
Si 2.604674576657821 6.3036339778134645 4.672722318209286
Si 7.327356728566173 3.0567997818218684 4.904678549127749
Si 8.35310722161933 9.436512467691102 4.471012847672274
Si 9.81892402732976 5.838576822393705 4.378223158454705
Si 7.530402224644891 5.3443297668898415 5.75248767292681
Si 5.411148672600493 1.6667994875784993 5.429079336773013
Si 2.067166827128071 4.123226752768753 5.3569434013097235
Si 5.339988677440992 6.038756281629584 4.76067374044246
Si 9.252125607749065 2.1844371121364308 6.152063591606749
Si 1.7388501437727848 7.842818830716715 6.258889739171202
Si 6.717500226217066 10.931655951371225 5.271676603806305
Si 3.593732179694297 9.392819967407094 6.239524549562821
Si 4.609993703828156 3.9128407874819136 5.846426727648926
Si 10.624070017733839 9.76496812224862 5.122178017475187
Si 9.81821560239336 4.480364520325763 6.236764476777542
Si 11.400335495598027 7.395770987586551 5.16299482582469
Si 9.49266672663769 8.113236256537014 6.579589517087552
Si 6.32707375250577 12.129628486096063 7.335058415010071
Si 5.860290255729262 8.617019621021752 5.733898934403172
Si 11.042774866213644 6.2227690480799 7.290619159673298
Si 4.933001433960283 10.239653563633864 7.9483702370817335
Si 4.060490048795216 6.9048021920749285 6.67876254308357
Si 6.1459654746706756 4.523764932706018 7.752075213703584
Si 10.226733517158777 10.314241605722199 7.50148975871238
Si 2.1083622618885247 6.329222465871073 8.169945745466123
Si 2.960808589669522 4.107285852759439 7.706616231267873
Si 0.6962383118562475 4.363118081995034 7.358727847599915
Si 7.834883227887173 10.401967815594082 7.7747746638164426
Si 7.3085862360763025 7.384763941794669 7.116993112084506
Si 5.744674983376963 2.015775769317327 7.801012893471125
Si 7.897585991686799 2.7898431390737746 8.0178640033614
Si 11.914982887990599 6.525536539222001 9.428796503051451
Si 10.535069875283769 8.495470547828647 8.992679173069595
Si 4.331171195055759 7.029976239434335 9.079079685233891
Si 4.3852555177566055 3.180511848041152 9.340667105823517
Si 9.511081409205893 6.137825144757032 9.520468681072375
Si 4.864644416050655 9.140122410845613 10.010526872130937
Si 7.014628180927987 8.637509689125864 9.159388556816086
Si 7.947689727514397 4.371249791201969 9.864380262928796
Si 8.861197287553274 8.1400113784495 10.566783348984519
Si 5.609077552565996 5.149970570421065 9.96919131051205
