40
Energy = -189.90895425 eV
Si 8.880917539714062 5.016181584186092 2.1339621668716853
Si 6.721118426317319 4.04113367570844 2.470728982958919
Si 8.024423073746007 7.135839964326055 3.0564565961222385
Si 5.670301419177161 7.525262263998235 3.421123333688501
Si 4.919336207993618 5.34410899235463 3.1416353800030934
Si 8.969314511841986 9.351777285149177 2.9553155223740726
Si 6.363486151490744 2.0349652454871157 3.896120808882868
Si 4.3047675174687825 9.319930750911707 4.2242452546290785
Si 2.896599021945892 4.452723587889837 4.052489808993567
Si 9.160232008408332 4.464736503369277 4.463222525947169
Si 6.662702058026106 4.345978248346897 4.887059889294868
Si 8.177379824402264 2.4712785524190792 5.521001041284435
Si 4.509605779715365 3.0664883522956656 5.0549992018574885
Si 7.899578421779478 6.475148596318952 5.41747470290568
Si 3.2417997365053393 8.211456650641168 6.21100047274634
Si 5.439611082480304 7.05728705970432 5.751591360070118
Si 7.093825174945331 9.812948036925668 4.413521229395714
Si 9.565333423421995 8.225255007037294 4.9848491818051475
Si 10.439564358883665 6.007714334090818 5.75474790421334
Si 5.477422004922715 11.287894081245849 5.024001153938199
Si 3.2695623689138618 5.7832117769659925 6.021666168099379
Si 8.623316075737035 8.792524018698975 7.1165633058170465
Si 6.586751390946494 10.14598626974499 6.92509634888236
Si 5.511757913957212 4.856180588508318 6.9403826832331665
Si 5.132710310297546 8.440839318750076 7.618067466846582
Si 4.684323513870374 2.441749573766919 7.303235349594259
Si 8.897036818438735 6.479181051506642 7.553234148305864
Si 7.0134704847034195 2.870233444901538 7.616540830367196
Si 3.2625620964621356 4.770894857068441 8.233438371074048
Si 7.208427166068124 5.346258623373491 8.70821767106072
Si 6.848040626909686 11.112025504725471 9.211133246892638
Si 5.830998904145514 7.1341809964919 9.455722842833653
Si 3.0430189006587955 2.4687155623734385 8.990647911596941
Si 8.962207755033738 9.843496477834343 9.229768136205175
Si 7.3061022432993425 3.3233721559137 9.9410792345474
Si 6.988749529508323 9.047200747465151 10.340433364669732
Si 4.913789383026997 3.689359589813037 9.896057570428876
Si 3.964144992572661 5.835191324196635 10.216272307377274
Si 8.85239836988783 11.980934302765014 10.15901809558777
Si 8.683313412373607 9.990355042726911 11.687878428594326
