45
Energy = -216.70913677 eV
Si 6.361540512739775 6.580509931710719 10.161460572055615
Si 7.1703449741027505 8.602656491528663 9.28584441128994
Si 9.673155476255678 3.580153209802556 4.787838310243322
Si 8.036528078475454 3.0423132375261295 3.234765378930332
Si 4.013426420124192 8.56598211777737 9.261060605134583
Si 6.520917091578841 1.357414768009844 3.948856035056898
Si 2.591758549272605 7.284377839117449 3.318960336218192
Si 3.739459952053128 4.879077684246159 9.54646055953923
Si 9.127112892123654 6.513574857714466 6.941935103615074
Si 7.5214239256788815 4.502175553750201 10.321683439211021
Si 2.3837563825281913 5.652751934630391 7.0106695236542524
Si 8.2438990202013 6.766532973831559 1.0467192846096045
Si 4.9778780238219476 4.145286833679851 1.4238606028971972
Si 8.337663291031783 10.174542946351346 6.448092584003489
Si 4.617309273791797 10.7237707779832 4.820849063251457
Si 2.8185498513902862 3.038395643259192 4.67447285921361
Si 9.185112113715512 8.651644036665123 8.05276269869361
Si 8.978356744421532 2.6993423064782482 6.876971353421448
Si 3.9000333259988307 8.45449110033246 5.000790322203821
Si 5.11939936864639 1.54621685577042 7.94949290648617
Si 7.213463620909137 4.769058695594167 1.9191691604146845
Si 4.948818437531478 3.091161914682216 3.5650468282186254
Si 10.086770174697156 5.905183447455691 4.854013026171409
Si 8.737219413898158 4.622005053137288 8.259296178053606
Si 6.236604493554201 7.769892891765875 1.9348735087646307
Si 6.17843039961292 9.5441945443923 3.445024466207061
Si 3.429635748030432 2.9740088952034416 6.9971722316612155
Si 8.840394422439825 7.128681921393302 3.2855796147031744
Si 4.1091047083804675 6.800866355837147 10.92482839177967
Si 6.706689193178454 2.0621137274958774 6.22794304488127
Si 5.600500431927413 10.416589619915111 9.133772892418355
Si 5.622766872592028 3.481147116201319 9.280095955080006
Si 8.261595145033509 9.158645672469085 4.316780042099596
Si 3.230414884017208 7.851292830877676 7.2208538666261495
Si 1.796281217016345 3.970093568959638 8.50018218170416
Si 5.955905257077891 10.14717142202609 6.755711374736032
Si 4.494678756955012 6.291884411863129 2.2818850618761144
Si 2.1403958097338522 5.339121251928789 4.714740212742182
Si 5.564000739761464 7.269048501182107 7.8765555977398
Si 7.6255046494086205 5.280769027919019 4.393660517340133
Si 4.442437451658355 4.890801980307398 5.188828437280379
Si 5.144137660366554 5.016529808565005 7.4606608162151655
Si 7.281252689387037 7.969064116997723 6.359218974208626
Si 5.745103955570146 6.96935990414634 4.369457733917843
Si 7.150428687982609 4.3802623081928145 6.481264024104202
