43
Energy = -202.98312563 eV
Si 1.1666355650863065 5.0161325597660955 1.7221315352583648
Si 4.458580813214861 1.7345078236230291 9.295245025821867
Si 8.320523833478056 2.098304066950712 0.9732494004168947
Si 6.453789309751669 3.1754760366044823 9.57929057723171
Si 4.5591520753522765 7.367687755368798 0.9320074640310629
Si 1.0972185247173658 2.897472582457382 3.6204399474566897
Si 4.3433358651779805 3.3435777654207257 1.2377340276028526
Si 5.841765496216596 5.287457575230775 0.9058989119048905
Si 9.200107458978252 4.807890942011962 3.4919545230928684
Si 7.200168371671629 0.3387581415087172 2.1314258868899043
Si 5.664404541124289 8.297150346067172 2.8956891508016227
Si 4.905182958749988 0.8482932145349363 1.934776623127318
Si 3.0076756096094446 6.366978078167181 2.502290991147105
Si 0.5759269694130548 7.035548682129729 3.0787986189186487
Si 6.406231813761721 2.6871073153562044 2.592661449386325
Si 3.1403853497485663 4.038426354950708 3.141886822135333
Si 7.236096186727176 5.186208692613669 2.803928133027129
Si 8.760774725021916 3.3333733204056357 3.0367120955345532
Si 7.383026221858542 9.455530853275613 4.530101373899095
Si 1.3527851309426961 4.929077980864326 5.142217015442886
Si 7.878296498654662 7.171138042807888 3.9702157506309854
Si 5.341339159758959 1.0528864801064186 4.349741694609619
Si 2.4119486471335776 7.0644491919136545 4.700651056003441
Si 6.945408298402531 4.0340991054204265 6.01194791971149
Si 5.281500323793444 4.335935191125309 4.323823657331059
Si 7.666186405094121 2.1119376526253215 4.762674938813844
Si 3.951838825911096 1.6602399491162634 6.255014759670802
Si 7.130218172792957 9.427291400264764 4.444623712437693
Si 5.488612330171687 6.624455899838421 4.6398517352629325
Si 3.6332701563407905 4.271221652426893 6.16252898132189
Si 4.213507406706957 8.731633677009663 4.747332126675446
Si 1.775285235998656 2.66703314059706 6.189592738380084
Si 2.6281399996695693 6.542861508585945 7.089578481257558
Si 4.540415300049213 1.2565990521290222 8.564242259959427
Si 0.38610304675403034 5.579123697091315 7.3229798732426366
Si 7.5316528410612635 6.451332719466319 6.203215449135251
Si 5.473161250155608 3.2722253666334344 7.683769195875643
Si 4.232686788747828 5.161953627853957 8.457850180874077
Si 2.8570130872775668 2.9927762725977285 8.519917696877215
Si 5.730426864801051 8.102977417165809 6.544694920743183
Si 4.245573099075637 7.629214961034652 8.475234810086677
Si 1.881302132039675 5.146248667324401 9.295245025821867
Si 0.4970135921668693 3.262071522718791 8.238337421186216
