44
Energy = -208.16580458 eV
Si 7.400196869336867 10.077519443628917 4.766048751308147
Si 9.085024712955482 8.299830659002534 4.966199220792234
Si 7.565606575614909 9.02865250619566 2.601988219211768
Si 6.540286810065034 7.805482455935658 5.708030942644638
Si 8.437481212097829 6.398128598424757 6.2950365990287205
Si 7.402121586344863 5.514604513129213 1.3884415818679932
Si 5.100798721896913 9.0787466244303 4.221367049717053
Si 6.010361769631143 6.550546558677827 7.94407223801364
Si 8.568016845687925 6.837924222009443 2.9728898288204495
Si 5.511005538640734 6.665336349778101 0.6671397562542489
Si 4.93228119038248 8.794433609967777 7.557608456204712
Si 3.552015616859238 7.7821834571132635 5.702564981838864
Si 8.406804025420962 4.811193262439171 4.532143655307577
Si 6.111182469528283 6.922496380839207 3.1444977634917475
Si 3.7666421059822333 4.996140487488061 0.9047047546990021
Si 4.416905843908694 7.503756132132109 9.60948557914779
Si 2.5483883795939857 5.67997706455474 2.8878955367833874
Si 2.6217696359239717 7.298343575853501 7.960265892044774
Si 8.095374733849665 5.547810735961925 8.470030784832053
Si 4.638367402287855 5.669160063114672 6.115306648571123
Si 5.0868864663620466 3.3072781237958857 2.0386791527232955
Si 5.309396972133312 8.793047083406677 1.7635606861656583
Si 8.861098142867368 2.7901384154407687 6.06169463754106
Si 7.881646270864065 2.67469172680892 3.4877364693860686
Si 3.9762450016659248 5.246817259249963 8.57659164143735
Si 6.245297803731936 4.025223486933335 5.132074219491117
Si 1.5898479843647066 6.998558765776216 4.656850331789822
Si 7.331545903009861 3.1603800243336493 1.1919489527339442
Si 4.716918372104231 5.137198362980203 3.5857710799630733
Si 8.353870084947738 0.7513829259497753 4.855492222954467
Si 6.991401821795365 3.6401208621218553 7.424757241708428
Si 0.7434216391176476 5.198671730625805 6.060625091658081
Si 5.936682950304879 1.7018613473898236 4.552504253083198
Si 2.946107973563167 3.9533880173527005 6.451028271277705
Si 4.2958385925216165 1.199493622205206 2.8893952490439605
Si 1.4654795485482925 4.883748135135213 8.371050896767473
Si 5.110719672396217 3.014014896779373 8.752433506929535
Si 1.703338899625582 3.8823198975554183 4.113794611894232
Si 6.754134819307893 1.1077541216845217 6.727315841799713
Si 3.0735561425374955 1.9148470061416742 4.7887227190368735
Si 9.085024712955482 3.672697862100983 4.7084993289557815
Si 0.8420639875628616 2.0987432155739 5.813953037235367
Si 3.863451926012359 1.7913047898749488 7.1028148691267745
Si 1.6815078204833154 2.3801680527148865 7.976014470639242
