40
Energy = -189.65910828 eV
Si 7.485083292857383 2.7572392632243266 1.414079509757635
Si 7.8853750247954215 7.038012403837943 1.752941748173269
Si 6.77589722531019 4.952794622782925 2.1758394743373524
Si 3.656375854388821 3.1313577624488445 3.9186759791577934
Si 5.783314531150319 2.820242312720903 3.026018969310885
Si 8.706942341289826 5.806117729712847 3.5947025427642574
Si 4.916105848509046 5.195388686013892 3.7651274422680596
Si 8.3850760644314 3.4315303990290484 3.571330917711394
Si 6.791355410375357 8.125171449473493 3.6498179174318253
Si 4.448491610083192 7.51958791054023 3.736460355518787
Si 2.5349847162196557 9.174269296336385 3.8210691081030332
Si 5.408049112989713 12.435703713029241 5.0197954556113045
Si 6.383094272165569 10.115450353133113 4.87417116415647
Si 7.273912876107389 3.0962569477071327 5.6360898533519705
Si 7.896375896194821 7.008246772470257 5.427241865482348
Si 4.962052375772729 3.1274174976223854 5.9269822391869065
Si 4.03974062930943 10.460351908842634 5.031579228874248
Si 6.244062250802432 5.378153999295717 5.745733762245191
Si 3.726300475522615 7.268644800658994 5.959982870104294
Si 7.170001853595367 11.836090276968317 6.572569715329655
Si 2.2049578683011757 9.01634133441261 6.286972512090454
Si 4.785914277331171 11.478415565933902 7.366784200481314
Si 4.096917636026004 3.4616953900031966 8.149706707801943
Si 6.548471059323238 9.594836772818628 7.2339718860306395
Si 9.947436884463146 4.921272859624648 7.903261449750348
Si 8.778163200117415 6.986679989050338 7.6186122024716045
Si 8.181048556881562 3.3169799757170857 7.7854477178615875
Si 4.517797791271969 5.708687989150066 7.538713779570558
Si 4.305201238827182 8.97976639626421 7.578879876383609
Si 10.06270360514024 8.427155994241707 9.008233537236984
Si 7.756923093278782 8.753473064103302 9.121041958944845
Si 6.6338530365349015 6.360136101085192 8.631291047565538
Si 11.326585631180274 4.553249232651083 9.872736626553499
Si 9.705582630445205 6.279630600897415 10.141054121530598
Si 6.2975766528135475 3.900289555443219 9.086841067886134
Si 9.19634381834599 3.4367649627834864 9.916302642423384
Si 4.226300976232308 7.341174700161799 9.365040320408795
Si 6.233765020687798 7.7259153186646214 10.663906389780736
Si 7.509051699092485 5.675426513744467 10.820743905414432
Si 7.190862664789297 3.382128580354738 11.268296933891312
