42
Energy = -199.86616794 eV
Si 4.690184291331749 4.945455993194619 0.8210726681733047
Si 8.590029754493269 5.469371289021467 2.7079382608601974
Si 7.292603223125994 7.524489974547353 2.9271736738715908
Si 4.618305531690588 6.73235969010394 2.3671772825941937
Si 6.6755952387189375 9.922267114153907 3.3184301365261653
Si 6.325906852130108 4.584834863742431 2.52885386180742
Si 4.469899390006416 9.150374879116871 2.740835022366158
Si 7.7868574529555845 6.733279387224253 5.046736548527149
Si 2.832444539748003 4.588979219510574 2.4013099287020636
Si 2.7809846232380817 6.290342410210896 3.9293124170455513
Si 5.556535595129876 6.100143936198187 4.533628909856438
Si 6.278289403274695 10.78629096044572 5.594927980897444
Si 2.965882722658298 9.359438900453307 4.486546873878298
Si 5.552325678575396 3.581126653314413 4.4519152864482345
Si 3.9371115616309673 5.664310668183307 6.291593718202887
Si 5.312035917789941 8.57325446955751 5.125725843743448
Si 3.1598574977898912 3.8181242908035875 4.783088230213907
Si 7.215823061761101 3.928580267924024 6.12542168362965
Si 1.3133654378844983 7.789280969098564 5.06236122899835
Si 6.600190725806833 7.5398126721080985 7.127638852124206
Si 9.1519614910787 4.780278082615778 5.030834919977293
Si 3.094994469795317 7.86415383727864 6.703235667306736
Si 8.872925593106226 7.769762235633135 7.768738144230277
Si 4.035213638115177 10.428152379998185 6.290470245651217
Si 10.155510381313091 5.956282562647576 6.870518840643642
Si 8.006518670003281 2.662074244016737 8.050138571461067
Si 5.943665695669474 5.3139828820842325 7.529558722426296
Si 7.3987864690669145 10.067567568880467 7.617134106095477
Si 3.2571506790588027 9.553563752732734 8.412405266581665
Si 9.695885010125862 9.994869909243366 8.138745707936309
Si 5.583390989628852 9.077623037018085 8.741723973362202
Si 10.252887311098474 2.7654181655611474 8.875598782528872
Si 11.582017181921845 4.976204689945925 8.606976562332965
Si 8.950150792674714 4.914998566442268 8.674137495096486
Si 6.525882470970208 2.164264352509762 9.891085581074444
Si 6.431188984333104 4.54536230324158 9.747052439817192
Si 9.190501206650984 8.566950211321755 10.043927973329483
Si 8.639650196087985 2.9818407470518067 10.615640249743915
Si 6.995005942833699 7.748176731438207 10.045271536971995
Si 10.359725130920953 6.429629311392561 10.23254878527637
Si 8.554332102603812 5.282969172318139 11.160583271415307
Si 6.3684270932081715 6.073756647722281 11.581984748281352
