43
Energy = -204.55813001 eV
Si 4.338008157583048 4.526974863838792 10.647070055203802
Si 2.662844272262632 5.249698769494867 9.077260428541651
Si 2.0571902681772807 7.560654833896144 9.637714080225617
Si 4.6215903742827305 2.252715885955756 7.68517123461553
Si 5.836336295831745 3.317608576398982 9.364387114938861
Si 5.745088911066721 6.381539488535866 11.246799346197136
Si 3.150200985927141 4.003025954653428 7.055376750217258
Si 8.168754250269075 3.4253744578682768 9.478298525547656
Si 2.553150968844607 3.474184768694148 4.775511384028918
Si 4.436763757476053 7.974944634347985 10.047993637935212
Si 5.345829174602945 5.88001321120341 8.822202384037597
Si 3.533158285979408 7.2063395719069865 7.8315555878509215
Si 7.56877556969653 5.757142335198247 9.743057125302137
Si 5.622153046400244 4.40052489030386 6.68699717181214
Si 6.216133362822499 2.016941548958018 5.927902838118107
Si 2.6719286654822505 7.665367423813354 5.651180551839646
Si 4.962102045701478 3.4747398383117996 4.515003477831129
Si 2.95941305446255 5.7380045785651435 4.299674786198723
Si 7.788714708593911 3.4988228933597183 7.104935521434708
Si 6.28710919500033 10.075722012196994 7.303525271037715
Si 7.8197134064060565 9.241782400421073 9.175697874110384
Si 10.249310245911346 9.250699374824432 4.5054908890281355
Si 7.89404720335038 9.589107024140775 4.03246554388092
Si 7.376564793585529 11.585242962537023 5.767210332327713
Si 9.451351408373982 6.180415662966092 2.5865982516487254
Si 10.363297834963662 6.894755928951383 4.6038278467077784
Si 10.809455350362816 9.447733596772345 6.870575551083721
Si 7.50876301786072 7.55626717840473 2.6452536631767143
Si 11.359071304065726 5.509620278880914 6.22130365179669
Si 5.929079851507875 6.33841606243283 1.2612118645737311
Si 8.793355975274434 10.558766093751286 7.45670989502902
Si 8.611291132551193 8.342330244303037 6.171515083373713
Si 6.120620325712545 8.701909444995778 5.46023008162514
Si 10.188162457840631 7.18672634558229 7.532683227201148
Si 7.797620305089748 6.065242352466561 4.564198096444619
Si 8.651109967233975 4.058998778885575 3.254577218085887
Si 4.109153246264189 8.938999409562872 4.230228046893375
Si 6.379570969336995 4.729052324877561 3.0492868170742025
Si 4.430506373384605 6.933498540961496 2.97645016563222
Si 9.285580098988246 4.480929936619769 5.581829917472194
Si 4.978670522376508 6.615221641889968 5.392838504107083
Si 5.658028475437412 10.014458840111836 9.58621722717003
Si 9.199701550859894 7.38875620535927 9.661254145843722
