40
Energy = -190.47870482 eV
Si 7.023057871871337 8.980275085681706 1.3093339414376663
Si 7.439638825340437 6.872446196558034 2.2465111720663944
Si 6.083648911235999 4.8879058697299635 2.382685165262659
Si 9.616602327335947 6.519472702916707 3.1882745246757174
Si 11.21516558035483 8.204611987013969 2.8424154546712828
Si 9.020476286429577 9.201015472505079 2.6251601471684953
Si 4.188477635143684 5.681890304525418 3.6703719539882655
Si 9.730740231808387 4.370883999183054 4.282179222757275
Si 6.483786185277131 8.831977226600213 3.655360674094819
Si 7.344083037079762 4.128077102152767 4.302672789322994
Si 6.412625424314597 6.361316414067276 4.435161574201886
Si 4.424512387730495 7.879017420572484 4.517284899230916
Si 10.105222808329886 8.335548844529876 4.981754265794778
Si 8.797450775258492 6.26098229583761 5.628158470227996
Si 8.303373475785726 9.929659488712096 4.785665675437501
Si 4.093970115937473 4.532178368359533 5.7615223349910485
Si 6.141162023442553 3.3945400928566354 6.1355662784017415
Si 3.910675183331978 8.105887469161754 6.866232287819482
Si 7.169666638312699 6.929569344375291 7.273061083983673
Si 1.9626551664055722 3.7769230012804713 6.505431224365441
Si 10.432491395857399 4.730287318120597 6.630644793060365
Si 5.018259559047115 5.914493610204222 7.482725112995098
Si 3.098255507196203 3.345088495680246 8.49418900151825
Si 10.75243787978702 7.126457162163953 6.959171248104882
Si 5.184034834398136 10.014382927607864 7.522167413788924
Si 7.422926328015345 9.464690648174837 7.069207637539102
Si 1.7771022286470202 8.064622746497674 7.937090912066478
Si 1.7535134222099147 5.639759041599634 7.962762734185191
Si 8.292066198850733 4.463423903234822 7.698585016097228
Si 9.14792894964621 7.9348184208697035 8.573383133963324
Si 7.004348109071277 2.53747095308437 8.149014142538016
Si 8.61895129218444 10.19704202029776 8.992442827539463
Si 5.481376375115348 4.103780594276543 9.192768921953567
Si 5.800490246750287 7.231986907333238 9.927563801093209
Si 6.400701871851489 9.434382588314456 9.454338251522984
Si 3.512894517698607 7.005936345044904 9.228120618457307
Si 8.21068661395328 5.994984038136088 9.465987487375171
Si 2.397947262848633 5.151684339311015 10.181197212756599
Si 6.56066024511765 5.327852526137906 11.049884261768392
Si 3.6838106393954284 3.1505510956585243 10.651826700144214
