42
Energy = -201.07888454 eV
Si 7.121238872182918 5.1962792586521305 1.8535932043796557
Si 8.186731259920991 7.292920545330998 2.363722013355555
Si 7.359413003969652 9.318069228685314 3.174266234193025
Si 5.14208538522742 5.959702448406146 3.00603604437296
Si 5.138112434488688 10.204957800008252 3.055573812681009
Si 4.228681097319294 8.060417890884825 3.509574414003377
Si 9.996773870813845 7.896487397000563 3.7723695257945327
Si 9.547740112295559 10.256663133134026 3.720519703906878
Si 7.808784414226962 4.532632159719142 4.03583837199926
Si 3.984170757078756 4.640900069912627 4.529101017204882
Si 7.663324680967821 7.4536051320532755 4.79377422140701
Si 4.690113464705448 2.5432215613793616 5.296706339126816
Si 7.007384103044368 2.1767014799644673 4.545632624968709
Si 3.3078225014760547 7.850994148986437 5.664929873936561
Si 5.446667569522522 6.646569705173197 5.418270171131337
Si 2.4909281342167513 5.667102195691137 6.041944702358259
Si 11.51884758812944 6.657923515233208 5.214207656450213
Si 4.976069714080701 9.950697523788131 5.408561384246186
Si 6.359594023671499 4.173771834473343 5.901555329481238
Si 9.681811001968656 5.186283399651254 5.38879900818583
Si 8.834656847227105 9.343558482103877 5.782979475974056
Si 7.744780095663614 2.202908329068641 6.811835146874823
Si 2.94613281910509 9.964062482507975 6.666546613695392
Si 8.182213141507564 5.81196052349461 7.278464608943463
Si 6.828222608769188 9.77554397612925 6.8662612018545826
Si 3.738670956206373 2.2131937746798602 7.595963424045698
Si 9.965353490263393 7.5897113680152115 6.840085065776774
Si 9.542082075408867 3.6847083880465017 7.214256777095159
Si 5.948043958649788 2.7808631360074405 8.154001147834716
Si 5.94905238919753 7.911026416258404 7.993654670835354
Si 3.55007141329971 4.618495079320121 7.857248770166727
Si 5.855622245289664 5.486126545374143 7.917273538201847
Si 9.21643526177201 4.765433598876353 9.31541690938469
Si 4.198837955715429 9.359508330938754 8.664872431944932
Si 6.394865541193451 10.258045464017547 9.182139970473912
Si 9.278495483649202 7.147673354146539 9.111047010974424
Si 7.180211963402121 8.108750653225746 10.01896911356514
Si 6.947078391276659 4.127690131174024 9.772994157541916
Si 4.239616938884527 7.6237002394554745 10.24007051031272
Si 3.3744673487613523 5.461641080520905 10.09320846617007
Si 5.5269686697988805 5.511514479991963 10.920699324801962
Si 5.901826415652113 7.5879837385194735 12.007036010348175
