40
Energy = -190.03261625 eV
Si 6.60597782510247 9.037072501559104 2.1413949427328376
Si 8.728485092180238 4.471550737070779 2.962901178233263
Si 8.898876454863176 8.450884912874619 2.475365679454549
Si 6.381436472464525 4.735948996491652 2.14538321455886
Si 5.791700536077593 6.910222705769293 2.901084557509758
Si 5.694516450510123 3.0879616292549383 3.8533728862883434
Si 9.360228786404237 6.597118027265893 3.9160397296782
Si 7.935711741126604 2.8042496223063096 4.5685645471367735
Si 5.942184484623739 10.402561550007219 4.0950332413454005
Si 3.597643098599784 7.486016892697208 3.555629379651501
Si 7.271142147909976 8.228956382458907 4.392424517062927
Si 9.627864177213484 9.225949953952261 4.561936744334404
Si 3.5852219781139003 9.625804441952301 4.767632583221447
Si 4.345910947595366 3.861650548374769 5.597552804332118
Si 11.191766391836012 7.465595705451491 5.155195091439406
Si 6.878623249746616 5.09249797663166 4.501367004132092
Si 3.049988951545586 5.722504998299799 4.9774283373648345
Si 7.862527382794359 10.337292531046204 5.733275418428223
Si 4.333851914525852 7.621359422409013 5.8903001550159555
Si 9.50417180263904 6.936623386436691 6.775369638912189
Si 2.283482833985172 6.631546913948367 6.987728320182457
Si 2.6940955769218227 9.010351842290296 7.1677477381556916
Si 7.586567113804359 5.601985867576142 6.672079339081018
Si 7.973889785379354 3.263260116942952 6.95742353563875
Si 8.091983895203445 8.722501660965277 7.521244308281084
Si 6.1584897029045065 7.444274819900049 7.334025897223511
Si 3.6605252471690033 2.7040736639722587 7.5780406598858425
Si 3.367118802735292 4.979130023125159 8.296308702218505
Si 9.609418858066144 3.10611251899953 8.71677860302578
Si 5.881512559027791 3.4774569573276306 8.06770443362233
Si 9.334147826738066 5.491161566642297 8.74731998393365
Si 5.607867868472358 5.821327473686151 8.92878653147614
Si 4.384972122565759 8.367899767850714 8.887040987357677
Si 7.678513914781117 8.38197386077169 9.814519336253236
Si 3.4556836155242774 6.489675871043497 10.136386371763214
Si 9.417131584212688 6.971936720377867 10.669843626271472
Si 7.520837211293333 3.5334939038919857 9.840385594219637
Si 5.690468286736589 9.259490722889721 10.74013175465916
Si 7.477555077554221 5.7128352850725195 10.746304496995142
Si 5.532029100813694 6.921808390178233 11.217068998685066
