40
Energy = -185.93426893 eV
Si 12.254640019784778 7.07265441626054 4.404253734819579
Si 8.330741210959085 11.42199124458455 5.418603791015372
Si 11.893023972369221 9.604578553433372 6.78357269781078
Si 4.406842402133402 7.07265441626054 12.25722868709873
Si 5.418603791015372 5.239491177333622 8.330741210959085
Si 8.330741210959085 5.163839647862583 4.847432334856962
Si 6.716595463123077 9.418679720005672 11.655373800771251
Si 9.877909724107525 7.056903868484799 11.893023972369221
Si 12.254640019784778 7.07265441626054 12.25722868709873
Si 8.330741210959085 11.42199124458455 11.2428786309028
Si 11.893023972369221 9.604578553433372 9.877909724107525
Si 4.404253734819579 9.588828005657767 4.406842402133402
Si 4.768458449548958 9.604578553433372 6.78357269781078
Si 4.768458449548956 9.604578553433372 9.877909724107525
Si 5.006108621146927 7.242802701912634 9.94488695879523
Si 11.655373800771251 7.242802701912636 6.716595463123073
Si 9.94488695879523 9.418679720005672 11.655373800771251
Si 5.006108621146927 7.242802701912636 6.716595463123073
Si 4.847432334856962 11.497642774055459 8.330741210959085
Si 12.25722868709873 9.588828005657767 4.406842402133402
Si 9.94488695879523 9.418679720005672 5.006108621146927
Si 6.716595463123073 9.418679720005672 5.006108621146927
Si 6.78357269781078 7.056903868484799 11.893023972369221
Si 9.877909724107525 7.056903868484799 4.768458449548956
Si 6.78357269781078 7.056903868484799 4.768458449548956
Si 6.976166538602792 10.495188431698015 9.454943157965264
Si 6.976166538602792 10.495188431698015 7.206539263953039
Si 4.406842402133402 7.07265441626054 4.404253734819581
Si 7.206539263953039 6.166293990220167 6.976166538602792
Si 8.330741210959085 5.163839647862583 11.814050087061336
Si 11.655373800771251 7.242802701912634 9.944886958795228
Si 9.685315883315381 10.495188431698015 9.454943157965264
Si 9.685315883315381 10.495188431698015 7.206539263953039
Si 9.454943157965264 6.166293990220167 6.976166538602792
Si 4.404253734819579 9.588828005657767 12.254640019784778
Si 11.814050087061336 11.497642774055459 8.330741210959085
Si 7.206539263953039 6.166293990220167 9.685315883315381
Si 11.2428786309028 5.239491177333622 8.330741210959085
Si 12.25722868709873 9.588828005657767 12.254640019784778
Si 9.454943157965264 6.166293990220167 9.685315883315381
