42
Energy = -194.80786911 eV
Si 13.731439108056923 15.155345980488308 14.613881765141095
Si 12.607863065643679 7.2386167901809095 11.887899430824623
Si 8.01419136837882 9.695786054109096 8.432843554974266
Si 8.735104572676303 11.40461201015603 12.406923648007492
Si 6.951170211293306 7.421577326123743 5.149247832313365
Si 11.525283048563203 13.619828288469375 7.143335589813124
Si 13.29751865226817 7.3144705956561875 8.070187102665193
Si 11.605418961401357 11.34514812227567 13.850738286249737
Si 9.335339913613998 11.282557007691166 14.779175805633804
Si 7.201266361384235 9.623871057656373 12.085506728729355
Si 7.89803547756408 9.675017255598215 5.0900867081908325
Si 3.5249243105408867 12.89698856939873 8.65035155107929
Si 10.156695810376236 9.823472820243598 5.66852259918828
Si 3.646959419432709 11.713925280747539 6.52232162768669
Si 13.66201776916788 5.338338923468338 10.820848643896584
Si 13.951206107480024 10.808127879012073 13.88695435129703
Si 5.671467827035436 6.882984747724082 9.315915409864164
Si 4.902462591018131 10.31965648553581 11.938315981696453
Si 12.641494821809555 13.396576101647511 13.45025165444091
Si 10.504603092595168 8.435882157295874 12.206317453190723
Si 4.58971284898461 9.917490298236094 7.745621328956443
Si 7.780654551478046 11.395703668072573 6.827184755512453
Si 8.844368282102707 9.209745241102718 13.750742195925278
Si 12.133570478200378 11.478026428801014 7.745616001930296
Si 13.476380551667736 11.960397752710582 11.832848690982802
Si 14.628355396110408 12.898364537819806 14.85238177499954
Si 5.687681208508672 12.08607554224829 7.684300885232778
Si 4.948360800334544 11.411302467743539 9.835040279705604
Si 4.771749088560706 8.947990088008751 10.00642758014297
Si 11.858879778422493 6.439343193495044 9.678177654364251
Si 8.703927105108342 7.823929422510786 6.678723509149935
Si 6.271701193114984 8.202135559704718 7.321534674919258
Si 12.521436060679696 10.875534597889223 9.977881566457858
Si 7.439977445519503 8.19255580768998 10.240008977477684
Si 10.000255466581242 12.05156829395898 6.4898778771766015
Si 15.043313604849127 7.075833090336155 9.757089772497896
Si 10.867965340429622 10.665882967919144 11.644502429975061
Si 10.097167618055911 8.659602739844946 8.390683983744605
Si 11.980029136925973 9.198126128038894 7.056704599093502
Si 9.685528883702462 7.258341902405294 10.270618324331869
Si 13.228387024059968 8.627118541818353 10.156112259645218
Si 15.505474577177962 14.575677387080217 16.031879909990774
