48
Energy = -229.19833222 eV
Si 8.439689697226118 8.234633980232116 1.6376216357956566
Si 4.3352689461525244 3.644949438901516 2.3275233518358163
Si 6.268721398323115 7.903843837923003 2.634063768429865
Si 5.624281239882019 5.635148559113481 2.9881853557969276
Si 8.507367599463072 9.460728762183907 3.6684462222532956
Si 5.426758807919965 1.8916602267112117 3.4666540645246418
Si 4.662907814133816 9.544621988840465 3.4052264331738833
Si 9.30736150123479 6.666641949085888 3.2812912892930277
Si 7.65016374232255 5.252902679241929 4.083532370682125
Si 3.2443274391831864 2.901375407488748 4.283754839320652
Si 6.539841647616399 10.304297474831298 4.575810975060747
Si 11.493006534917773 6.03357035799342 4.099862020465965
Si 3.59375038553173 0.5725586608295722 4.445862572463993
Si 7.287882413292928 1.2851507220381861 4.7911486968629395
Si 10.187174455909927 9.826483070493481 5.314615385040413
Si 8.397221999471752 3.393659364550974 5.339936563168444
Si 8.520376689122596 7.677089071402503 5.411589413683761
Si 4.63945037155289 6.136721867831666 5.0401648810228865
Si 11.033306969611758 7.6502661623438 5.778495748473591
Si 4.605596600215865 8.407449727228762 5.5222462093746145
Si 5.235655727518104 1.4263587420219626 5.9487399492144375
Si 10.361854835324305 4.673857320776692 5.712424430765375
Si 3.3448009309713758 4.514684076050692 6.038373726191712
Si 6.4232764704513565 10.835416669529113 6.923202088400546
Si 1.0972941576686708 8.014791000256489 7.46113805749483
Si 6.666732260456496 8.445671436372404 6.721221343005645
Si 6.585313989689004 5.724719493883145 6.305473104711828
Si 3.3439227932469517 8.516991679394105 7.528500882254387
Si 2.2118402208436088 5.863407602191928 7.708405352139737
Si 8.860223438870486 10.019904573439605 7.261469889006797
Si 5.241175671771703 3.394138947706336 7.280239766740347
Si 11.572687700258538 7.197032135105103 8.05392905858642
Si 9.309888039009014 6.29593501179461 7.417921852933679
Si 5.993677202207899 6.936619374687717 8.53417590746598
Si 11.086648989423505 4.77502575027504 8.029592265123537
Si 7.902656629299539 11.810108729520696 8.517448193347722
Si 7.5228990208886914 3.9106753010816973 7.490449282205584
Si 4.421064688868326 5.202567701002355 8.593647317851358
Si 9.668390191921919 8.397396252344901 8.820657143501633
Si 8.99751671231346 4.339635267434325 9.372223277097408
Si 8.047157933741715 6.5459143567903935 9.562787817964534
Si 1.4691950285205293 7.423285062185008 9.780454004985327
Si 6.82432928009337 9.783007818748027 9.385549604733596
Si 0.7247535673966705 5.16497404927874 9.578652747267466
Si 4.665605150364577 8.685296434258394 9.502867086892014
Si 2.9481448427431665 5.467106597113013 10.367416353172763
Si 8.400540728466424 8.53931103400719 10.784529875160956
Si 3.3082975445819662 7.6724142734815794 11.222477825057638
