47
Energy = -224.75772766 eV
Si 6.24749141569244 4.247544655889486 1.0495228509753922
Si 7.275788505449017 8.551015233354331 0.8769806338494448
Si 5.811851218805455 6.617237486947306 1.2940890758478838
Si 3.935805653531006 6.962959672052214 2.667602960030436
Si 5.091665931580047 3.8956797467086637 3.159351290322724
Si 7.762440878555263 7.433363776833795 2.8788818018779097
Si 7.310248688226325 5.078015590173648 2.92778829683893
Si 6.3492177313384905 9.467389227917865 2.9535103466074024
Si 2.9346865663746855 4.908266148587385 3.4469370804363257
Si 3.9649664841942567 9.260999481943722 3.415398330997157
Si 5.680708346299503 7.324676532052553 4.230503325533747
Si 9.035389590923694 7.518763980670775 4.834186252587072
Si 10.461421266454693 5.668242090260253 4.88438853613485
Si 6.04696809310455 2.5795981777980024 4.95521261262361
Si 8.462731256276593 4.28211085274139 5.059782947574638
Si 6.011173862300271 5.050405353875558 5.260910396959712
Si 10.037309555174765 9.3817705594873 5.8625463779413645
Si 8.372009663773044 1.884151120090135 5.10119202370717
Si 7.660052900280843 10.26904027399552 4.913345853271129
Si 9.351423394356383 11.620778766091048 5.970408524250641
Si 3.50588463708964 5.077112304186827 5.771971436955533
Si 4.466319454550213 8.675903500052383 5.723460256590088
Si 2.514933053321641 3.4868612593984096 7.258980134743061
Si 7.675322532127642 7.769357686920844 6.805539840525715
Si 6.264035300567895 9.747625046026174 6.715587701088718
Si 4.807165406557505 3.076442906479354 6.894166627801925
Si 8.6145964302848 10.233604391715948 7.864324931561915
Si 3.5479108806998316 7.039179698437828 7.1139055403056615
Si 7.89095325097343 5.184476488054836 7.4176747793890305
Si 8.434911044176427 2.752464060116656 7.318307151245565
Si 10.162035856746026 6.034530828834595 7.176778004023103
Si 6.478295589942852 10.986748047188813 8.718790583937983
Si 4.970867199108367 5.795364742261532 8.799380749604346
Si 2.5464580128761365 5.2928668065401965 8.880191689863203
Si 3.66607462451724 7.949995244239388 9.620388835848631
Si 6.461634470004868 3.565351042629285 8.515904347489284
Si 10.197436148127755 4.016824523973225 8.453391571201795
Si 7.109508672999075 6.987492497422943 9.170527729025935
Si 9.629527796806505 8.144790791297904 8.353312841439402
Si 1.6179588971709111 7.510795314678143 8.37549625261552
Si 5.822726491536059 8.957365040521891 9.749764771273577
Si 3.602192206822626 6.004386090167116 10.93360543899267
Si 8.69479232613188 4.948615670051335 9.988018896935111
Si 5.939084941011166 5.659144656572073 11.086366919619659
Si 9.121200304163542 7.215764140201037 10.597241024602607
Si 7.024951219193523 3.5711906395216038 10.889103221305763
Si 6.929872249797882 7.813737855034453 11.565279203642744
