47
Energy = -227.08018089 eV
Si 5.926757982211913 4.122816854087331 9.04142598639057
Si 9.932625851387323 6.358862005702887 5.873961902188916
Si 7.6052498933865404 1.3123494126077555 4.284255387458119
Si 6.030569199009399 7.8954740094099325 10.838155567763641
Si 10.134643412080129 7.138910937078565 8.049071343484643
Si 9.46503094570278 5.573064036800623 9.784084151568711
Si 5.012931000856259 5.526637936882465 6.888432251925951
Si 10.471593971754212 4.06819129749823 5.822696230856979
Si 7.104798961431502 4.392450197495927 6.603058479142134
Si 5.86146793598701 10.865118014405368 7.896042060930013
Si 8.68935891952979 9.836754350944398 5.657629594043851
Si 4.273404086075178 8.008520865085975 9.194960118218521
Si 3.698905764048379 2.9325845017404895 3.5261495871568256
Si 7.485123686694606 2.5614030295472103 8.262242431897379
Si 5.493549256179719 8.471711306406505 3.6137758521956957
Si 3.425741710732389 9.43666882624746 5.870617594602545
Si 4.511899719039906 10.610785718709728 4.083904006249541
Si 6.507185119459494 4.122643424147038 1.53268621349557
Si 3.82023431850794 3.398704862322151 8.316789300958785
Si 6.323609544283401 10.2779824349549 5.617368927584637
Si 3.6249789852844376 10.106228194612303 8.148371967457404
Si 3.0407667769221605 6.350608672811602 8.000583050384675
Si 9.614231856216632 8.104778262843862 4.236287297711318
Si 5.116146870981585 6.013119635481813 1.9655361936189124
Si 7.085304898434602 6.149312823476794 9.556682210167185
Si 4.518922579304775 3.474866691117861 5.748889917619221
Si 1.9100807639489035 4.247873992787008 6.141480096338569
Si 2.5055941556635304 2.06394684638291 5.38675030079138
Si 4.200284479586082 1.3758089947150092 7.104261456992122
Si 2.5957537343851795 7.252553868915936 5.812601331519127
Si 6.41105839860715 1.9220252876429418 6.261641184179322
Si 5.344754110978193 8.54002968353777 7.135211761723303
Si 7.793888892028172 6.879894166623234 7.373393111829788
Si 9.03962550057016 9.180776890589879 7.944133983332034
Si 5.973338883620522 2.662515469431428 3.2805453241820706
Si 3.1818673237991324 5.204332749680514 3.1194395197304963
Si 7.29780716588952 7.829572124894605 5.2168888388314345
Si 1.2292228871608062 5.801871857375553 4.478678741518404
Si 4.586138339663166 6.5022680121907355 4.660086038099921
Si 8.527435579482367 3.5416819835316558 4.5209497198433395
Si 6.315611931177187 8.01592305111796 1.4158630274637087
Si 8.656461826713164 4.758872892388617 2.4204119898942014
Si 1.6871931856400366 4.449145766899222 8.521224146668587
Si 6.97218207316268 9.130194482040261 9.020066517432673
Si 9.192313103503642 4.230292741352038 7.832512644436973
Si 7.9502471389598215 7.002656441425372 2.8699223846748523
Si 6.655490137714313 5.098597251813675 3.871663113201433
