47
Energy = -224.1696119 eV
Si 6.009385215934714 6.225713872250298 1.5307245481156404
Si 6.6158021569389565 8.45223708839933 2.3735220769016507
Si 10.16393075445657 7.112138673731113 2.6936173841288737
Si 8.187963862741421 5.75332596297643 2.5664611772853814
Si 8.618103280552885 8.629378511480004 3.758871867365996
Si 8.322797974331051 3.5082969920697753 3.277985645543973
Si 4.447990228220247 5.105626660789856 3.2985866819759786
Si 5.308642230258601 9.711363242758965 3.823193081763865
Si 6.095082766515061 6.765497452202558 4.036783759885728
Si 10.142992142260175 6.153325507849958 4.88076934918859
Si 9.595390558575142 10.760865879831483 4.6804540528956275
Si 6.098105899682911 3.6370937194907276 4.06775074925077
Si 9.655779482736008 3.8721025597857066 5.281517616304484
Si 3.814643704757277 10.216841480364428 5.532179913912232
Si 7.644058129207425 5.183504202468664 5.103548860390409
Si 7.1517153973406 10.684532011738566 4.933285353043755
Si 8.494730314089834 11.803442895254575 6.632215569717411
Si 3.392015133994284 4.850040226929206 5.657296353497574
Si 8.387985774234624 7.761164124159398 5.970458111554777
Si 5.928334125851325 9.100186528509115 6.257274908567032
Si 2.997108255811196 2.5134869053128233 6.253030637954023
Si 3.0458678646048023 8.021116080928882 6.231283539261318
Si 5.331051489323907 2.3985160992482455 5.856949089020212
Si 5.027894261182028 6.625653453336594 6.244593911892375
Si 1.5289140353937956 6.156977707737458 6.3501971667756845
Si 7.086468340261362 1.410854886895173 7.116748408618317
Si 5.734176030700219 11.846298027928178 6.581058149427088
Si 6.371695718494638 3.8337830281454264 7.529182487426252
Si 8.732180006802972 3.126632767872591 7.362377298499773
Si 4.032551908623181 3.0420721094810905 8.327086541000039
Si 4.47663911642066 5.52996762553318 8.441747182629348
Si 10.690756005612775 7.159599418905789 6.932275924430222
Si 6.093370189651088 10.273770991925678 8.33856229606089
Si 3.5141406650773224 7.9588859937574234 8.537730052322784
Si 9.948456547766572 9.521952745936526 6.809886479997228
Si 5.957116115783223 1.8838064525701135 9.169241370199195
Si 7.171715389305785 6.473192432378257 7.595801914829412
Si 2.079508687856637 6.130505624824524 8.762361428624644
Si 8.110107416698739 9.165912513331852 8.183904983956367
Si 7.1164579102589745 3.8217941192612805 9.836481704127703
Si 9.308690729723283 5.879050131339974 8.457594426747155
Si 3.1279445792982554 4.3860201009963795 10.11192475890845
Si 9.5506419222304 3.7292168339007556 9.537548263503954
Si 4.738872377417702 9.272779707870509 10.052221727804902
Si 5.3573672588685675 5.220657040084727 10.813924863801116
Si 5.9548760725974565 7.276548676701144 9.842712607414084
Si 8.329112077219346 7.54340103641978 9.856205829142366
