44
Energy = -212.48904733 eV
Si 6.8669280718906895 7.4680591322483325 1.977807790926892
Si 5.16323484017498 8.998095019130863 2.8425633157453762
Si 5.9643838822139195 5.2402485356479005 1.6963235256860834
Si 8.550332769351115 7.893824057167933 3.6147412668025574
Si 3.2139610345981273 9.014788152072484 6.08087353214927
Si 1.848730856880032 8.385680137028531 7.926387795415143
Si 2.1533992362549776 6.128069972913746 7.243256706167642
Si 3.536284311089924 7.814466647547466 4.124005976634173
Si 2.1262746661058487 6.066481744617772 3.258302330189563
Si 1.355495382933459 4.936463323931278 5.364716418456319
Si 4.005768280706674 4.585216043568172 2.8937485625604453
Si 4.20298660769223 3.22680695211787 7.394001984929555
Si 2.9873761827641396 4.590064713974511 8.927997108404705
Si 5.952201204471074 1.6963466570959755 8.017274891185524
Si 3.032287910967767 3.253676141370837 5.393366185043968
Si 4.069834506063803 8.068091564493498 8.793262524457736
Si 5.6095001750287175 9.93172739200082 8.674124439513808
Si 7.469970746332364 8.49563506649073 8.15484613690769
Si 4.487877951883446 6.1212748936352215 10.108532715710364
Si 6.720029458856871 5.197837789860007 10.253301924872368
Si 8.392312636688315 6.881188991558406 9.650465063009102
Si 7.410480744768535 3.489810390894965 8.735379693822946
Si 6.382893458254979 9.845518115294944 4.7651300632118385
Si 8.729250055726641 10.124611504282825 4.495419878414987
Si 4.880889211082029 10.679324427851512 6.388865832416971
Si 9.005665797940983 8.782409223759332 6.442086998949422
Si 9.556413309344359 5.626915235139205 7.92568654476275
Si 10.68301648837594 7.099400291602605 6.459001746137953
Si 9.760996098459986 3.2826897089269607 8.271754609583082
Si 8.78436791289936 2.9883264683256856 6.120931835642988
Si 3.6967730410654815 2.243015214355007 3.3435513360492712
Si 5.942618520784276 2.436366342597274 4.102348091764789
Si 7.117389260933434 1.3213545916008047 5.823956662127595
Si 10.34697609840911 6.342893932035731 4.0869958551538215
Si 8.824249768316303 4.500232211434033 4.363954848738144
Si 7.496404497071222 3.5663721624914295 2.61521751327253
Si 8.358388187902017 6.447060900507508 5.8034165441624745
Si 3.751358854825405 5.652110020597089 5.284165980493534
Si 6.268397494640161 7.333522837716903 4.4113892090166855
Si 7.0229064826934655 5.765633463277335 7.825884583413882
Si 6.086466777240056 4.9709446514819 4.1912547172200005
Si 6.378880749618501 3.660376933142963 6.3210160204758745
Si 5.547792940184914 8.280949581184709 6.628070364578362
Si 4.661957138999579 5.9698224655124354 7.6083244783056445
