42
Energy = -199.79257092 eV
Si 5.4608407298883055 6.877932405581198 1.7186945855874056
Si 6.643616250990472 2.980953226144271 3.0178352987850356
Si 6.7725701782460765 8.18078203331884 3.2136315752106546
Si 9.08820190427092 7.9127982686210325 3.416410194508329
Si 6.248967866766219 5.309162206230818 3.3169829456196824
Si 4.0756089682973515 6.936321123745588 3.648694179874308
Si 9.979452201126856 5.720150548002161 3.7951483173505176
Si 3.4761298238245164 9.182059171081027 4.56679791325718
Si 8.622592045394532 3.7627504306663626 4.132519265569739
Si 5.764103975894029 10.151955780566714 4.23847088546466
Si 7.824713005196864 6.312217523467828 4.897636089459517
Si 5.787052643728845 2.8737237191060014 5.247907640391128
Si 2.6130338096445227 5.338675615241689 4.684891102602971
Si 10.587731319827448 8.986464597583813 4.956219948979294
Si 3.4795262556952 3.284405586394487 5.685837912052576
Si 5.039186434726241 5.357056240788805 5.51522821911357
Si 5.535458293163846 8.003472963102288 5.429892424056748
Si 10.52914673578247 6.78182759971194 5.827418824372898
Si 3.576185457799073 8.342849550796512 6.8993168893745995
Si 8.981766180660086 9.09218611259837 6.667225641491207
Si 7.675396623245031 4.151135669185133 6.281586107958321
Si 7.228076399024326 1.7293553867327267 6.797919675189019
Si 9.490287588634057 2.4753990953738563 6.102594499469698
Si 9.342096915806316 7.651646850000248 8.528582447238833
Si 3.1624915552752015 5.981520490947221 6.897018239620804
Si 11.138749364551689 6.129367744255771 7.991300428094913
Si 2.655206667563406 3.8986881036784062 7.940825601810769
Si 7.212612775779347 7.34119981924629 7.134894758011271
Si 6.797748608541411 9.953657972229317 6.407060064334404
Si 2.638081506818551 10.252990668541802 7.834408812339751
Si 7.074833297125682 5.1868505580656254 8.343808741201778
Si 9.659638706841813 4.278647523700332 7.730044864718886
Si 5.161689448443409 9.786290380973492 8.142534986558577
Si 4.785179223595878 4.23446598940556 8.838162687184939
Si 6.626002665122298 2.7783467500648804 8.880115533303202
Si 6.258193555585991 8.06216461853554 9.278402649407102
Si 8.306297071485291 8.194703161404755 10.581401047218598
Si 1.8186296689633412 12.022528543432905 8.91565349054504
Si 8.55824648268738 3.7701035777439373 9.816845279676668
Si 4.159579057336881 11.81774067229478 8.897360759359367
Si 7.751657257155455 5.880659994472281 10.560037822553383
Si 5.437043976940956 6.0584142244134656 10.246304148531555
