49
Energy = -234.11951059 eV
Si 8.041921297539982 4.377251233499804 1.6088182636439725
Si 7.101957947476641 8.612924447869986 1.817858010038651
Si 6.625666944473452 6.241189110099124 2.0936808777755234
Si 4.983466130979116 3.3343229259859015 3.899832185936634
Si 4.570239370209595 5.449157115331581 3.0029800361830263
Si 6.888294908713486 2.527759021794173 2.552648440821904
Si 10.169402006877926 4.613547285318093 2.861392863004296
Si 8.975819652500729 8.568093559162465 3.389518010364229
Si 2.493144732825916 6.632156056533479 3.215711070438391
Si 7.992371101128682 5.574720103439347 3.922511911922733
Si 6.186948698534395 8.60042865589773 4.016362268376497
Si 10.197516894203243 6.689592724526847 4.126162797546731
Si 8.071453676435915 0.8894751324106335 3.8303543980220507
Si 5.057432205951129 5.31965833585501 5.621944679952804
Si 8.840819040954713 3.068278021648977 4.185142997398921
Si 3.300652234000088 3.5560419652447983 5.5639575780819
Si 4.182259556827554 7.492302857801825 4.646399768050862
Si 9.094009441546394 9.797729158401273 5.3754110433735125
Si 6.790577381134561 10.150309283484331 5.755747653791687
Si 2.370948477151553 5.731024698877072 5.479810775533137
Si 7.901483400680954 7.546965704639719 5.4495656014798906
Si 6.31872896404953 12.216952696592502 6.844723569161021
Si 6.635524785082931 2.0574750063731644 5.377461033397053
Si 7.292641959541344 4.297498646021469 5.784397929367459
Si 10.006516823430273 7.236237776730862 6.532605207088163
Si 10.60312125467138 9.48008787104077 7.220560639590366
Si 6.167983459986316 1.6461056566918248 7.706777647644914
Si 3.4206975051535196 8.097579309867967 6.829200075608171
Si 4.205257423541216 2.8942649348509155 7.63189505238983
Si 1.3581321853157005 6.959291742998097 7.287287941722676
Si 6.738894014288029 8.448615807105165 7.50445780714542
Si 7.859853752734142 11.670596729946581 8.524010837473183
Si 8.46493729797622 4.342557518822407 7.802977342066407
Si 6.030302643864345 4.31303809140211 8.350901896990603
Si 5.298000251404238 6.580918286862192 7.789816239822655
Si 8.664529696626584 9.216095711150876 8.716010762196039
Si 4.7181798516232965 9.352848411681824 8.42783135914029
Si 10.352559573910595 5.662465514332247 8.303892690832686
Si 7.592419972997404 2.705304002187214 9.392408529946527
Si 3.654449676284386 3.9838193802576605 9.631645104649378
Si 8.436399120107826 6.795717065801114 8.967337513890392
Si 3.0590561572332646 6.1228672485120965 8.778529836065573
Si 5.341990060146559 11.60228986702639 8.95832815613389
Si 6.488275105790382 6.297682858467636 10.244287092354407
Si 5.863961512969137 4.0155639982392755 10.760601207747195
Si 6.902926636698067 9.817065175926606 10.274716655440034
Si 4.325661251714008 7.683607276317273 10.028508456414231
Si 6.927522761358773 12.156287184320144 10.687386671216759
Si 5.93509120135581 8.074238832651528 11.7256315127681
