44
Energy = -207.77965055 eV
Si 1.023429374709145 5.062839206324135 9.17174208210166
Si 1.546122256149222 1.1393929950832566 8.094578786443106
Si 3.303653500896379 5.332331325083776 8.549237160783715
Si 1.198170790252903 8.998120717522676 0.5616605339184161
Si 9.22185724109325 6.886839654707327 0.9753719794123127
Si 3.5579555097522335 0.40218728707955476 9.328466744683608
Si 9.32026343600763 2.9638282050709805 8.786491636506542
Si 5.523416400099475 3.9687698502609727 1.5085704657274224
Si 1.8543392096253515 7.444647618747489 8.971574305553181
Si 2.8689333319853842 4.403335258722445 1.4192842058282877
Si 6.010064112850899 6.463899792405419 1.5055659381670368
Si 7.777422262179203 2.8864582518557906 2.3074772844488995
Si 0.7631012095508743 5.113624000873326 2.3862296467004906
Si 1.8646077198289437 2.234445746024205 0.9668802234260709
Si 3.0782330078388287 7.637187538587916 0.842365417088973
Si 0.6130254946160311 0.761057236679089 2.522918665141502
Si 7.804358762444351 1.4950547558569638 3.092679220037858
Si 6.833275793706666 0.6069101887993003 2.2266840159691212
Si 3.660633770902653 6.720920744827859 1.1370044372839545
Si 6.503554163696751 4.3044733593166695 3.7312887163411403
Si 8.958806755997442 3.090626814141611 1.783071189566278
Si 1.78161209944184 7.628266633205704 2.26297129411444
Si 5.867762663819046 7.811078815193603 3.0364244242048515
Si 2.1565834485235778 0.09286865862559353 4.203253994706884
Si 3.497350130172228 5.94250683774086 5.054738781016346
Si 6.750087009904158 9.195802811711193 4.774406283351414
Si 4.764678226873657 1.6857280955526313 1.5376205149026028
Si 3.9818195061652077 4.00754287599238 3.627163111209679
Si 7.609333276744181 2.070867804119632 4.630577544406731
Si 5.403253559739246 6.628015718953541 3.8316912402373062
Si 9.045684039357308 2.6549570310431485 4.743734933945637
Si 4.541742905200921 0.5196079921602623 3.624871639488484
Si 1.2662107627369286 5.087086426976774 4.746592889162653
Si 5.555171381976574 3.2115258482232485 5.628237281281295
Si 3.445253180684903 7.628266633205706 3.283204454550519
Si 2.086037547316957 2.651845290424902 4.276674761317344
Si 8.60284068522027 4.639330608087757 5.963081065888553
Si 2.4288684288866715 1.19074752158633 6.353431399541359
Si 5.007398989056576 0.9399063475406265 5.964655991124307
Si 4.580487027016545 4.928019589824134 7.042620693954716
Si 6.6425734359242306 5.686707077008113 5.671712372993063
Si 0.2164000653954721 2.2136970771566973 7.026953178742001
Si 2.4867066539839873 3.642584850346251 6.553848622402981
Si 0.6645229067990017 4.3139863758111545 7.959992907449622
