47
Energy = -222.31581103 eV
Si 3.0167599242429675 8.420821191927775 2.566160149138674
Si 2.9144989594492063 4.78924632655035 8.468918285671108
Si 7.015962447583576 1.3592502737112144 5.502340534006358
Si 6.629956751607245 4.452691601349473 3.9189025585231327
Si 7.698425786833943 4.7166617680682075 7.677260886405557
Si 5.14831035840375 9.693061885830698 3.3051835351968943
Si 3.70271145659469 8.087392440957359 4.903995308736622
Si 3.851646842057184 7.4243042816968305 0.35341344751022186
Si 6.804796827949207 7.988416914297195 2.758680597966976
Si 4.909778347307677 2.899006373597721 4.853449816290697
Si 9.109086166548817 4.40568695300355 3.764497537266179
Si 7.619597507807984 6.982110202568318 6.6063565896889145
Si 8.103090935590703 6.583861609419776 4.240812484723329
Si 4.088091747095124 9.949877722808223 5.1022730678955455
Si 0.6104693408022538 0.2617772158011932 2.4132490644807305
Si 5.813418396582368 2.814906877130864 7.1269380424311155
Si 2.0435296290819176 5.93015621460596 5.319650361090629
Si 4.644423608155187 1.4329095102053895 8.640474041445662
Si 1.9977520098946568 3.822897017796601 6.452303760992331
Si 2.8108390151066094 5.2376545196858 0.6430416225349623
Si 3.045182551097609 0.7714910744829647 2.8449614941438033
Si 5.702491170433605 10.193573357510912 6.958235344337554
Si 4.99629413618189 9.693061885830698 2.8741023749743255
Si 4.023401518300496 9.043662478805205 7.341188307298622
Si 7.863351808719533 2.9214920588517295 2.1263770913292688
Si 4.719642365279835 6.724660357083613 2.6813308692723608
Si 1.7744789274927293 6.189696590714702 2.9900391698159843
Si 0.03736331349504369 2.5046346182870423 3.3053364532458893
Si 8.08959566028254 3.4966312927923924 5.719470044925603
Si 5.408182145118954 7.098014074774341 7.64007702382053
Si 4.231021093325771 3.3223574977196395 0.9939076961180472
Si 5.690224391427158 6.5214275617246775 4.989698638727317
Si 6.218283799068666 4.526845843598329 1.5412824375176062
Si 3.639987414113057 4.595996122243625 2.93988837069449
Si 2.668345496504393 6.992228017142741 7.3089077727881095
Si 5.826060735678776 9.00845602603334 5.557760463104972
Si 3.5242717544981375 1.5959218381465632 6.546690311901844
Si 0.6411146888916666 2.0582348290350656 5.581507623786952
Si 0.24605242651333772 4.535826418886433 2.066018010101463
Si 1.7384539901485527 2.302216761311506 1.4669330649565286
Si 4.229255216961436 5.090244854701385 6.327248223830043
Si 2.516312740630724 2.7921847761241816 4.029751225846739
Si 6.216925020689675 6.777270637054589 0.7566027726219878
Si 5.418298251110163 4.889478709216972 8.643934555561996
Si 6.187623837853856 1.5355085228156475 3.2927059322484205
Si 1.630535091704012 0.012844531233387767 4.726292272525083
Si 0.912291430707136 3.946725074947619 10.08176768981877
