46
Energy = -219.09715795 eV
Si 5.640233391684864 5.969305971537155 9.348093208042293
Si 3.6980478492639595 2.6798609216322737 1.1273199673448446
Si 2.6736362360875945 8.617284999397901 0.9916133211177962
Si 3.607929387834925 4.744434806151073 9.719223584724654
Si 7.525447357526257 2.455991769908182 1.1718737330491142
Si 6.8969144851044435 4.7504417908811325 1.1580390717169182
Si 4.9720587628740445 7.803918116685519 0.9528059797781364
Si 1.8581172555554573 3.2112820786891336 2.5844589739180455
Si 5.5478337680478536 0.9897801698555495 1.3141751462680962
Si 3.533278477815909 8.036811844771018 3.1490595191148105
Si 2.3581782601869423 6.257987262437584 1.2539093774393109
Si 8.540761976839278 5.201393854848861 2.783534319904833
Si 5.579353530675869 3.0793952765819763 2.585466349235175
Si 8.692675580020865 2.846713868098117 3.3752689486634253
Si 0.5881926039205196 5.209750119496205 2.407719499193321
Si 4.1249208557278365 0.06909498687388559 5.09876943650177
Si 4.684614663871908 5.5201045980175225 2.0710839672364574
Si 6.34268353058469 8.407682957434513 2.776659209297705
Si 5.931875746778131 0.8188513564738129 3.7607002174942727
Si 4.9878908952392385 9.606951950036983 4.269487543143704
Si 0.3892853316948022 1.595323953689619 3.5723082593773423
Si 4.777994551904348 2.4871692143588287 5.419822514458729
Si 3.5811333608991585 4.160079924187706 4.062411399435333
Si 9.106103012228827 2.2530525440435736 5.7077818372738545
Si 5.49297063392362 8.213608346794684 6.132092513125742
Si 8.243089219423823 7.381333778928307 3.7584133945600615
Si 7.623234751534822 7.173512424650506 6.088727360323501
Si 1.7092527522500764 0.4521733411896194 5.178815102697763
Si 3.357814027553203 6.521140000154314 5.082263051003615
Si 1.2847359188602676 5.418647976439817 4.706152410161718
Si 1.7535449231926183 2.937940365331262 5.272937099162698
Si 5.861605311293712 6.5777075625692465 4.344580758216882
Si 4.384513292070256 0.7831136902593453 7.312498169539959
Si 4.353333138175204 4.844263613674968 6.904601890472311
Si 0.18901299022322704 0.28464799290603743 7.010865093208116
Si 2.2768389296859533 3.8448583476634397 7.728554696204582
Si 7.218536118525836 2.325155701540966 5.322925952182321
Si 3.7095201622387 7.374361347323763 7.447172238394291
Si 6.73664406316334 4.360470889648528 4.238193514201146
Si 6.836544872518006 5.031944007236331 6.921121359394018
Si 0.20718884301097795 4.412828281529558 6.57439067727427
Si 2.1459375030362273 1.5243383574094673 7.450276847820297
Si 5.378195739169221 6.118823669810506 8.71526809006924
Si 5.539955864038114 2.7384615287622647 7.945571315482988
Si 4.148024218570793 4.112397605647304 9.348093208042291
Si 7.882290795460607 2.978148919431595 7.61624767031621
