48
Energy = -229.04997646 eV
Si 6.556295335242335 8.311868204591114 1.6595862240409418
Si 1.4380021338759161 6.414695256538615 1.7429119366246106
Si 3.1529468175672726 4.980880012309548 2.6989383980375927
Si 5.493929552713581 4.871733000574869 2.2412461655531795
Si 5.0550857003903324 7.083557214715307 3.115081962492185
Si 2.8103365515939385 7.867409359009072 3.101738733351104
Si 6.294002907644353 10.14273659487229 3.1817517084985565
Si 7.9787929822997565 8.28437208664275 3.5592961306354947
Si 11.470924632372562 7.6676173795716585 4.786898319637958
Si 1.2903361094530905 6.108689063549869 4.108379727194338
Si 2.390626787447306 9.935793941535543 4.272606384632374
Si 2.0583388446307542 3.885931871915048 4.498089584028339
Si 4.7281374153267475 9.844834379441666 4.9788709332753065
Si 5.250098642125849 7.608845368482292 5.516035503869514
Si 5.749421223746615 4.992743820691874 4.5755224040232285
Si 8.028365467175679 10.643181224882252 4.647167702667559
Si 7.9849804766497625 4.924032541868348 5.590658086026888
Si 10.124914103780474 9.204726024889245 3.6665850023299438
Si 10.336635523483395 5.64199803135645 5.370446601019061
Si 7.569634593880083 7.32681028907282 5.746339995769495
Si 1.7926615260717045 7.9226943955402405 5.458678434059475
Si 3.773491785875749 4.635752730495153 5.9365581803999135
Si 12.692909230377866 8.593082982267694 6.643164256786574
Si 11.503814963442517 4.709018150951282 7.172832122308633
Si 10.875923067872478 7.17550425718935 7.336278452381577
Si 3.4232278456359615 6.832748338977091 6.741845984297076
Si 10.265524025428704 11.46260388796297 4.418347481992069
Si 6.5691638893002855 10.05511471039923 6.488493196673926
Si 8.911465710219344 8.584661791822144 7.215005018998781
Si 10.649721023752978 9.771178216975532 6.092483004404216
Si 7.697190714225843 5.88006090896209 8.006906355910733
Si 7.780348493390883 3.466393433306898 7.491437700698628
Si 10.08179979513162 3.210580082154038 8.328356225815476
Si 4.674815515364676 3.4478243442573455 7.796083848352785
Si 9.934055461033019 5.625581426870127 8.960063054953213
Si 6.215000192675208 1.6709369498832711 7.619500531573496
Si 3.897876567469464 7.387980251338934 8.981617545707595
Si 7.377981460674574 9.68333462188739 8.686311745523659
Si 6.32340706090178 7.582455050108914 9.143859744761578
Si 5.136756358241886 5.343329330449409 9.191418649409739
Si 7.928737677233731 4.205547082900495 10.089487227898987
Si 10.218053277681967 3.97265725762074 10.635916540616197
Si 3.4490618969271263 3.4486212014027884 9.857236647117045
Si 6.148943258179804 2.5808811239381666 9.82588075071395
Si 2.9115690403073935 5.723433440989043 10.479813967375842
Si 6.682422446166336 6.014692699368752 10.986951417289323
Si 4.7338212695142365 4.85059146191283 11.676813623153109
Si 4.592743613829873 2.4245771718839015 11.684799755445727
