43
Energy = -204.23540585 eV
Si 4.917616761833609 4.590753853281615 3.075284408383305
Si 6.240517700010174 9.236039100726515 3.0416794321210827
Si 7.8892091951676395 7.685478074953286 2.3666848084711534
Si 3.9779762552503586 8.690077680538593 2.62828208161122
Si 7.1457319626062406 11.277658701179746 3.9316579703732377
Si 7.092481606665703 5.528860611008122 3.1939635906615167
Si 4.30383936455972 6.725459656625255 3.926063632571948
Si 9.29196103256461 8.23056292516886 4.167582941295367
Si 8.968050842278137 10.23796879712855 5.566125088297826
Si 8.976653290687567 4.801967801818938 4.3649347643538485
Si 5.451468698157807 3.9702873557872995 5.315298627389772
Si 6.899428520989365 7.360322023252319 4.7061369986951185
Si 6.351277337879983 1.684848960119338 5.357494521420247
Si 3.6119055022142064 9.852227438179291 4.5952559331061344
Si 10.648832729619496 6.381889435064024 4.948204958918182
Si 6.493061216691372 9.68722714788732 5.569084012751829
Si 2.5706805227775167 6.550652112133341 5.651983031429247
Si 8.574702751089603 2.69772446283087 5.302135214389568
Si 7.458291790119007 4.6657623593368 6.504768984925131
Si 4.925168696470172 11.828580273240608 5.1387005712697675
Si 1.6272959512898806 8.864665598137366 5.547866936875811
Si 3.5413181010013846 8.524330059057444 7.094002108289207
Si 4.86379510202503 10.510140818089347 7.150655446305861
Si 7.276623886490071 2.0342199807594876 7.513350601948381
Si 8.37991645077 8.028835221246128 6.522491844579205
Si 3.6415712688446664 4.704525826243246 6.775844880644148
Si 6.509943702242807 7.652093268252086 8.06708391724312
Si 9.929286085345844 2.3287388537909135 7.216423201241493
Si 4.986814337551325 6.698259090998518 6.408212688226677
Si 1.2380983711739928 7.643837284944523 7.563818651037335
Si 9.43760426619816 5.919860019251618 7.0506358748809035
Si 8.955376526686186 0.8692590997759065 8.759144984526387
Si 6.998168780696019 3.9817011490765486 8.838130247810042
Si 6.404029351245799 9.931807707132641 8.86166129103958
Si 2.959764180022458 7.596132573436132 9.331661425075717
Si 10.906108008347118 4.30201419075023 8.124434897670904
Si 4.129617524366573 5.573944016660267 8.905424008546724
Si 9.202754592444405 3.094417726565296 9.676028081446294
Si 5.386029206262931 4.451295958526919 10.526081155218613
Si 5.093149872270383 8.44563964875218 10.057490517141703
Si 8.87754673658652 5.615448040276892 9.448104001840024
Si 6.599272884190128 6.48252553141942 10.143371308180926
Si 10.767059036319925 4.561959566599936 10.566760357800032
