43
Energy = -205.1795175 eV
Si 5.484904285254192 7.889960763275764 1.5114630907174418
Si 6.554481592030853 3.8141174575948456 1.6940748325307757
Si 6.7262777439749994 6.05696222991681 2.452004927359417
Si 3.7728690925609736 7.076663243086684 2.8721341178941415
Si 6.044126594398194 8.941496851810953 3.5745140017328705
Si 4.633482951008499 3.1513887598250108 2.940120361092385
Si 8.94292333475373 6.825815268120346 3.016559159780614
Si 3.0000412328506854 4.900847874560116 3.335860085414193
Si 8.467322677566287 9.256361790928882 3.633179860846482
Si 7.115588291535729 2.4252227926813883 3.5356723369633696
Si 5.285796206969312 5.3256328840994245 4.286458738800773
Si 5.12179619949387 1.1490992423333686 4.10985305076095
Si 2.4190175501996944 8.256674882703583 4.447753753908502
Si 7.279588918439934 7.30690412395328 4.803655197952754
Si 4.39751052552883 9.282646036742555 5.29531144330063
Si 9.144415254159648 5.501995231103517 5.003387459205573
Si 7.91759453123136 3.5208454911894034 5.46572025553572
Si 2.9623826362972157 6.154217174026077 5.378563819907981
Si 5.805287943393908 8.397068817211164 7.007304210117497
Si 5.402247183538022 3.151698138953924 5.375802290058051
Si 8.468545981134914 9.242232138567939 5.966502429909992
Si 10.226202166899672 8.270037879213891 7.201843010987842
Si 8.247774562164105 2.7389477040765344 7.725096669447173
Si 10.66830918971356 5.915074892391492 6.7769414471966805
Si 7.055368195124165 10.638124088298653 7.227013286230586
Si 5.116752906660625 5.89151672960585 6.769531745707368
Si 4.342327491696734 3.412820478060168 7.51162983077456
Si 4.63938496683677 10.757283692731427 7.225729313569857
Si 6.863281242474586 7.943742663554045 9.087275501964042
Si 9.179728238933524 4.854837796734834 8.365160249601
Si 9.339087232552567 8.525198397556645 9.365058356246108
Si 2.829084040464176 5.286968150307925 7.56049567363494
Si 6.497527898731098 4.2697792333857185 8.036813307853677
Si 8.229912164584517 6.692046367740134 7.057735076251
Si 7.758810556905886 10.207573355895821 9.443517828197386
Si 4.040679931110242 6.699781421288342 8.97686841393297
Si 4.459903298193023 9.047667680471301 9.092038792073046
Si 6.0356777861201705 5.722963521804173 9.835083122142725
Si 8.943012778279677 5.526841976257196 10.598570363855604
Si 9.743344457916963 7.587856770240928 11.471856608464808
Si 6.029441735785979 9.426813739089317 10.943029751604836
Si 7.365138625586609 7.385764387212985 11.589850155612522
Si 6.9430498069480535 5.070507881401468 11.932966070864039
