45
Energy = -214.07325977 eV
Si 5.351077979825068 2.807435847709803 2.02173932475718
Si 7.436173126458891 3.88212517956194 2.9452244749021173
Si 5.920411623759257 7.9637393666662755 3.2270435793763292
Si 6.520995608716336 10.224481843998785 3.3461530377332864
Si 7.3384625651190465 6.11954430849163 3.6290424464682913
Si 8.8782527067325 9.913316663998748 3.604479461544508
Si 9.123590558086077 7.550346714874258 4.188003094645588
Si 3.2004088378220357 3.6753558641186195 2.8927831715485453
Si 3.9500732684926296 7.639069930487612 4.382301573147839
Si 4.381225437699057 1.6333252100081206 3.9009957463114153
Si 5.429687294335946 4.0563895788264555 4.297285955046173
Si 8.209983356980914 3.3835284587960848 5.250417730018449
Si 3.3664832645072438 5.3483685048188905 4.591579613109727
Si 7.379723561825685 8.867660156402602 5.305789516164238
Si 2.0797922921405836 1.819992653622929 3.7818523925374783
Si 3.1838272972588535 9.737585767362896 5.273708355719648
Si 5.495963755112038 10.413969373277345 5.653549883526875
Si 5.479266398473273 6.756634402678336 5.976671359401613
Si 5.560422747486936 2.246133519472896 5.888232023153472
Si 8.891598603702947 11.079183623613371 5.600279748641056
Si 9.787792293059288 6.6815520303955145 6.278606825699086
Si 7.606023429970876 5.579443550866704 6.066640911625667
Si 10.242908790744412 4.341014989430131 6.269846896681878
Si 7.695966034637486 1.2522698892544315 6.210192245540686
Si 10.299849456252135 10.754789899283642 7.437726900759848
Si 5.529473689435008 7.874050637748489 8.133981810288624
Si 3.839224596711593 5.209670870433885 6.931500285106472
Si 3.366893595377969 8.95012743925268 7.483974962153935
Si 6.595123821302016 4.593493980405776 8.083405540764403
Si 4.583510083841923 3.1758857809405354 7.797945443795912
Si 10.39671115694288 8.36966620644026 7.813608176291409
Si 6.047210655913858 11.885339392748891 7.49052225842491
Si 7.645524825254824 2.3873214499566218 8.330267861204623
Si 9.234944332970274 4.041992750768155 8.38877119617647
Si 8.003698614496242 10.634834340300442 8.040640171899838
Si 8.024809519065597 7.938552394729363 8.098363440621846
Si 4.808055194191866 10.254402472672362 8.72929737788176
Si 3.0943483888183896 6.847479274950387 8.47525777574377
Si 8.371261315878817 5.884692153554982 9.557862579794083
Si 5.80020696372193 2.6913045297332543 9.902285010072198
Si 4.794748523005441 6.764280897104611 10.117702888150017
Si 7.906175631617901 9.469821695729758 10.091468156469595
Si 9.63813059283475 7.833946237308114 10.04540121758742
Si 6.38004991344687 5.021267694233663 10.47862828780328
Si 5.629938295970286 8.944612472967371 10.488969291705551
