48
Energy = -228.81322597 eV
Si 4.630261381127883 7.219327214899824 0.8320338542208052
Si 6.158579687226175 6.812673447258327 2.598015590441689
Si 4.500783493260293 8.938944170507627 2.519853185409255
Si 3.658437399059974 6.200629987876665 2.7915590037355664
Si 7.294994939214165 4.885707647655191 3.4375651534627427
Si 9.415015999137257 5.814913004130569 3.7059000029723497
Si 6.106521089988437 10.82636972089804 2.6604307593528116
Si 8.305793249392627 9.916503725686145 3.316858510035573
Si 8.603599039936784 7.8537803506589166 4.479336868229429
Si 2.606845345439741 8.075281294153971 3.8310888190689063
Si 7.274139555774453 2.521828313535679 3.2495033846475176
Si 3.307095051035921 4.061725243471043 3.8341248601935836
Si 6.2509830772446096 8.649036616929237 4.275580203024779
Si 5.192418529283022 5.4998141252007535 4.708736782634851
Si 5.329802510170586 2.9460243391469367 4.512758876119449
Si 4.3432191555602255 7.582040531758177 5.489006403051873
Si 9.759364893926783 4.771571524464154 5.813748339461093
Si 9.276873952902692 11.262015873483259 5.0306281152430135
Si 6.894399545473635 11.317318069715979 4.935369589312755
Si 8.184417918219483 2.978605298748196 5.443562137305861
Si 7.3828423607778815 7.966045386516092 6.6102001686354965
Si 2.8950811670401415 5.010058587032388 5.969183583218948
Si 1.7078757662756971 7.0518628476557845 5.971099412684255
Si 9.723983017668873 9.038956957827383 6.280680174838749
Si 11.793566842108927 4.7463605758737355 7.055848915858983
Si 6.511744065710863 10.239610238214752 7.025623150844599
Si 10.599539045056023 6.836400999458922 7.242666951437847
Si 8.211568302238629 5.825615591143242 7.449767176530785
Si 5.023944133176141 1.9330035914388521 6.656557051813518
Si 6.465056782143267 4.050438234329023 6.793689447107657
Si 7.386518683713784 1.709018364134711 7.3179298177038445
Si 2.845997341544752 7.616344664070819 7.9611507602732985
Si 4.883928964308405 8.661366146770277 7.668033797177416
Si 8.593653618371162 9.071752183750268 8.432300936287335
Si 4.142485160055708 3.9189425766556467 7.6668861844766045
Si 10.258746241919985 4.3257893789809625 8.883779313639453
Si 8.047270152127256 3.4992477235611066 8.748560725885095
Si 9.572005932885812 6.983569189174628 9.325519956169023
Si 4.717717226273392 6.162129288919244 8.851316529065878
Si 7.235675435695657 10.805799638520845 9.27626262918952
Si 6.117931471865284 8.662025061713958 9.727473883517607
Si 7.119970885142716 6.520248610468617 9.464157148511681
Si 2.5797795894184357 6.514472220673409 10.079616624077703
Si 3.4398206676673215 4.203612760255065 9.951574208786557
Si 10.003746503809827 5.36041608875838 11.046655461560979
Si 7.671472714114661 4.539086117652065 10.838046665694973
Si 5.421741882242917 5.19490085448338 11.02614746500012
Si 4.55279023327091 7.418815621787749 11.213611422087823
