41
Energy = -194.19606543 eV
Si 4.613245213631821 8.445637675187253 4.094306188894722
Si 7.130852991460829 10.19069981019265 5.974951226652824
Si 5.096983650171883 8.877540044281382 6.523225098895543
Si 7.224495880471511 8.84374914363106 9.697312838340899
Si 5.126328837145052 11.341345476285255 6.675324703582707
Si 7.867919870477437 7.208085045416628 6.182240395562049
Si 10.659383914355923 8.460910685557353 7.754461975206088
Si 3.5930944664059976 10.302273435786883 5.135761277585915
Si 6.822994884566593 6.726907075445204 4.061334807581652
Si 7.863737089632757 9.053349422305072 4.030394549255115
Si 8.376802241516817 9.108940328844271 7.653876934554302
Si 7.907675403883246 6.594299071070331 9.961244155854121
Si 8.3072747076785 4.860997234478798 7.062821643192132
Si 10.075471866776322 8.33486058348222 3.3072859666808068
Si 9.121262698158475 6.136239026365508 3.8257720019286534
Si 10.4113527241154 7.578916981736262 5.531090676758568
Si 10.894157794691028 5.279898635825399 5.623697547331074
Si 9.67521194096014 6.368222210248665 8.420843079429524
Si 10.123994144145488 3.9552118671521037 3.7319293174740134
Si 6.256607223879771 8.349827217369414 2.427109843983964
Si 9.729621461247673 2.7991922603532315 5.977591187526699
Si 5.942010309481305 5.3290164793942045 9.870033536528524
Si 10.648461648501991 4.253531552341792 7.787220591747891
Si 4.309704659048454 7.01073071862021 10.183472121115996
Si 4.872242458190265 9.118407106694065 9.131066286903367
Si 6.137904635443021 7.134583442843019 8.149223836011014
Si 2.6082370401343824 7.30054030898777 4.710449979321042
Si 2.7716519995205675 8.282596032445316 7.0934290675141805
Si 2.7897058952079417 6.410255196829912 8.510190977390055
Si 2.405867075646811 4.445148945041812 7.326212855355579
Si 4.186554076789963 6.209494651360637 6.528784537098314
Si 4.340897685482239 3.2689518007068408 7.932492170675254
Si 4.18115104215034 3.38863983756503 3.843670647159487
Si 5.271205668523492 2.612933205177929 5.91182453289689
Si 1.355486900504454 9.246641667315163 5.503584304104495
Si 2.722088308662313 4.915821276907829 5.022609224853796
Si 5.566328938265903 4.934500493092885 4.957867479336483
Si 5.646501257914027 2.955917255572039 9.888632163080551
Si 6.969236026966046 3.127301578218603 7.905891926795952
Si 7.8237217751381705 3.8494974034198597 4.88864066330582
Si 7.481543286969797 1.6149732418420581 6.111097184229874
