47
Energy = -224.29165507 eV
Si 6.075317764746862 4.9783570761521245 0.06214088745718733
Si 4.498152506123627 6.894729312620735 0.2333917168169366
Si 3.9917792341919136 4.571537750550502 1.2457861147187954
Si 2.3224511072413776 6.368202127673426 1.280049862707716
Si 7.197679684932061 6.281547598957122 2.1231871847501553
Si 6.057103983264322 8.311197181575706 1.488931058511056
Si 5.744415524589672 4.528150533816046 2.802472563152723
Si 4.711093359823448 6.654766231193749 2.694532394797747
Si 2.708876764418399 7.2703723541798215 3.6224490981404833
Si 5.265464548766185 9.050355311817093 3.6815877112357343
Si 8.54659781318347 6.404803491471128 4.073622871219791
Si 2.9887324888456854 9.619381341283948 4.221401008187487
Si 10.531735617250513 7.694628585601298 4.453554681755309
Si 6.2691550059228875 3.075156545352746 4.565820178887654
Si 6.750263004810048 7.65099002897087 5.039324448813363
Si 2.7958022748529126 5.849200412682773 5.5440811430845445
Si 8.137721421654591 4.411385539770163 5.334946494224622
Si 7.016849414770322 10.158105459027647 4.935683137650939
Si 8.906230908435075 8.87413132040207 5.748140625492514
Si 10.302142139370428 3.8744230922322767 6.26202869345007
Si 4.954093644714357 6.8618326550710576 6.377542419894676
Si 10.526321707898866 6.241165241368412 6.305592131346285
Si 4.5920948047828745 4.394930694603076 5.7211725472812365
Si 7.441867068343751 4.493474494328345 7.577298058478728
Si 6.5469739745254865 10.375667732945502 7.236132768226573
Si 3.2480540931392596 8.62764576786638 6.383560040523209
Si 8.786907738236236 10.169575562688712 7.903937546517238
Si 11.164766631015823 6.374139007687127 8.565704889243682
Si 8.845546133473235 6.563895639888608 8.985977056211906
Si 1.6735997470940873 7.034860837131987 7.326607737490878
Si 7.533599811637284 8.011830883810244 7.581853797737175
Si 9.918990955352907 4.272399101103737 8.61527460393674
Si 4.663631933026666 9.363868878852115 8.075246240372989
Si 4.975321232605346 3.5876017928110198 7.9111171733565095
Si 6.812429464814758 2.1252608873881407 7.929739643700833
Si 5.8444087734125185 6.069952740711995 8.485096765429267
Si 8.563154861599797 8.909390366471305 9.930530015306596
Si 3.4235290938668657 6.806483637675428 8.930514647304843
Si 10.508506883740639 7.622584719175781 10.59753618635914
Si 7.642152461115117 3.311443802822389 9.807915805221793
Si 4.096803845669539 4.708193898939027 9.783970363902215
Si 4.316695977458928 8.584046301559134 10.210584374844911
Si 9.753399764916022 3.47818459055666 10.844814903813862
Si 6.528441369573728 7.692463647572369 10.515407639006531
Si 9.009620141591101 5.777161326604877 11.21608565851277
Si 6.27489522347178 5.096545027246935 10.754970509593555
Si 7.038764630896056 6.426116002955772 12.514821136497336
