47
Energy = -225.43896759 eV
Si 8.145913176576746 3.509303622398498 2.5677313715887315
Si 5.9376213872416 7.055766186949329 3.467235943740518
Si 7.931322285798638 5.775020574293484 3.285428765781518
Si 6.300636789314297 2.3834002182734926 3.5026482982789
Si 3.9433728887543076 5.776628092889617 3.2437642889694844
Si 10.160908623287083 6.543412377504883 3.2250708716899106
Si 5.79141502835674 9.318553042707359 2.921131581989375
Si 3.6248404852479448 9.943420726615523 3.469415132415479
Si 4.689671065536636 3.874983405902184 4.398176077726473
Si 7.236889301646859 11.222086857819322 3.321789358237162
Si 9.95374038938397 2.7632918674067914 4.024672873974911
Si 7.079175219868378 4.258148757294675 4.952214850125661
Si 9.397315590408061 7.822807576694646 5.019555404230498
Si 10.546678478198844 4.85588871497495 4.881420278288658
Si 6.349354228892735 8.896941221290561 6.666656415706541
Si 2.1981601591045967 6.417455078575997 4.73136882509125
Si 7.172041152697001 1.7738983945545943 5.6391494930173245
Si 9.51136785959022 1.1453238060958513 5.839155701455629
Si 7.892102859819182 9.649465563486537 4.984397070490958
Si 5.245288280125906 11.041908376700588 4.673437206459552
Si 4.614478533533995 6.673448333934718 5.539461245263271
Si 3.051908130748881 8.540791619784978 5.318394402771129
Si 3.379178660449887 2.8592054750335496 6.069141020854761
Si 4.578260524542735 10.523023031818092 6.869430083226073
Si 3.0076609704538098 5.143857752399573 6.628640523618528
Si 8.953615711858406 3.381031761202271 6.218463251739553
Si 8.780951984639248 6.9478578914256275 7.094482844552493
Si 8.321958586471915 10.336048470024755 7.279820235072436
Si 3.4737839592677133 7.8734321325449415 8.741653301725254
Si 5.743005895077738 7.183684081484401 8.23103440841521
Si 11.143727296355435 5.581212579773044 7.132735536798538
Si 5.520870877879161 2.819747860383182 7.09218388282348
Si 11.053605768797883 7.946484668779852 6.904198613305699
Si 6.334053554424828 10.846208543214232 8.379439217242448
Si 2.459169746297493 9.586992649952798 7.356963544790959
Si 2.231463846661104 5.795082017034103 8.781255338184247
Si 6.505408145843712 4.980328353123931 7.717386571997849
Si 9.069653534201434 4.764147336828671 8.087032083038642
Si 9.509791835765414 8.708823315022427 8.585602984631416
Si 6.015645769115905 9.142029810920247 10.013313207426721
Si 4.3497072952741105 5.167143520989807 9.550531366361334
Si 4.0114900673467995 8.54250649784337 11.063094574186902
Si 7.671602557337888 4.499396901453347 9.93037077806358
Si 5.741378993331034 3.244619377414953 9.406136573137742
Si 7.773129907922503 7.658236296184434 9.937970442409425
Si 5.422361922292928 6.617624151213323 11.033997844747939
Si 7.662230399893229 6.097240833421419 11.710756039990944
