41
Energy = -195.45043623 eV
Si 4.779013102679998 4.452288346326625 1.0395301284599179
Si 6.23276866547208 8.11561647107741 2.1191474286854617
Si 8.193333908251672 6.732236395667548 1.918706005947057
Si 4.450872568029773 6.643813725571431 2.0022630769712784
Si 7.075516389803809 4.662569911563458 1.8300443870553909
Si 8.409966607632965 2.837080764620513 2.786636444927577
Si 2.452510834972147 7.254561328964694 3.2046405813648278
Si 4.946430822941999 4.379025304669293 3.4187759657524337
Si 6.00198149684439 9.665211894921375 3.907685211823308
Si 6.510203459338997 6.310154384634111 3.7977423488712674
Si 8.863340978138945 6.517382939281612 4.2303314110173
Si 4.1395112229650755 11.148135467513562 4.751474792589099
Si 6.783144338392029 3.2863245923446476 4.382508861622353
Si 3.8095136005590695 6.058163562820095 4.741138234060675
Si 9.08224480669726 4.236810985527956 4.621361951256945
Si 3.7434854770445813 8.866187436284962 4.355118652219185
Si 5.514357010698683 7.715271188397917 5.6341357138505614
Si 7.621563308394176 9.20612637459377 5.672720139629151
Si 9.797275836249872 8.17555645529855 5.5750370544543735
Si 8.844957041407795 4.26033300896614 7.031704630579847
Si 7.061728767961627 10.534893116265328 7.495106137282436
Si 6.918433694965589 2.6962533985623414 6.6501000478881265
Si 8.935756648415703 6.726946613118745 7.287541059700477
Si 4.880027804247537 9.959906022440109 6.715724351133817
Si 3.7430764841863935 5.3967576012205996 7.0326814979906995
Si 4.7818434263121405 3.204484176656308 7.617307685823166
Si 7.39835984131757 8.335152907826037 8.309683823910644
Si 10.079538265595207 3.717469346126328 9.073332678344437
Si 5.539525573214039 6.8386812449373 7.914069267546765
Si 9.725346008729403 6.122053207979508 9.460014452699166
Si 6.591943016473314 4.772283121731905 8.0671011010173
Si 4.755295840061317 8.974106253531437 8.900105764596422
Si 3.1831203054986146 6.881906728011224 8.834997472650366
Si 7.947530207689436 4.230718200336029 9.976290016570372
Si 5.559780028337711 3.4274199438803907 9.913416673854213
Si 7.86184715748437 8.471672017881257 10.586654551091732
Si 4.760895545161737 5.642787006866968 10.07421218255398
Si 9.900925521912088 7.460732198876614 11.45191978090345
Si 8.001035522757459 6.042220138035108 11.503915041451851
Si 5.714544612288182 9.444491267193175 11.203623771078387
Si 5.907454250875637 7.096214949477179 11.411499620774736
