47
Energy = -223.97981816 eV
Si 8.161329719567638 7.546693567634006 2.385688388100243
Si 6.011536051113317 6.554349377690893 2.3463467920280587
Si 4.280335766444354 8.09198438436916 2.740907278627835
Si 5.210511667167124 10.372235983922721 3.1160673485319808
Si 3.0134596137775076 4.352663105098138 3.4131221214094434
Si 5.373474409400137 4.462864998709413 3.119964857414686
Si 6.993258817771076 2.7056679313343213 3.1968847923580372
Si 7.478486777612356 9.525924206423017 3.543197962377368
Si 8.769632607943631 6.251217625277454 4.266910535539527
Si 2.86953445011436 6.678197997942493 4.061821890308728
Si 12.537383052361983 6.921413090058023 4.821739128372563
Si 8.123254016013457 4.019194086514473 4.816580893285322
Si 5.0058475639018996 9.192567818160885 5.130329561060153
Si 3.8774935481797903 3.5096316508674774 5.442273226916081
Si 5.259274852578203 6.741370513524221 4.669810038696145
Si 5.8164576101591905 2.1898520947339435 5.291794672146118
Si 9.303221043701363 10.043239791636578 5.095970680271909
Si 6.412298335576581 4.189738634561597 6.632659640595969
Si 10.226100590980527 2.9777727006191106 5.560965731996628
Si 1.2135246400572903 7.554332754117456 5.52650839690651
Si 7.363288169780202 7.897593936321219 5.29998517194125
Si 10.347446354119016 7.820462682903366 5.203048699198044
Si 10.893779793882446 5.190427422552354 4.818816283141395
Si 11.672403417296309 6.496112900939956 7.019356892682224
Si 6.220449735337966 9.310923227941833 7.201767794918092
Si 3.0188352996734795 8.860140978530739 6.454753354270623
Si 2.4627259596118183 6.542288135824879 7.23102614467501
Si 8.695228956068576 9.745200910251826 7.484613706059485
Si 10.07406535915369 4.638185624123633 7.193234904967227
Si 5.8060332091837195 7.145254950721326 8.144008441911705
Si 6.087971201219723 1.944286995384449 7.750811403361643
Si 3.972940267935891 3.063356522140793 7.771605748668971
Si 4.575157458749331 5.664211924299555 6.690066200017872
Si 8.078515639292778 6.0227213413154255 7.933906417533444
Si 9.845837000295349 7.763556602413631 7.883615133376378
Si 4.065848513937185 9.219934887907261 8.540942622057422
Si 5.425748756119921 11.160116198403493 8.531139348209393
Si 7.351457587935769 9.997754537831037 9.416243692424048
Si 7.0682387830826565 3.897931156075557 9.01688468678835
Si 1.9211775690304635 6.3737042764937994 9.539029584534758
Si 9.347285301273429 6.807853583905233 9.996618926384588
Si 3.4804860691208255 4.640469653845369 9.368876590240562
Si 9.360893719246738 4.468363031491792 9.46120238403831
Si 4.099056598732572 7.3012400986093855 9.979283324115123
Si 7.169751829836352 7.7405542182477705 10.16613983398729
Si 5.517210363358398 4.996754353074367 10.395988667345954
Si 5.641751952306867 6.909687535256789 11.82749010621044
