44
Energy = -206.91825247 eV
Si 5.3931742491810475 10.030605445648002 7.57382885765641
Si 3.9862756481010444 8.043508728600047 7.811704685683903
Si 6.998703044780007 8.548287410510824 6.5801187345424434
Si 6.949585856748422 8.490282926818915 4.14825219404397
Si 8.55275872307403 11.7221679962083 8.091591519231383
Si 9.151569525700038 10.707182485067683 5.967099586816316
Si 9.07425099226553 8.343518024030004 5.42706633616457
Si 5.497970852047572 7.245938136854036 9.63771560647895
Si 6.746422057627155 10.795387971328259 9.489679221179143
Si 6.88125955751375 10.696118030645302 5.237567033070645
Si 8.687273331225873 10.110284749917156 3.5959328468880463
Si 5.971436523198981 6.571649377741956 7.354367347614786
Si 4.447829095921695 9.428737778629266 9.838788271490559
Si 4.988704915959904 11.910611691424887 6.127433608060833
Si 10.807288882254536 12.229430160282256 6.782740747081399
Si 6.447217830441528 12.745361391251402 7.873166449548783
Si 8.471098057525996 5.3006543900440795 7.041093643992346
Si 6.24013394685546 4.276993196030587 6.903750869112072
Si 6.274159013101983 4.763892396051198 9.264187974603688
Si 9.112620474823188 9.381679314496465 12.09032712077123
Si 9.197977425898001 7.261413237853849 13.199463052644257
Si 13.49634664623158 6.338949580706422 10.431314636388358
Si 13.170964604902096 10.76829042873139 9.487936249174446
Si 9.806266098745159 11.635654340390762 12.262223342198645
Si 12.785784539520193 10.867042763861157 7.111459760963506
Si 11.430862273444086 6.2636914465716425 7.340331800073107
Si 7.150094441852649 6.67579490340445 12.041032014841289
Si 7.1491150254344396 8.740203678337828 10.60963435247753
Si 11.16075087626137 11.65459363287626 10.316189814649807
Si 13.76762366830994 6.768997499380716 7.9698146736781625
Si 9.151553391839922 7.237463888722976 10.681307527262824
Si 6.959372497649532 8.873582739479554 13.036814538660254
Si 10.114964034969635 13.371394661819599 8.944621918601612
Si 8.37659580787645 12.45253364083911 10.544128523092443
Si 10.346726205440039 4.252839287775971 8.214861598359787
Si 10.284249294329365 3.9700810680851335 10.567516346969748
Si 11.143098606169696 6.168650920074604 9.808906430853524
Si 8.51395356730207 5.211411947181916 9.554691607071707
Si 10.021246378088353 6.142910145996386 5.4345687917297845
Si 10.750799296560514 10.171869973295541 8.501895163388607
Si 6.053980086878896 12.974990893439127 10.226894115126415
Si 5.106445419350113 5.5180766496036 11.246916254270566
Si 12.830479717101586 8.43640977679467 9.786665472160603
Si 12.20359365222464 8.553437427923765 7.496975496059364
