43
Energy = -205.7079568 eV
Si 6.945220499924714 6.0699475476988205 1.0580916009077186
Si 5.492779312268535 7.017761071696173 2.6758366299068994
Si 5.6588501913207825 9.42809574296825 3.1548037649048615
Si 8.47039883940723 7.16622490413269 2.612787374984505
Si 8.104529722464502 9.48012564029917 3.2544947177141696
Si 6.8919891894705225 4.435579199221929 2.8309114574731042
Si 3.6131708223036965 6.226353615955919 3.8584226483738715
Si 2.788647239214043 4.01895978133724 4.285768844596899
Si 10.390831484166876 6.376590437329716 3.7888510459760814
Si 6.6740716484204325 2.2322046820482697 3.7062735388309873
Si 6.861704876704423 7.788557800018888 4.570567445717484
Si 5.190775042616828 3.989133722283312 4.567426801553933
Si 4.7958582345025285 9.317440620533162 5.37668747877119
Si 2.6587151359189005 8.307097499440896 4.730728037288436
Si 8.833872975415323 9.293475318957046 5.486192225124312
Si 8.106899117341209 5.518569235646912 4.5358414286240905
Si 10.29795795693838 4.321940204839517 5.067301250450303
Si 10.848345477085303 8.069809919557965 5.467593447071224
Si 6.459059479798734 4.899622524648469 6.358185734445172
Si 8.238263423988137 3.120618509471659 5.324428547247789
Si 4.15305585030731 6.986530311819514 6.18713629201633
Si 9.02034250537543 6.713309904600511 6.443425519797636
Si 2.7601653581530328 5.063194597458212 6.477560836486354
Si 10.366911678324914 4.921678059320479 7.399108945772677
Si 1.7753890517041269 7.292164674893234 6.736045631844376
Si 11.042141009297975 7.264508494630591 7.792901833562592
Si 8.311521247289601 3.767766403801752 7.650223677716816
Si 5.609375996319547 3.8459138559054975 8.366106476381475
Si 8.276543898411468 10.435306379007763 7.503830210945421
Si 5.553812740952176 6.3171740734108255 8.974328633932384
Si 6.005411289807004 9.612380788095132 7.451975963484405
Si 3.2423291946270107 4.068522899774325 8.625301979986926
Si 8.83459652536663 8.227614283643277 8.336190098163058
Si 3.3080962390100654 7.891655257321757 8.420575335650046
Si 6.993089296854584 4.868214876671236 10.259893617870732
Si 6.490689969636712 7.31549418614267 6.916909999280336
Si 7.300851605235357 2.614473890901324 9.497839660075565
Si 4.374421151131002 9.852698318579092 9.191620702143728
Si 3.3358583185983837 6.064610935630474 9.941374624266052
Si 5.18392748631431 6.009565520807666 11.552436630847506
Si 5.623890464452338 8.357813703155214 10.54192942050315
Si 7.757640630935512 7.15068196429333 10.154094167385816
Si 6.857997822628082 7.7806186420527474 12.367995721926563
