44
Energy = -207.11512269 eV
Si 3.5344908500051138 8.052847288414693 7.339053538191621
Si 3.0815240604761405 9.080494043362112 3.356706510770447
Si 9.343611460622073 4.367101160791224 4.269204910387186
Si 1.7462251412798537 7.794159750622483 4.805482527463619
Si 2.7014740026670796 7.819206824115926 1.2947001293520581
Si 2.2227097593728393 5.093876215360696 6.542609431908284
Si 5.428428323856351 9.10054407006693 6.289331156219371
Si 5.845126568192591 8.642311646384977 3.8525275858890287
Si 1.2890706015351523 7.3056702153123885 7.142541212669641
Si 4.89446554222054 6.592610819787376 8.6233845031232
Si 1.5591118848447487 5.540781761612012 4.1828053870511015
Si 0.7820067050216072 3.8736092201688836 2.3837058188921714
Si 4.983836862593906 4.859949843730222 2.709880736981124
Si 4.83484167823324 7.3594624055825335 2.1089630854130608
Si 4.457795185560963 4.348475149707725 7.795670890521335
Si 4.957106997824957 2.727700515887375 1.6498066629696169
Si 4.16236569402273 7.3344914338501725 5.010861193821713
Si 7.015785347310001 6.827226568461715 9.704489153681369
Si 1.0162187463339651 2.573261139650147 4.649413107883845
Si 1.8565977818602488 2.70663312752256 6.861857919683581
Si 2.6766368046850344 5.507664442350401 2.0099662548498456
Si 6.370720786373056 5.097427554319819 6.522430877861947
Si 6.859710531962283 7.357607595958939 7.225419499117552
Si 2.4656726214097073 1.780410315124109 2.9130730942219953
Si 4.283724925628166 4.943984345252442 5.158268593191358
Si 2.5209670444034002 3.3068018358712803 0.891097306134148
Si 6.989217560979754 5.02901058751241 4.152045841129782
Si 6.925471782465092 6.137435341666485 1.5949496175676647
Si 7.898537915079969 7.2396048343018355 3.5768241137603947
Si 6.747611162581738 4.388214884495562 8.950471037106597
Si 3.6487847100629094 2.635463530343857 4.941044386966889
Si 4.127517133826819 1.9217736274466508 7.417081211279639
Si 9.248901107199634 7.459568137924563 6.7691020435557885
Si 7.1664775733678585 3.8192105897095328 1.206906185045621
Si 8.763154176837956 5.7230941290496515 8.267954189179164
Si 5.413595124579248 0.8746644712698177 5.4848459572801485
Si 9.343611460622073 5.8656309467772845 4.939923999202773
Si 7.389343859178107 2.1221349461303616 9.148469013006881
Si 6.113064892727162 2.096478533232572 3.5717117909864484
Si 9.163938376125856 4.798739912982381 2.482468077876418
Si 6.651687672170654 2.3923528807357317 6.864547776684247
Si 8.293377779521496 2.9401871614254085 3.7171147298645835
Si 8.476314253917339 3.7524095897535243 5.978664221047874
Si 9.24462574234231 3.4277748390567218 8.260682953291846
