42
Energy = -199.87595549 eV
Si 7.49317707612108 5.941728818398829 1.7028839130561844
Si 4.016241402851232 8.22146595281224 2.0350731455078503
Si 5.618276024849505 6.680741319562824 2.941468881576768
Si 4.827001476668323 10.055735903367895 3.3066565101525494
Si 7.960526187573944 7.866110151856019 3.013143535179826
Si 8.540992194903296 4.814058578080413 3.512274059370188
Si 7.261056666854921 10.232488945003247 3.214734096042645
Si 7.5177607048157995 3.0750635580457355 4.719236085851623
Si 2.7732915461319765 8.426688274598394 3.9963746454838627
Si 4.866187171054352 5.509133760323032 4.81530142512034
Si 6.1143119240666985 8.439931809643424 4.641824520273604
Si 2.915373295876916 10.804252618188306 4.605173563524371
Si 10.604152564965394 5.147360718023995 4.545720577456519
Si 5.151944325665559 3.177189895593319 4.902572949627258
Si 6.657982063593208 5.113158460160867 6.415034271609325
Si 2.857706620572551 6.533383644670389 5.5008781302581715
Si 9.583307943435972 7.279720739679739 4.655284428898797
Si 4.6291265994478055 9.976616291638539 6.037670703095784
Si 7.826127500082126 10.163350068850939 5.5697873203094845
Si 8.554532316400802 1.9360185145471716 6.535762721928923
Si 7.77282736968538 7.669091437900215 6.165261543626927
Si 9.900266842938983 9.124849344307187 6.1065300870900705
Si 4.424329046525841 1.6402568845966436 6.459069036560901
Si 9.203600639460648 4.2164243309026475 6.294741666672317
Si 6.348472600117897 2.879661576597969 7.292871381719783
Si 3.9285392789960993 7.9671566114568035 6.98541871790979
Si 5.708466090883326 6.698418792331986 7.924429231182991
Si 6.415648763578045 10.888719329095887 7.355700772971893
Si 1.8955847529753034 5.152855294664658 7.303281143913841
Si 6.934843092305726 8.687670837393314 8.313910231736514
Si 3.5970367628945956 3.552183370471745 7.5645906261126505
Si 8.655041049619445 5.5490363905073865 8.176168945734418
Si 9.338709112610687 7.847395318070697 8.185562586932171
Si 3.275885454241495 6.527173965072151 8.695505389773844
Si 7.26149764386194 4.1939791483789834 9.622928881738867
Si 4.889851441312138 3.1067470926746643 9.486482977214415
Si 7.928832414789238 8.120045143501216 10.412521273571011
Si 5.066704214260591 5.480376364147134 9.921117918862036
Si 10.321006655383348 8.038969494775856 10.409103744874786
Si 9.324707978418655 5.842599718681188 10.46433550667644
Si 6.847935360268971 6.16886379474283 11.314713070013957
Si 8.19113782894246 4.253327736684323 11.878899780786929
