49
Energy = -234.06717329 eV
Si 11.451319244745012 6.506394588863962 0.9929621453760494
Si 9.305259584260162 5.465193657618187 1.219630406719358
Si 11.400336387779612 4.647194256011892 2.5046778265783733
Si 9.477016222161309 3.2703183566003053 2.177040339655135
Si 3.7260635609622 4.330296901723179 3.3475618703318384
Si 10.342597120954638 6.934532882822383 3.0901072836037504
Si 9.906214691355949 9.279294693468835 3.329210000381427
Si 5.493223362291661 5.916553408488847 3.1827319952602116
Si 7.82945391287807 6.013790476941784 3.0822427287966523
Si 2.358387731725336 8.008606432513194 3.8654561800349
Si 4.679740548258756 8.097955907528753 3.389955228305775
Si 2.5295904579403867 5.821535005117009 4.803546511005103
Si 10.342394284861195 5.017960436293852 4.686576425457775
Si 6.17601034960386 9.944136913420884 3.351337314863792
Si 4.528593600552136 2.8070591258958744 5.132509489441005
Si 8.329719140869043 3.98083406252604 4.1326067145570216
Si 7.796822843853443 8.243882042796658 4.070444365646645
Si 6.794607368265025 3.2108584764833052 5.707265810702319
Si 9.7740081934286 8.877935800669944 5.625135101094979
Si 5.039491796964573 5.267857002388775 5.475813177964391
Si 2.4963151378955653 9.758344949716058 5.565283071892604
Si 1.3558622480597393 4.935088344756367 6.666129356565963
Si 11.437681923859042 4.90820190170575 6.803143204136933
Si 3.8887339996456074 7.611468389387557 5.791945010341573
Si 4.7285834129128475 5.562574779071838 8.279450937123942
Si 4.985279102440601 9.713934847439178 5.408226755480853
Si 7.836901962898625 7.4594752609031385 6.478761835768557
Si 7.801873623030823 2.165210040575975 7.601308326007579
Si 7.249178468994716 5.094001066540364 7.181553381341042
Si 3.437405807437033 3.8066078929986653 6.9851140194766135
Si 2.8386875380455487 8.75972070315048 7.721465723279602
Si 8.28593055866941 9.783100391569654 7.354323427642983
Si 10.259877422570472 6.96745300705529 6.93297088543822
Si 4.049583350971566 10.550474735999241 8.780584215856392
Si 2.454729700893936 6.489299629507742 8.132426132765458
Si 9.353193219365629 4.093847664591839 7.7104285163844715
Si 5.873173442509359 9.445186639995402 7.583027725789803
Si 9.148891245535257 8.049813540348339 8.64615205017824
Si 4.050698090582114 3.4058508158599445 9.28706977143383
Si 6.0663707570185466 7.43122672411001 8.915906528484769
Si 6.4149259997252726 3.551922885366106 8.98209816656093
Si 8.2234548552872 4.855839561598232 9.616053277028039
Si 2.9081464788336526 5.377907029070157 10.230321513520828
Si 4.96876739049383 9.06802552081332 10.411685773678611
Si 7.879131972622471 7.08161925617003 10.354120380082131
Si 4.68913934552914 6.764713006418859 10.941624249981583
Si 7.046561968583561 9.093081009483548 11.715341530538037
Si 6.5249997852042725 6.62677118144652 12.464968999682656
Si 4.965070786668348 8.447048796172426 12.791704317757137
