48
Energy = -229.64753628 eV
Si 6.06297520992877 5.4334812880966075 0.9068632460376144
Si 5.29889740370062 3.2173517900398076 1.619831782657648
Si 4.481675023318267 6.769991908793257 2.1315105630282254
Si 7.988428695480355 5.637814803624776 2.320482015063262
Si 5.761482304196765 8.636075696460095 2.9400594342274124
Si 8.032946251985909 7.9004470766326795 2.8921170896295942
Si 2.2517064334340433 6.111730127250624 2.484340568002447
Si 9.315935527124859 3.76008143806334 2.931838603808125
Si 3.578756735465665 4.174844365319261 3.0164101989706396
Si 5.859731019626303 5.073247407188231 3.365909758616009
Si 7.0327433907885295 2.902062973099807 3.300619785900089
Si 5.545371416214105 9.637088475110366 5.063439019751956
Si 5.34328135628702 7.131715769091617 4.885136190270411
Si 10.037873569493893 8.767978940537235 3.792115384692005
Si 9.113995950301067 4.918828398273731 5.0698267214076225
Si 3.0479071738754344 6.454287601759026 4.7414292685939845
Si 10.846981020636523 6.79407489480629 5.0308147844353295
Si 8.406687847129419 7.249805322545653 5.161359574685743
Si 3.8184284077992077 4.168361119472711 5.360333449490305
Si 8.196080672780768 2.2760501372279665 5.242996468770861
Si 6.256920928736865 3.844188477172879 5.63049440765498
Si 7.717543905677515 9.704137958514398 6.0959719052405585
Si 3.9865868363906136 8.686633399807802 6.568062226017569
Si 9.882425117608392 10.554249281060288 5.452669712730822
Si 2.6450707457663105 4.19605409892925 7.471740926387609
Si 1.7933423464886153 8.021573510993784 6.1212231600783245
Si 6.749157619325732 6.0777274315884275 6.552050223784155
Si 10.077931567625539 8.41549764607882 6.5387805149280265
Si 2.4354991522750042 6.518155168277772 7.784517306953208
Si 4.730584843731395 5.443029594086807 7.975918331866681
Si 6.821628134280773 10.75363519477359 8.178478337040687
Si 8.444512201741984 4.515679289186831 7.472118052825892
Si 7.154791127787517 2.4803460341915224 7.5083156700150715
Si 7.167482361571646 8.17455786704611 7.958251993164111
Si 5.007061617123233 9.265404956071697 8.649518054898381
Si 3.534747331743151 6.368006120530663 9.882817954601181
Si 3.4759653566830684 3.872389044571472 9.762194289523334
Si 9.42905096665637 7.853506087355576 8.832949768757224
Si 9.329503818545701 5.540120243042638 9.397666715941623
Si 5.771339002333134 3.5836225562734425 9.09102626815918
Si 7.912166812427708 9.736872907669769 9.989727657307688
Si 6.099297189351432 7.23862250563356 9.961002245181065
Si 4.273506387593867 8.565176144750314 10.866841730367735
Si 7.0629405162474255 5.120523329731644 10.288946752223032
Si 10.08415452160837 9.126962258570916 10.719807891563017
Si 6.62388032309493 8.836429111153937 11.79020751536514
Si 8.563954856487188 7.413299058686548 11.461735142473646
Si 8.9470690015264 5.078281190854207 11.739531336908694
