45
Energy = -214.32334929 eV
Si 8.416249559144452 6.460392408269778 2.094880218140738
Si 5.54976614853365 9.141765563144276 1.792737000640844
Si 10.800932726753954 6.002091763219371 2.21085825931301
Si 7.667119924212769 8.619985486901127 2.7294146442085188
Si 9.616949487411915 9.860675786847443 3.1342957328360823
Si 7.347448665245215 4.455330712412466 2.6378252114864518
Si 4.663543801300324 7.48221595436446 3.3418049013262845
Si 3.506963588644077 4.146973803153207 4.591248167357823
Si 5.554539364449281 5.255006072382625 4.029975259369858
Si 10.332706262252204 7.659981665142249 3.8480922411454728
Si 9.375044128200189 4.936836120542908 3.789111322810009
Si 4.6227318481052535 9.98338146777096 3.867989311668663
Si 2.665075124979718 8.636805788871484 4.101386046437956
Si 6.175297349909028 8.409742050248328 5.042220623202706
Si 8.132815878841638 9.879321327664773 4.970594238138292
Si 3.350238927047269 5.7562460274034475 6.276040752392511
Si 6.067872110871509 10.946634718885386 5.513078882488911
Si 4.484431179302198 2.8552184264099276 6.3914159308224185
Si 6.623072694167201 4.382510408603154 6.03274864757184
Si 9.119661592654758 6.440660531503679 5.7796383484444736
Si 10.2895664311512 4.0916954149887905 5.862780318911829
Si 11.157224329105377 7.868962877206119 6.140844845680544
Si 10.980250613485387 5.823912790722753 7.365521408922045
Si 5.276473450105594 7.2114785328959465 6.934941455869475
Si 9.104801058915326 8.784329520495177 6.820044826637148
Si 2.7103575037852834 7.982719528402489 6.346946580813554
Si 3.744201868899241 2.719491005203366 8.884478660487124
Si 6.593933823429653 1.8720120391517712 6.09101056352072
Si 6.034763072893102 3.395017784288856 8.270539292710888
Si 5.921708764050091 9.669396188019995 7.541356195081348
Si 7.481015426193382 6.66129018217691 7.6133357670982305
Si 8.5325812841175 3.5643800766911413 7.365209130621968
Si 2.688692720983185 4.777966573090629 8.266720082227321
Si 1.893382024598079 8.66885135462518 8.4661146310104
Si 9.07375690671428 5.405482980480665 8.863354149795667
Si 7.800112584815289 8.857860397436442 8.723526008389051
Si 4.22817963111902 8.622477329680994 8.667646703732443
Si 7.582844175300032 1.5910545222125645 8.256779804980011
Si 2.3828636136061725 6.605916039643493 9.637546302654247
Si 6.505892436765418 5.427415828721216 9.688081389629748
Si 7.417631402546249 7.613931345415398 10.773250994323762
Si 4.257776617174099 4.8306219288511825 10.212083684188718
Si 5.073512747978102 7.383255352745277 10.527127109485425
Si 8.37827092654293 5.423707275257751 11.17448011684295
Si 3.3177462237007136 6.334997047856654 11.83092423658366
