49
Energy = -233.34933705 eV
Si 3.138297880453303 7.035126163205955 1.6628135058037528
Si 6.0314761182170455 10.397757089185593 1.912227049369522
Si 4.008538231406641 9.182846965837612 2.3265298892690156
Si 5.282031685970811 6.488599263001235 2.463305684117874
Si 6.8074992368460565 8.3146254655016 2.6012686883112703
Si 3.26977279701223 6.400668610942423 3.9932798680596666
Si 8.655677810203153 7.872145807802859 4.025626563906407
Si 8.221315990410334 3.5889868839989347 3.139205104690692
Si 5.945889188156258 4.223866979330262 2.727807108740744
Si 3.243462581600522 10.070946119879428 4.404392382317816
Si 4.401520916987634 2.4160511208964834 3.2587277909371735
Si 5.661922098330462 9.870137402850583 4.268310112561974
Si 9.019975941255137 5.591386837045294 4.130273558961871
Si 5.212497836773516 7.648046063197493 5.055534798460885
Si 3.693817730694691 4.170786916591148 4.619938879768357
Si 2.6770014222875385 8.06788011921613 5.566953255321326
Si 10.344129185160389 9.225150586597218 5.089727410565912
Si 7.8946732293403095 2.5299997238900604 5.400455775973259
Si 7.3139269357495245 6.783878781050057 5.7023197935553975
Si 6.74450189965173 4.613670507685818 4.92556070473333
Si 10.496197068543799 5.2096593993750915 5.91542391808482
Si 5.476291053689011 2.4111445335830433 5.490126701199951
Si 9.253303226308358 11.347712573480708 5.90805092295609
Si 7.04003604265118 10.495916484450248 6.118568156243915
Si 3.5907635516860466 10.407384529813436 6.7961503232998615
Si 10.977919687250443 7.424581685784795 6.652985170235057
Si 8.898427902607358 3.919536560155599 7.218218634296465
Si 4.30572249631682 1.5815121482666474 7.362874601830923
Si 9.44129328076169 9.63362315713462 7.467912727455868
Si 3.467956343643562 3.7234685427960996 6.855284730193129
Si 2.1854683231931245 8.666961379412419 7.813312433356708
Si 8.826742549033698 6.58254422113375 7.5237487201746776
Si 5.4649754629084 11.55901584204535 7.610150531133962
Si 6.846708004483785 4.866686607064041 8.236260133643048
Si 6.095744559620562 9.304182027250242 7.979230677307081
Si 7.59525654993287 3.146629521497681 9.811705230957955
Si 4.37028029419011 7.739377147221282 7.433010834824871
Si 9.920729675602548 3.0461732475595 9.21337213392353
Si 10.784867335426082 7.402847468957214 9.022358635792017
Si 5.425540182003609 2.4420278764061027 9.263688405187196
Si 8.021779994193906 8.419208906660561 9.064443219314645
Si 4.573692391647887 5.421923373385288 8.034652020013006
Si 10.050363130252194 9.54463999688233 9.770193204105052
Si 9.651673652434381 5.393151212607737 9.619850683725254
Si 7.481125088000014 6.2951068041645035 10.037841250264108
Si 6.305107648925301 4.053977193706164 11.606235500202798
Si 4.286667058893055 2.7369775344470004 11.31175516203127
Si 4.3208670861968015 4.918743047065187 10.358135088631892
Si 5.77657164310041 6.31272956999162 11.730202324193543
