41
Energy = -194.47529922 eV
Si 10.50834844750017 5.609759346196611 5.457111276282054
Si 6.871206558250566 7.036774692038356 6.796919635744668
Si 7.739703399529973 6.025869326188662 8.767761580600462
Si 9.215390360065125 4.545491984309952 3.731883262132469
Si 8.906189151790146 4.7304114710559055 7.046512116773075
Si 8.398358743328759 6.645464553775582 5.033783510906915
Si 5.443873416986438 5.135922400173066 7.355576796798414
Si 4.820818860304556 7.544796972632533 5.547795293368356
Si 5.88222687325738 4.641293209286803 9.664988383563447
Si 7.463652025271518 2.937445572289992 3.954316129377548
Si 6.848469850900711 4.6467586773259 5.453558193617323
Si 6.089106814141412 2.8874538748985414 7.962673869850551
Si 7.602611631065871 6.708903034434832 2.8042530191245483
Si 5.492505178018462 7.7418190452061975 2.78116325545038
Si 3.5892292213991532 5.604110659582128 9.032963163975225
Si 7.962056999328053 2.6721367242989453 6.49391050207473
Si 8.700154610832476 5.188822296039874 1.4282796216342826
Si 3.153418278779948 7.38022501343697 7.295248631833957
Si 4.764178037781646 9.55179392383343 4.178581440060451
Si 6.493895586173077 4.484286578915591 2.2574471528992244
Si 3.1731013538607185 4.932536430577716 6.528378202518629
Si 1.2635345982807982 6.395846076100758 6.0690925438446275
Si 4.958260201912497 5.573979872996306 4.071677249032386
Si 4.03217799469548 2.418498987443431 7.009220472913746
Si 2.3375492732153544 3.466535697585888 8.40221228024157
Si 5.794417143097015 1.260110521678801 3.6855914596917656
Si 4.743998387204136 4.433555062178212 0.6445094832721959
Si 3.9020003419087526 2.763372155466516 4.449892365837507
Si 1.3000482958122646 8.720449429056098 6.471553578143093
Si 4.841927828948988 0.23489827650965836 1.7757416483542816
Si 3.5333256156458144 8.9613591011554 1.9099325646717074
Si 4.473415786890418 0.5328880496381395 5.567521026925557
Si 3.7866869117512647 6.319134418620901 1.8637829626417173
Si 1.6736044459311499 3.7090165381135995 4.548272550363557
Si 0.6665285106711364 4.1285920847704025 6.674001528734841
Si 2.4455052917187916 5.887759156901309 3.965711323271196
Si 4.00231990621682 2.490883595113032 1.9262913830471498
Si 2.6145567406274264 8.350271018230481 4.34139285214892
Si 3.2072798646611846 0.31456504314273126 3.588424026866231
Si 1.8241691134198832 2.069301208384513 2.8453354126936237
Si 1.635796627056137 7.3975768286342936 2.2351079055972036
