41
Energy = -194.70052322 eV
Si 6.540499221069914 5.05767922138246 0.6126327317863259
Si 4.209087496559216 4.859430104191795 1.0773607389169695
Si 5.802584223932242 3.1798204871415154 1.9464317253593633
Si 3.435426767768718 2.862176770077724 2.1101624025672736
Si 6.600463745366799 8.160262119532307 3.5540940966834675
Si 5.856902018530422 6.044684707477913 2.682309322545688
Si 4.03822146850402 4.681652931987452 3.5727002084026704
Si 6.579216313174793 10.575374443206274 3.5777565364889683
Si 8.89126519704192 7.23303896477776 3.0607148625325578
Si 6.642027378939935 4.124437829128904 4.063062861658508
Si 8.620736331700213 10.125282342428418 4.7490388617132755
Si 5.67374457287778 7.470010699084045 5.632039990384277
Si 10.505802231931114 8.575027305998985 4.377566781161763
Si 8.638323305405047 5.240674747742912 4.324256032904444
Si 8.371472456240832 7.832190389198948 5.387008382553767
Si 8.612505965759427 12.005053983599867 6.292302811975724
Si 2.4980009561226737 5.0751002481939285 5.3115977930353715
Si 3.7278212632415966 6.625439273056322 6.652454452747581
Si 6.4875964314565175 10.992089728792838 5.997001810665805
Si 6.0585999006939675 3.326331841114954 6.205340156168465
Si 10.3480358700857 7.3952478975472715 6.6606751705834375
Si 6.571611807705045 5.600126416850594 6.766070482366164
Si 6.624546647035723 8.58385976605378 7.433780232762228
Si 3.9405024440384606 4.053938719747128 6.828597306833872
Si 7.385940298157861 2.7786261343444214 8.095139072234861
Si 9.007202905104512 5.397626162855163 6.6829756806978
Si 8.177591097626985 10.5650219567595 8.100378390417845
Si 5.793344340369512 10.728660893869648 8.319022505915845
Si 9.54496582077278 3.7320279169084505 8.337473310006171
Si 2.8801428812036125 7.599658167359214 8.642808718430008
Si 8.902215366419526 8.331588606982544 8.282402253414336
Si 4.969709190196726 8.658571491285572 9.223904118680002
Si 3.5260874574092282 3.419552445569648 9.052777563754262
Si 5.796295946464419 3.412533675747002 9.67325184725547
Si 6.335111102801308 6.503069350210997 9.11177913636589
Si 3.818772903900913 5.664380709267255 9.618802094661358
Si 8.185898024846294 4.832873599475903 9.9288638873098
Si 6.346419350036145 8.092423453258535 11.19656155679731
Si 8.431847348501826 7.16776473508934 10.290751148120458
Si 6.788499580217458 4.020520603475508 11.70897191397547
Si 5.334707894881431 5.915914683318989 11.358926573257754
