47
Energy = -226.35536664 eV
Si 6.474340125855637 4.269440837888138 2.0310643519405973
Si 4.595644829281558 7.88061799058185 1.6286195064776359
Si 8.261540135458525 5.90481023406048 1.759904352951235
Si 4.864688343380778 5.863025252357983 2.8472125684540988
Si 6.853207343190897 7.705506191054537 2.4204538041737473
Si 6.855311347015066 3.4019256672116973 4.190543769619575
Si 7.2155469204831615 5.816347870603599 4.046300656813753
Si 8.166929044739472 9.031693929178815 3.844403957718558
Si 3.9870608317337437 8.869064643689343 3.7450234774256113
Si 9.722476045350465 5.918694679625671 3.63851106352981
Si 10.378895092921361 8.249549806308403 3.8180548145395568
Si 3.6965355048775517 5.11784013390464 4.716875942217208
Si 4.851339077864511 3.1593538168885504 5.376207368395668
Si 10.91513378411925 4.162187953931651 4.72652236840974
Si 8.743200702350551 3.4607982911568307 5.563289731495212
Si 5.602777029274013 5.948727362271585 5.891222127572071
Si 7.066451518428741 10.200261100279588 5.489589639819982
Si 4.864376554095063 10.79844304817933 4.8807851052783455
Si 1.601756983254086 5.9613069093681945 5.3480370711196485
Si 2.5675545956615906 8.138816563189708 5.52049780086062
Si 5.334380583166846 8.398009179000843 5.635274643168666
Si 8.753794770631403 7.338275698719514 5.560533419449483
Si 11.0257136274916 8.27222841230587 6.153314674142432
Si 10.790087067808404 5.93483486406894 6.318326664186291
Si 4.156337704236906 9.979330568768864 7.020817867156216
Si 1.809308295161509 9.636846313678948 7.226717336632853
Si 7.784081754432926 4.73186092936163 7.5659291160808655
Si 8.480326467754002 2.1487384014863986 7.4878997159652885
Si 7.92988279510079 10.896792900526625 7.564646107041408
Si 2.219150353427037 5.680058361067005 7.641607376138722
Si 2.5092294717432675 7.78915943853866 8.538957685162467
Si 5.571783108221548 3.2910504574986987 7.622759171988762
Si 9.084435016271886 8.811722921922387 7.583831842531282
Si 6.121050260262447 9.503525567417224 8.282908498520158
Si 10.00017968494538 5.582580392494643 8.436441823667012
Si 7.137670178927756 7.1503898089874065 8.034078919310563
Si 4.590098923689991 6.39101377544846 8.100926347969793
Si 9.493512687000132 3.4265036545980188 9.166763356718779
Si 6.524256450047363 1.427627373381605 8.747210722326768
Si 3.6345301850658323 4.17440186939476 8.750735011866379
Si 4.083568348749178 7.662060727831539 10.235710115383398
Si 7.213355261802706 3.545238572989465 9.716311178262504
Si 9.415533123041893 7.549271012919191 9.556483704247329
Si 6.009180625300612 8.978242592399623 10.607222351912212
Si 7.265537333798856 6.964647883569537 10.454745856331753
Si 4.631404046716508 5.427880836117105 10.441041560964637
Si 6.646689780375075 4.949138918285448 11.56552916856869
