47
Energy = -224.11812254 eV
Si 6.185906560601037 8.834379072771208 2.088067205650359
Si 7.51602409340078 3.061085104239537 2.149610602257071
Si 8.229774886024943 5.313503107777178 2.298136662587619
Si 4.429580841488412 5.594659952067176 3.509903969678396
Si 6.506279068987649 6.719902526389128 3.247298852419833
Si 9.543840124787009 1.8295343643688922 2.636860171415156
Si 7.373058125695367 9.315812596129781 4.058346069178394
Si 6.057876405728605 2.227468787709033 3.847553637316129
Si 9.701867259098773 3.9830667110785067 3.6774712178619806
Si 4.514347123774259 9.450464479221438 3.7807257614507117
Si 4.876935603357501 3.927736658151736 5.131678554863278
Si 3.755657534187625 7.445770567091741 4.678171853930509
Si 9.526584528731245 9.100051990561875 5.149304006979368
Si 7.423905030685566 4.242920199636127 4.430212662512947
Si 8.284841266658116 1.9568939160586891 4.673151013256251
Si 6.704305116269114 11.320350056364434 5.159196141139857
Si 7.408242756442669 7.191948128985436 5.557168953566242
Si 10.984759005120704 4.883485334771622 5.488505689640436
Si 4.241720795794795 11.329613019058167 5.256064337337163
Si 9.168797511204474 11.478391645553875 5.771222816082982
Si 9.757066414116581 6.837432141780081 5.948720017150643
Si 5.639753799349135 9.090783557137337 5.960616105214617
Si 2.875595830843199 7.078303458730381 6.770996736397841
Si 6.552924601778194 5.1031227523182885 6.504558330765105
Si 9.634325809308129 3.850533921315758 7.116189720082648
Si 9.395215591503026 9.917795109503274 7.5346515960715825
Si 8.727069393895688 1.6547473602374008 7.012477536479664
Si 3.2092153579573415 3.3063382838506175 6.782847220303715
Si 1.8420113283546244 5.096078278875213 7.594733861312475
Si 4.35495109090197 10.30924787479333 7.61236325367309
Si 7.116168864907397 10.68320073975289 7.396312018524534
Si 4.349049026310678 5.427158526920397 7.618388397595977
Si 3.2277273482207303 8.477954940731731 8.574511353716002
Si 9.688296867114484 6.915838385852279 8.333707733566095
Si 6.742579026422221 2.7982125920794805 7.607929404274623
Si 7.602069816082075 8.167497654101803 7.935462643049912
Si 7.438422566868482 4.686868833856646 8.800659188354619
Si 9.72372423133016 4.75847722208326 9.329428565665738
Si 4.584545514756133 2.9988829564280466 8.624930179313656
Si 9.473642257429045 8.892984847509911 9.617958206410426
Si 5.7648707616982575 11.464958464887024 9.161093841470844
Si 6.244499801326278 9.1567643525583 9.578923493098035
Si 2.6925751538001803 5.431588535496455 9.765081004109733
Si 4.723143879222508 7.535840153121052 10.3255933727647
Si 2.385645728643837 7.692794199082574 10.685518135442937
Si 5.358824996918828 5.319408708320391 9.84073050257902
Si 3.9665790992357386 3.64494572702358 10.88176519981986
