48
Energy = -229.34031704 eV
Si 8.186091903819346 7.1128164005576995 1.1680589958046903
Si 2.5645792449810476 8.470163706159173 2.637280987918251
Si 5.168924176140811 4.65178913331509 1.9429273586861464
Si 9.485423169327365 8.096539124347126 2.9383587746121713
Si 3.486592442289033 6.239526769352226 2.7169054620063227
Si 7.307507111417121 5.558798869583353 2.746481080143758
Si 6.878927805148694 8.42290309146914 2.646647062108149
Si 4.723904497247933 8.266292726103647 3.632094274880604
Si 8.368650866147144 10.183482758938348 3.3093735943205456
Si 8.52442553753752 4.18496361997582 4.343261596693127
Si 2.110371150986499 5.2876628860389046 4.440479550144184
Si 10.35522755292805 7.387077266759143 4.955172873721173
Si 2.1853382905171435 7.587352833888439 4.850572970836581
Si 5.5188873762984905 5.991945523503709 4.262797380292231
Si 4.880086073576965 3.5850019874010606 4.04415054184693
Si 8.049860140117175 8.331319271947107 5.02095663112626
Si 10.221691503705578 5.115084586457467 5.760322835366703
Si 2.999484459489104 3.28799774083307 5.495046433689029
Si 6.739311055470113 3.001705254881062 5.264497892892099
Si 4.93277124592939 8.721909936176232 5.943219940974079
Si 3.95172843601695 5.597803986633527 6.135191245915096
Si 7.9166869432614755 5.1750598856630425 6.603253515032575
Si 2.7386149240914066 8.466496107695741 6.975380203894057
Si 9.963605623949165 9.115469380448593 6.52887624228215
Si 6.275606171173737 1.639773562215779 7.117306923223597
Si 8.379185427740186 10.705505039234867 5.658277344492887
Si 6.0636047109616955 10.681689078168997 6.619760857570845
Si 11.719284957890535 4.474004907069457 7.527951708291337
Si 3.478682367493809 10.741095722709131 6.7674380312452875
Si 6.677706748340655 7.173425493231014 6.623929282139084
Si 4.64743529624417 3.42044454309625 7.325978683230489
Si 5.468676423019678 5.575235677805344 8.321492843368947
Si 7.710018463863902 3.302018502185994 8.038032151210485
Si 9.974216914072805 6.013421467309591 8.176028515656293
Si 7.704917920802107 8.20021220322031 8.534342781717697
Si 4.975145580330166 11.765445640868082 8.425997250825747
Si 5.7890753275513145 9.600281892419636 8.83861001510087
Si 3.0354420089098872 6.4024001074407835 8.369776135920787
Si 10.07888385755213 8.347223988510919 8.73860431675541
Si 4.64000801370765 7.673835094302287 9.588204135175888
Si 3.5785787403519933 4.227250303474305 9.349078429792154
Si 9.934758548277106 3.466100952236417 8.850725667718628
Si 7.193591603609525 6.438461031206055 10.121634905512325
Si 9.364732828173267 5.4652639672299825 10.492617994667752
Si 5.377393506053628 4.8309529907370194 10.819908982517859
Si 7.494806973012627 3.7771205114309554 10.325106988083371
Si 5.521996403922728 7.0238950388379084 11.733302981701879
Si 9.645138970605538 3.2033587309848683 11.262164922947813
