43
Energy = -204.28530671 eV
Si 4.497803204856107 4.581114256492567 0.763863283902622
Si 4.571637040800834 6.299567856786395 2.3423472320255097
Si 7.989063530922503 8.080206681621926 2.3371984963058146
Si 2.6978341389622225 4.380443108193055 2.4783535608599694
Si 6.193726428074322 4.478542456007087 2.4506645159535214
Si 5.579838657374698 8.551164063494326 2.390101433096152
Si 8.23347754757565 5.680893304000707 2.718504936672629
Si 2.883756073177464 5.998249410846915 4.277060691216661
Si 6.905567118222598 7.39509241618491 4.470080618837562
Si 5.9161630388477215 3.1029512587320776 4.416783968819865
Si 3.6362639906306797 3.639212383532378 4.64816957968339
Si 9.236432127800489 8.45591805414108 4.3774281316157975
Si 9.99873266647008 4.518910710166442 3.704664047581047
Si 5.008174564439304 9.204035361731261 4.586605660381601
Si 2.9655158221936055 8.196316569655837 5.1282721984147805
Si 10.755050736091544 6.625202614876455 4.67661782268942
Si 5.325803018426545 5.559618807529285 4.659289131813371
Si 5.747316081806317 11.01701270345993 5.889746736975166
Si 8.550014538011352 5.653100694180932 5.231629898078308
Si 7.158572052359187 4.060339255917272 6.222062301146808
Si 7.266247484953181 9.179995748234322 6.238883969641337
Si 7.496284917751654 7.359528277709442 7.716561508274524
Si 1.940721004367642 4.496815003625212 6.047793617869094
Si 9.628406180541322 9.620045030217343 6.387601627148581
Si 4.178433672159955 7.52030903320329 7.086504315202146
Si 2.009747032519803 8.980432747009111 7.212838740971136
Si 4.251769008528157 9.949054005097727 7.426790809874017
Si 9.83153310500526 7.227531038867814 6.881623339330413
Si 5.812895173709574 5.634530863234523 7.356372779721948
Si 7.0572637846874615 3.2207100225913 8.475732852151518
Si 10.539930781427422 5.949193748776293 8.779154122461007
Si 3.3363249502599093 5.3401397155231995 7.840442326604336
Si 2.626767646364639 7.3373172178915596 9.042678045310138
Si 8.745329648742452 4.676095326459685 9.56595025959871
Si 4.6797033323212585 8.598670887909707 9.2743610966632
Si 6.862857267243928 7.91135951649153 9.941418670265984
Si 4.898921841458695 4.136877698515585 9.246719369965312
Si 11.93972084556665 5.920160211393756 10.792199827578962
Si 9.836546929165266 7.012602367152103 10.784780079096592
Si 6.495309797631173 5.57228787108297 10.125748632427493
Si 10.054290516608349 4.549827380878087 11.569843327867943
Si 8.142508656610639 8.134956785477977 11.962449042806622
Si 8.01774404532962 5.6936675351040416 11.974107393096919
