40
Energy = -189.63646993 eV
Si 4.409160833812591 7.010767369992529 2.3412900226397624
Si 7.275502790134476 5.042706139150327 2.7444354998631826
Si 6.740765371687695 7.434276615644261 3.1112313701516014
Si 4.245991644705533 4.98127310478076 3.635906082805143
Si 9.023679479853776 8.24607766901932 2.9717558333753518
Si 3.4222593626571167 8.725866629881148 3.7814683583857653
Si 5.596709473428627 3.2662963568526537 2.7855243551789854
Si 9.424210058027995 4.244001585963271 3.5433403585258585
Si 10.23818312709874 6.4194316289173905 3.8999328221082705
Si 4.824301970571797 7.062281578058248 4.9294074337817255
Si 3.2329188875623522 5.312925229734981 5.737439272370227
Si 7.667199988595051 5.40879633683622 5.080356966626784
Si 2.45798577707936 7.551278315726615 5.650320032389512
Si 9.808314534499113 9.660241602242394 4.858103562368063
Si 8.598439592490656 7.585201848367947 5.329720964707396
Si 5.651438693997627 9.375166293281389 4.448508643233472
Si 8.62806561253447 3.272787292564142 5.614276634234312
Si 6.351377316937151 3.0711450530334847 5.005007647313342
Si 11.058279764237714 7.655433955279002 5.775419552663979
Si 8.018665528779078 9.708045908295464 6.510039023894942
Si 5.833984162451898 10.593835588617637 6.490584456797001
Si 7.67686426514374 7.3596414571393325 7.8510648400582905
Si 6.430750579604129 4.781618488969884 7.06125655382013
Si 6.090172558081834 2.3997899927822357 7.276266087181966
Si 5.580262595860962 8.141135590878324 7.0254333474126796
Si 8.273122674182526 3.0831627751151762 7.977482723269118
Si 3.276795821696961 8.03060800789442 7.831387135319642
Si 10.072516229382481 7.105406293745964 7.923789133741125
Si 2.605362523493676 4.4031811713937525 7.917533372157673
Si 9.18895272766548 9.224489196630413 8.515063256676953
Si 4.667936312440066 9.797744187970995 8.687548311761981
Si 4.73800001448577 5.889634785491001 8.539399207459988
Si 4.584880764116205 3.3844006288075232 8.788662149441457
Si 7.854116765133121 5.168016582569127 9.218050127785443
Si 8.120997166861592 8.022191461603601 10.23638304543134
Si 5.799005577946788 7.988176003159136 9.830540655020789
Si 2.495768640251943 6.416395153152337 9.40393377067217
Si 9.760547421151381 6.178591664510577 10.22624974109183
Si 5.8543943207155795 4.53884808433008 10.4441434487148
Si 4.422119070643301 6.459132371617123 11.001744199568456
