48
Energy = -222.86357148 eV
Si 11.287991174251935 16.689446134914594 9.151513343190548
Si 8.693010310024768 12.8357456548714 12.391538649707034
Si 11.432219291349679 14.872221375719745 10.840786329018448
Si 12.295523854284689 12.55331936473703 15.39695001774167
Si 9.179313081197662 14.055653106440028 10.389967534511689
Si 12.805166604425184 8.176889272851911 10.69714290126999
Si 14.154047148049294 13.517560077461697 12.767059976713222
Si 9.251364862329943 12.21578622196178 18.208075228638094
Si 15.777124018107715 9.596601825084806 12.098201972683274
Si 11.018654297344334 12.18318815371124 12.270315628621898
Si 13.404898876379981 9.664012730453408 12.400044167875247
Si 9.182379190749922 12.536393902512419 8.514889640273873
Si 11.201839231603566 13.652753547425348 6.064731930828541
Si 7.895516688773518 10.632969275916066 12.576940280725488
Si 7.411123017023701 7.368791714615825 13.559509875562814
Si 12.47648944346822 12.644537865618581 10.254426948630565
Si 14.916925745185116 13.035790832553051 9.539017204229603
Si 13.264426865249806 1.9754358888194945 7.54143074209072
Si 13.313348125638184 12.973239378804989 7.778718142618804
Si 11.64822862354256 9.290498918145625 8.979826061405491
Si 8.756699942287902 16.28570699367976 9.456989643466363
Si 11.325026924319957 11.534515741399234 8.335295903256032
Si 11.585501124590184 3.3811583112728494 6.884078053252585
Si 6.454777364063733 9.571278386758783 14.229406844587173
Si 14.664278712271317 7.525272145059173 11.997308968496833
Si 12.456072590745912 15.202969557085014 7.354357927960693
Si 13.566775347724201 14.495866371127624 14.794145265756713
Si 13.895328117262428 14.83845066204706 10.791462721207221
Si 10.401559292895953 13.68435958088401 16.681971082056894
Si 10.809526035887837 9.5309422112016 15.605646988905024
Si 11.2603994346177 11.320391055842283 17.228895498357993
Si 10.152385106335341 14.724763091587201 8.106353915090475
Si 6.414695157397953 8.840118299734364 11.820761710009576
Si 8.483268122753156 16.11653335357288 7.043094101191223
Si 9.81903561181327 5.85365790943671 9.201721978382709
Si 9.854322828210503 13.332202208527383 14.39401992439418
Si 11.739714294221715 14.346009621583924 13.196880463949745
Si 8.750437218111975 13.763821062091447 6.4073721309266345
Si 10.463183744882814 7.779688643241637 10.404920683655702
Si 8.889079203308857 9.25682494280637 14.289178683891679
Si 8.849816117589095 8.50733328740539 11.974434501435995
Si 13.47691042550697 4.098981525866234 8.343965468517622
Si 10.654442117051168 7.5512371651332675 7.7104171081460775
Si 12.387445222077611 11.567924105128276 6.1315379622632245
Si 11.794207173785301 5.5635224540486945 7.654412055361208
Si 11.930105867812363 10.7373835911447 13.896059522827741
Si 9.11262999452503 11.497299632919189 15.941317576885636
Si 14.49138496492233 11.600669291426675 11.448749868731289
