43
Energy = -204.0427073 eV
Si 6.973323431072331 6.578209454177885 1.964559581774864
Si 4.961077513181642 4.824082133315642 1.6413643619833693
Si 5.921306839535023 5.359112765640453 3.8198893024049068
Si 3.9633832862582583 9.067604484982093 3.4219950029310895
Si 8.618630274218463 5.526891249933033 3.419159555239757
Si 5.540015717775946 2.8978725379058763 3.1601175403087596
Si 6.1016227256444395 8.072429633287694 3.645210074521842
Si 7.6439532974459565 3.456079337368367 4.006110846196208
Si 3.4744415841535035 5.058301723092341 3.5964595163637636
Si 10.868731926907481 6.266495287021998 4.21202329565367
Si 7.733570253876072 8.846966896977035 5.124942449637315
Si 3.105374169436232 7.167314525928441 4.505589197440925
Si 6.15125285616551 4.349760728216665 6.33090136151946
Si 9.990088018657493 8.454934794714497 4.8453265465255635
Si 4.236738095277044 3.4782785480786984 5.198652094812838
Si 6.254040513234356 6.788662462272223 5.784296831173967
Si 3.991528235717574 9.533828950104526 5.711637637108623
Si 8.52251276153973 5.748372426719255 5.836445919073458
Si 10.066851564907953 10.677195321952768 5.640728909077618
Si 8.349774200533188 3.379231712109373 6.2453424671710565
Si 2.133335336153291 8.173909786257115 6.399403821306851
Si 10.6172773197039 6.625859477346531 6.617324567884212
Si 5.083926300582769 11.229475244273104 6.858815891585147
Si 10.925642662659971 8.978957906290713 7.147164320019062
Si 7.517285799920996 10.72261780697802 6.573172248256535
Si 4.0996388826946335 6.657347657261655 6.891822086793786
Si 3.2241433426744086 2.5546318325187785 7.187337219895342
Si 7.266813590573335 8.252187059043814 7.540183606597963
Si 7.547513318585707 1.9473549231101337 8.040035463359422
Si 5.3622102019904325 2.957275444783529 8.311369374364185
Si 3.0249070493278185 4.809256930110917 8.038186949107427
Si 2.057601259906025 6.997952367510569 8.61483248581334
Si 9.903804695228576 5.560790428543989 8.664783570797017
Si 9.262081022366427 8.476587630596626 8.754025518864433
Si 5.706642461106923 5.496518371398474 8.503455005831334
Si 8.490553588129774 3.77006192006815 9.191830737542219
Si 5.547053579360832 9.627462954656512 8.52193686116546
Si 7.786768675958304 10.33564386072103 8.93403392985375
Si 4.401980176628571 7.6267354432746775 9.131098042111017
Si 4.275550070238702 4.239659027625402 10.03066648125984
Si 9.691753445279423 6.970959498823628 10.534329831060319
Si 7.684609605429971 5.742434981035501 10.034521464951244
Si 5.420690349958896 6.214694473970308 10.86891803065878
