49
Energy = -234.05401378 eV
Si 7.487321590760726 6.919034021096726 2.194215930653755
Si 9.644214257281902 7.303763030268778 1.4778410634976495
Si 8.478583346723495 3.3497766291046567 2.3734257307655806
Si 5.669909288717409 8.268327192793564 2.5648932498814943
Si 4.258172750177907 4.743888163301845 2.6269196170742943
Si 6.696320116484977 4.819313191216904 2.8141490918540244
Si 10.043224159681586 5.20974835762587 2.5599499143346995
Si 3.7624284223861983 7.025158223209647 3.0608827529370117
Si 7.151041568793635 7.502288125184999 4.891372249828696
Si 9.432386285197325 7.797104193736382 3.8173570366439598
Si 8.63788536199076 4.3851989041071455 4.58795751514889
Si 3.3082077544925226 3.9294074885176182 4.66178935625913
Si 9.164447409414036 2.036365509541653 4.269626498815679
Si 5.20454127312179 5.668827455199065 4.719926556568336
Si 6.291873922124482 9.811800849890858 4.1324434678502255
Si 8.563365750278482 9.790220454237687 4.769332806201304
Si 10.482072664313776 5.914746333024437 4.822514595032477
Si 3.411853108976418 7.5284347911435265 5.316971153789655
Si 7.213486357268786 2.1027038309748156 5.654427287543262
Si 7.131336896423967 4.5301374391089935 6.441109217617208
Si 5.079743147033957 3.030533213549522 5.913858021136237
Si 3.0910394474920553 5.5429387604480205 6.533513856980101
Si 5.016750309795432 11.106585135416994 5.571694931677958
Si 2.987442062181804 9.813458460931306 5.9904975657986705
Si 5.3215205840177875 8.696790048339242 6.268483976598484
Si 6.237301732490287 10.486611714942763 7.567519487682974
Si 10.637533905726006 8.84029946182788 6.792551160557141
Si 8.870085890457153 7.011177345607799 7.186871990079648
Si 11.71492666593736 5.2064375166503 6.753634895436148
Si 8.424645443527051 9.612540814140852 7.1453673121242725
Si 11.250337479766763 7.091987663391944 8.222727867374054
Si 3.2934667036281673 9.517634990598168 8.346821908145657
Si 9.595396436186126 4.575023232314826 7.633944077622874
Si 4.4090582979666735 3.754228167970969 8.08432250500948
Si 8.24368724042898 2.619309787301527 7.725157495469479
Si 1.7273250757531937 5.887518890646501 8.433562621594104
Si 5.822604791887685 5.754734934360523 8.135746926320099
Si 4.879394800234231 11.047103902698064 9.458305190614029
Si 3.8131888051275675 7.146444574300818 8.6899304534923
Si 6.519076452137941 3.402739854505405 9.09835719619236
Si 9.594268598352675 6.007848710785866 9.471156957268764
Si 1.7421401858485406 8.131166545444206 9.686181827018142
Si 2.6630496564149366 3.9926800488911454 9.704664040495249
Si 7.299151599914468 7.503364496598424 9.1258836015755
Si 5.35448131980751 8.786354284020774 9.790254564767732
Si 4.288404205620527 5.521810763789116 10.501000814407519
Si 6.657130721431794 5.256090645718584 10.494436395661788
Si 3.681211473785747 7.699367401734881 11.159036599082228
Si 8.248694999986483 6.816704767338806 11.253140985069903
