45
Energy = -213.82526059 eV
Si 4.94367857581825 7.824953123962789 3.1701625603239045
Si 5.660314400002213 5.6034205315736445 2.897737264128624
Si 6.874086376809269 9.100613967208622 3.1486578062603003
Si 7.999522771528812 5.528912045630723 3.1367129663109443
Si 9.56013368034605 3.7874569709699264 3.424964713907901
Si 7.183709671917145 11.306982720510817 3.9473894489294357
Si 8.68960927333737 7.704461444973469 3.488821448078325
Si 4.431291347444235 4.143665702529466 4.344598081944722
Si 2.8866348236225954 8.625525610045148 4.025627698965367
Si 5.632433602197045 2.096127345143237 4.141070098868038
Si 6.668315045379887 6.9878448019152 4.767824452624832
Si 7.829650258256452 2.8245741064135608 4.692855966373961
Si 2.1688858110425344 4.388949272049375 4.8331623159626425
Si 10.2006665035233 8.57576008010236 5.17687219208615
Si 8.929855933656988 10.590838151154589 5.4188097329478175
Si 6.009150728635402 3.6219793585254907 6.169740819210812
Si 2.6963988526218365 6.641399363396646 5.384306099918269
Si 6.381909516179787 10.276199498807253 5.956265893320411
Si 4.376178466363039 8.971041304696422 5.857106094693442
Si 9.865145288943678 4.739114891311769 5.5740317932109384
Si 8.176321969540025 8.650172059679196 6.72707045034197
Si 5.478264380397326 1.1250041916163696 6.298286281563132
Si 8.893298203906616 12.32061486009397 7.085292068108701
Si 7.71502225847143 1.7963553254741893 6.77468358076935
Si 9.794623949739128 6.696481987469251 6.74330834981102
Si 9.51608783731594 10.05011374333195 8.237440863744958
Si 4.328582473467666 6.678650554949922 7.1455698722191645
Si 6.996638541892249 6.59980092904474 7.112234685249648
Si 9.90985028663287 4.0276438990198224 7.7590472267690975
Si 2.288974153365858 3.5213581273753722 7.068765396885768
Si 4.316244410103891 2.6230971789270083 7.695109171915966
Si 1.8807415047690879 7.322780152797688 7.597635953238014
Si 6.414150720161786 12.232916065048462 7.490789597634139
Si 3.6214607512729797 8.892910669758637 8.08418595472295
Si 6.978506824833654 10.021381722188114 8.431456110542255
Si 9.12396559929888 1.9510482663981452 8.638548039949194
Si 10.236173680030028 6.018850699046961 9.020191768632317
Si 5.748750143516016 7.9997391465226855 8.822543007283796
Si 2.7256226486377306 5.314765905507415 8.491103359861633
Si 8.240142127711215 11.821446465967036 9.356456922644666
Si 7.245248540146758 3.2993772386507905 8.962380643055612
Si 7.833695104046252 5.635079489668097 9.137380529177817
Si 4.700872515211019 5.120353376553173 9.691484002034528
Si 5.145336254987867 2.8154744988909215 9.88741076984847
Si 6.197097239765815 6.6180062019485915 10.67815099277731
