45
Energy = -213.30818994 eV
Si 10.065632618031701 7.122105064762838 1.3549430179730089
Si 6.518940067731405 5.948048869239019 1.5121792682922646
Si 11.650969797224764 7.474118732123958 3.385251463875214
Si 8.520978681942742 5.365623140536287 2.5517938971140217
Si 7.733104610640839 7.870578161762068 2.475475733341136
Si 9.678809289450312 9.30694014199709 2.74036411136766
Si 5.809413535757662 5.647779647717652 3.873716994114128
Si 3.7352711707378377 5.029483086850108 5.055691585621734
Si 7.4418371745465 3.5782508417889316 3.9849183994959905
Si 6.090028748680711 8.085505129914681 4.205789489269927
Si 9.3512120285388 7.319691325082903 4.2136565975073825
Si 4.004117462521083 9.197640230240959 3.8181882094835986
Si 5.262019983454501 2.8697179957440166 4.509880914162401
Si 3.5010164785270455 7.63076999522399 5.562787722297356
Si 5.067499829989299 2.5460328875043734 6.856317261240435
Si 7.3314013585893 5.366035702541365 5.8657441038647
Si 10.628015367483751 5.2909225687930395 3.6100893974074797
Si 5.215775580128319 5.133360823665829 6.862178687342594
Si 6.897424586159756 8.768870248731012 6.36850426782392
Si 8.740977489689252 7.211698099415144 6.490268673154264
Si 6.519299483332261 11.010503921643515 7.0254912698235135
Si 11.629535111029185 8.79972777752492 1.3376773905404462
Si 2.8091511296315432 9.397744786517427 7.301887657302791
Si 7.230852721335795 1.8546767135954274 7.829109075339191
Si 9.972912572283365 4.881196832363945 5.944331295093813
Si 1.4632343822614742 7.30622052209061 6.909147354879882
Si 6.6097828045136335 6.818127161171638 9.57563723771798
Si 3.090426696818931 2.580311038889639 5.224034529293135
Si 5.095256533733472 7.419723107850052 7.419432463172102
Si 4.538212951245296 10.165190164914245 5.905040499198123
Si 8.333443586535875 3.2103017461515515 6.155914298117496
Si 2.9965715532003476 6.441378861225263 8.544593763751083
Si 10.672879590153212 6.371667047077724 7.6801533370657085
Si 1.582921957928708 8.570247348451458 9.126294910856428
Si 6.220882213593865 9.409908190194004 8.814769926888934
Si 8.664019128442197 5.756550035368568 8.793801771762892
Si 4.92429792560017 3.8927726186309 8.835290178684065
Si 7.285337888078399 3.852498914126832 9.204995089976594
Si 4.032088017661948 8.522447585295994 9.39951059060944
Si 7.182871453477216 8.809313631226813 10.923486579501779
Si 3.0868647775460922 4.657105385756204 10.183701244254115
Si 8.596999219000288 6.759386064882597 11.024325881193437
Si 4.843796164351557 5.971645174029389 11.03541297196072
Si 6.985660173253118 5.00121077994411 11.354317754124484
Si 4.875502334142967 8.264218126418752 11.641149363118805
