43
Energy = -205.1360893 eV
Si 6.632921590486218 5.098117586953932 1.432771855417002
Si 6.161051045640039 7.078474810703787 2.5611930786169452
Si 4.192467008882146 8.064525793117443 3.4477681798427566
Si 7.832907933746256 8.773745197243763 2.531494288754664
Si 5.542199543748938 4.220080716247328 3.3610189595650652
Si 8.267885738435261 4.933887103535306 3.2662311235490034
Si 2.5185742799862183 6.705898700286828 4.247314187641157
Si 3.29980102122267 4.466626894500147 4.138739669479882
Si 10.610392327647261 5.370094674351346 3.502311251233076
Si 7.330365510108348 2.8689656655643407 4.0144828654682865
Si 9.59930378673922 7.523279024544654 3.6321226924197636
Si 7.41581405915575 7.074399727744184 4.657732236855606
Si 7.232963216992044 9.482980394932984 4.730176533877819
Si 3.015687685130299 8.40787926418646 6.099465373357088
Si 4.923817672626536 9.735517904629592 4.904715314237252
Si 5.280041372638444 5.179093686704971 5.708275086187079
Si 3.076536983064231 4.2344355203751345 6.474134964773593
Si 8.873426015685297 10.646245663579762 5.968020028242326
Si 10.288280651382275 5.751209811587303 5.890382641022722
Si 9.973962921236835 8.524984827333029 5.682776165831965
Si 6.9306412057419955 3.463989997365004 6.279937694600757
Si 0.8705763959530903 7.514238834640242 5.804681931317556
Si 3.821571435079073 10.513496949198087 6.827211300772131
Si 11.266616837576748 7.669783493716421 7.442539437093906
Si 4.844448387195018 7.075940451145636 7.126151889051566
Si 2.347589539251583 6.329364823404676 7.359776556880033
Si 7.849753657368151 9.534787316145987 7.756423939250254
Si 8.093745248530846 5.5045629991377645 6.632587982880433
Si 11.497288945929784 5.250743421512427 7.863861629651664
Si 5.500416159172448 9.179605541737086 8.084915967622997
Si 7.702995778005581 7.100692372214648 8.33998326323928
Si 4.613547757048634 3.36558208474158 8.023523423501334
Si 6.470664269288402 1.8373624272359692 7.970842492939044
Si 9.58657946512916 8.546517944172889 8.969005171828515
Si 5.648499428172643 5.413214948179255 8.754430603943424
Si 3.558096120304073 6.641069568645927 9.385752629223854
Si 9.298452055828534 5.125758077941138 8.90784000238428
Si 7.3905638595741285 3.7098478922269105 9.183092755131595
Si 4.702742646734453 8.621894407078528 10.319878716488113
Si 3.879548086519202 4.3637232142411495 10.12569906030271
Si 6.519525485493307 7.032231524668827 10.508640090504857
Si 8.916573349199268 6.882587127728546 10.533783850173673
Si 6.128387653781673 4.6897857462316255 11.05553724627639
