40
Energy = -190.17302616 eV
Si 5.2528781004593075 6.064131512344495 3.2996600858288847
Si 9.346561843555138 5.5096889010485715 2.395400553346685
Si 7.257126356385621 6.749971025402854 2.266653727319042
Si 7.244776334938412 8.705613096544765 3.6760753823093255
Si 6.341253975627403 2.434160381099593 3.7785765075039572
Si 5.289134898901536 10.07543682405875 3.40590527104038
Si 4.216754730594411 8.067763931281224 4.09829315496424
Si 9.352786251221497 9.903035058465155 3.7637753828801594
Si 4.651693052011842 4.078215827019187 4.276917465640507
Si 7.58312969502688 4.494963046032825 3.555517674276693
Si 9.12545920803234 6.063351366517167 4.694134556342814
Si 7.404399473493219 7.556895934795477 5.9185494008119255
Si 9.806406824640357 8.371221405176344 5.559026523274641
Si 2.4561617362645207 7.959655282453698 5.806288740276382
Si 6.509140933403458 2.728365447073047 6.190975468397025
Si 4.370470588662624 3.1662953027609486 6.999985488084051
Si 7.968066436482163 9.984406415383951 5.746149069539786
Si 5.37685423492814 10.038395859147418 5.799239378455963
Si 6.533551153371454 5.1603783090447015 5.680528471542231
Si 4.95002148923284 7.498248723221333 6.294066733050132
Si 2.6710280783217413 3.6346847785561223 5.459054526765913
Si 2.7848872441439565 5.731018641714951 6.553866998936647
Si 10.251543267941134 5.4637722784841705 6.70602883550856
Si 4.5876494453917385 11.238722508913124 7.610703358629329
Si 11.356555247532029 7.567071451504817 7.192391880203439
Si 7.010096732381962 10.654359779489152 7.8319703108553504
Si 8.039039727921379 5.306233121500841 7.720976631979608
Si 4.85885474113232 5.725034833273669 8.054362092649084
Si 7.810558408291607 2.886052364011733 8.177583280318187
Si 3.730046256163751 8.967349061948266 7.665739414869191
Si 7.331347332896405 8.309080242701654 8.256017008494641
Si 10.040646443360513 3.7651700580592475 8.512053799429715
Si 9.449778947226166 7.341156814170077 8.541748694215118
Si 4.046756197322879 3.5850585930774477 9.289848489681582
Si 2.5820219898104524 5.548889700500528 8.954089945649047
Si 6.341653532306412 4.190661589997705 9.564175580857576
Si 6.104755086018593 6.9559830638022175 9.77110515316678
Si 3.7866675549469564 7.534159037077273 9.606306159693613
Si 9.052676427333436 5.50812314633758 9.924442570432607
Si 7.119555926329577 5.469971190014246 11.394562136784716
