42
Energy = -199.63688208 eV
Si 5.770703762883566 6.595463734110988 0.5349500311538673
Si 6.990432052903771 8.3588115167178 1.5544410138315283
Si 7.514826914706966 5.613245882032825 1.8209764778806248
Si 9.121813659793494 7.963621442788895 2.6167706699721136
Si 5.912008618695233 9.330460409107284 3.403323184955894
Si 5.349695355519697 6.904983814488158 2.9182219638391516
Si 9.888583963732206 5.770416367144544 2.262430804887166
Si 3.6874003822349093 8.569352483600083 3.593426049206558
Si 7.476620386032117 10.885961884785965 4.3549865362090125
Si 7.821832267089665 8.297118295742886 4.740978986469489
Si 9.667163220110254 9.83905569709483 4.0884998031481325
Si 6.734605972547405 5.293216769204735 4.0128576487612415
Si 8.9832821758014 6.125577571917134 4.463832481012052
Si 3.9959604465612846 8.07300993031743 5.924238405975919
Si 6.259749150160722 8.100838701085436 6.573029828186174
Si 4.333920276675895 1.9789404982335126 5.083789099786444
Si 3.4797939728281144 2.6245383935278404 7.186094518985586
Si 10.159398562238335 8.504716867920957 6.033823044263355
Si 5.1902108080911376 4.194183934755834 5.419296242742741
Si 5.863626811329315 1.2773524088209445 6.7714854093208
Si 3.4925199133708054 5.6384343046798024 8.701545645804265
Si 7.253754181141371 10.413282321548916 6.713155818255682
Si 3.603297861147799 5.758426691313963 6.234701367668272
Si 10.696312081904058 6.25056467477737 6.249323538552973
Si 7.959574062096717 2.4063339619681794 6.961202035272263
Si 4.445292826238685 1.0984841661391362 8.69842462917094
Si 9.163108319796795 9.580288692371074 7.806268479240094
Si 6.412893740959175 4.26535069032061 7.427533808555875
Si 1.9139954046624217 4.518157577241971 7.325677358590971
Si 7.021545077008683 6.46962938862706 8.051772817276145
Si 6.843352511709165 2.2506306940024174 8.981528273951769
Si 5.627589932865252 10.008664117062365 8.250313019724421
Si 3.419151824777644 9.283729758156845 7.942686031893562
Si 4.734628363675218 3.699980895300501 9.088507174277337
Si 9.289187851511869 6.986996982803834 8.105586717651041
Si 4.220621905167839 7.698695907035322 9.47306106267983
Si 5.2963444331841 2.0627300961771886 10.758880361911004
Si 8.822717495717285 8.983823793406344 10.001959814319585
Si 6.581080602742793 9.545855618027902 10.36283842360565
Si 9.589580099679054 6.826502200432095 10.585892759038165
Si 7.122827054251703 7.039455296060645 10.325312693437738
Si 5.288995696459247 7.913115569150868 11.596375968537046
