43
Energy = -202.53589689 eV
Si 12.15749339270917 5.6944151355190895 8.537372356773039
Si 6.979002074118414 10.443457898870772 12.292944452252508
Si 14.27697049649763 10.708015775171791 11.444397178727268
Si 9.751407181545993 13.525771455816578 14.492408730923945
Si 13.24216889394647 14.563552472577534 9.699492855257128
Si 7.750488866054402 15.236589174087642 11.602630880314951
Si 15.728306063419229 8.818893990760143 10.389310557083286
Si 7.489045899251981 12.158336021067846 9.506195947483846
Si 9.339532065707212 10.535800909657443 9.211244968838585
Si 7.539438521091035 8.472927523055674 13.659336777654518
Si 7.978750105625829 13.755927353728818 7.418854479650838
Si 12.833841542569772 6.077519013343167 10.78967069496415
Si 13.605467559442392 8.350764320872253 11.318682769004184
Si 12.743728756042362 7.9928345842071495 8.907544851945655
Si 12.074136131635793 13.14209958823132 13.800175205957913
Si 8.856992306137807 11.29761528955588 7.00038579027167
Si 11.248393363220053 11.727157445658825 8.228452338940196
Si 11.984512182958 10.823132798474354 14.28560201122421
Si 12.106285281179439 11.73937297672953 11.742559365018653
Si 9.93880218237605 10.9390192317621 15.61531055137708
Si 9.891595822842058 15.177260026688092 12.688402560525041
Si 6.4711215938098245 12.729344198065348 11.664097839829743
Si 10.025790131693636 12.479886477192345 10.527347933182341
Si 10.910958564017214 5.62094336857261 12.223323665603656
Si 10.735216495292482 8.75722212795752 9.917825965108289
Si 12.711675982895152 8.679856412763945 13.525482134975086
Si 10.941560608606808 9.673975562037016 12.074537788057876
Si 8.72656859033642 14.415851399775399 9.562422167511055
Si 8.719281464250795 12.965563372507921 12.448975644987613
Si 15.174126545666343 10.892363945497873 9.06557314978046
Si 14.948556191156744 8.680772301742056 8.145855040113108
Si 16.651056399917586 10.982237393685002 10.999116095630676
Si 9.26380073712472 8.519059143951496 15.199675552125399
Si 10.415819866054845 6.410199680786251 10.070311259448912
Si 6.524582320990739 11.884243491820385 7.253623548710305
Si 5.738060881388669 8.491544623674681 12.30209548503451
Si 11.880280284844817 14.219226270900215 11.608828727234826
Si 10.995682284253881 14.164108642692927 8.870602207079791
Si 10.981938582065073 11.429373479708786 5.832567910478283
Si 10.241589591630957 13.56187867479018 6.661448182696193
Si 10.624863166380612 7.577924888547863 13.495300550773802
Si 9.14332041019462 10.433804434859425 13.448156704745385
Si 13.22664508766692 12.142070792975648 9.5319712466781
