45
Energy = -215.1661013 eV
Si 7.343479180631207 5.03637704832107 2.724218049385115
Si 3.476404438215307 7.652700031844478 2.555039079255308
Si 7.665724822458707 2.8474801922075152 3.7750939498752745
Si 7.001008318785134 10.270630428580029 3.1121941887297924
Si 9.60555829266527 6.056371638409509 2.7823789799180028
Si 5.654449727094005 8.307712191832962 3.3881209355940265
Si 5.152599244318996 10.471030648393535 4.645878807893566
Si 3.6343461038786744 6.087666780769494 4.40795482458635
Si 6.003490231781925 3.390365840201623 5.419388575537648
Si 3.1847903533386988 9.192868293208832 4.2944977104853
Si 9.631617782535525 7.612445541913834 4.551461765434417
Si 9.952728234410449 2.584689021402304 4.7413527332570755
Si 8.722430568265946 4.819805158740936 4.756504448651091
Si 8.081338763972525 9.266402160395735 5.05229781102489
Si 11.060237307405075 4.588176913238173 3.970811110438263
Si 3.680571104968285 3.8256559574243676 5.162035889110641
Si 6.031437858673693 6.191163917324773 4.445437257591134
Si 2.493355048603642 7.016280568092761 6.232987257344193
Si 6.015636607679733 8.519099698268217 6.073133319666976
Si 11.123016893844605 7.10544609788144 6.211009496731835
Si 12.594007000526753 5.257396080680153 5.741747725673049
Si 1.570912079226623 9.165729242841318 6.06382909441206
Si 7.2403330534144175 5.381015037820368 6.509416810523961
Si 5.167949348505696 10.718073637317742 7.005190745751497
Si 10.702778896509473 4.098046781994568 6.521153699989547
Si 4.3208418598695975 4.853956917402637 7.257070777561796
Si 3.492481449906239 9.080941986968202 7.436693673717684
Si 8.886740290721077 9.689779803312982 7.264868830833016
Si 2.170411544452682 3.339094641022297 7.110946170428909
Si 5.869821383059306 2.7148408438251144 7.658763773825662
Si 8.803964045875542 7.230580945050885 7.154775143166127
Si 2.0995501518382067 5.594646727527015 8.038922686588753
Si 5.749093082501403 6.848387216234351 7.882426614401084
Si 10.861008951959587 8.53898825768743 8.159581992245007
Si 6.780608337307682 9.594058624886918 8.330405724111028
Si 3.8611482627966245 2.9807236732359894 8.791487612309597
Si 7.322435381619803 4.050919883303374 8.864137701122516
Si 9.608262173156495 6.8932469453893965 9.517789814170715
Si 9.341200402896826 4.942699168002613 8.209939833185707
Si 4.283988310689516 5.080251254419555 9.914209030927642
Si 4.117665923919586 7.893601732577653 9.391879632260341
Si 7.249955767142257 7.110661290669507 9.815290091045602
Si 2.415505166750325 6.449823054712649 10.30283501682889
Si 5.990842468000741 9.078455509427304 10.459795002292212
Si 6.482226629097898 5.069665460510498 10.792999457388643
