49
Energy = -236.70403019 eV
Si 7.936310271009395 10.12312762718248 5.627436018757399
Si 9.156040479638643 9.621634689665182 7.604064097447461
Si 8.55271878834252 9.364344965190545 3.5180410571292757
Si 6.453713578796467 8.321106064678062 3.014162478007152
Si 6.127274951534147 7.261682917089449 0.9053061090923065
Si 10.003597324595807 7.673993859319663 4.321189230031654
Si 9.518294752414805 5.649221808979609 3.1852507037199445
Si 7.437226864506786 5.648318414536137 2.0895416865109455
Si 10.471583051426359 5.790177837994864 8.0041627766623
Si 9.576630196574827 7.492505358925248 6.6475412415129895
Si 9.344929956172495 3.7602402563545034 4.649140215957816
Si 9.493705300618114 3.8576585838080018 6.985210337534189
Si 9.115383067953815 5.825539507916207 10.091819613154048
Si 2.5616687988260307 8.894859256038824 4.056219302349326
Si 2.4376614523783626 6.695203500602083 2.9843531133218657
Si 4.802552241712539 9.72587473622627 4.005275222567455
Si 4.516793360064786 5.96347022889586 2.1339769532790993
Si 4.455061305915388 3.5041498091854564 2.003836407316429
Si 6.871413950825732 3.356218301771163 1.7610002599232488
Si 2.418933593777305 7.974036094548958 6.2691228208659115
Si 0.5856306903897902 6.505908853171658 6.456663219919555
Si 4.351189794933898 2.695199527370587 4.340773943899398
Si 2.0655516112649304 2.871309755314975 5.122764445455687
Si 1.8514942271926789 5.276367559288826 4.834462991793271
Si 3.926405277044081 8.649845144371467 7.94270595290538
Si 5.097715953237045 10.689588220947872 8.370607701904584
Si 5.695652024414012 10.143895930021548 6.133495197021758
Si 3.559167084032159 6.715531157393345 9.311295862884624
Si 7.05487679636709 9.305860216858617 8.808639188730869
Si 7.11078943534192 7.182197320121078 9.807032704901205
Si 5.2789427997696885 6.069703057178691 10.899499554055208
Si 2.246164170845497 5.534306060241468 7.792971205037298
Si 2.600714400228455 3.2369037329979253 7.5200399581331
Si 4.828417390742949 3.158687815358412 8.291821765763643
Si 5.701192946225011 3.7082924343092176 10.541473535015678
Si 5.981409133329619 1.0668720309414033 5.0617829531659355
Si 6.606206801156629 2.5122050283153223 6.874209762266558
Si 7.386154730776241 2.6316725517443684 3.9625854597792367
Si 8.596203319194137 2.04356386544094 8.20410523647435
Si 7.841913825082582 3.842848939464712 9.57408336247219
Si 3.892348700184367 4.551607775789128 5.913261047908579
Si 7.272352166388406 4.619344812497837 5.7771390189720195
Si 7.719920502421252 6.8033031088345854 4.5813491647673175
Si 4.394652535329306 7.284604775674712 4.389458396172139
Si 5.854846905869897 4.6338369004008815 3.7258011763929364
Si 5.545775602961881 5.351486761339109 8.617181944978546
Si 7.912574791945256 5.777124792626843 7.870114424680634
Si 7.091816162958563 7.934735136728058 6.827775853376757
Si 4.788747531696915 6.790153514757539 6.680575924439173
