48
Energy = -230.78395368 eV
Si 8.558580716120424 5.359605375473143 1.6397167138970936
Si 9.574096079216044 9.420155585394689 2.3209040352440233
Si 8.026874684579088 7.632847465065141 2.206061044884779
Si 6.79272412942138 4.428664867681981 2.9786981293957107
Si 10.672633317521562 5.394215770577358 3.041476231168923
Si 5.807371418921849 7.9105344560139566 2.836763043670336
Si 4.852302564525031 9.97558943953713 3.5239811589714725
Si 4.78984369857163 5.75628455519893 2.702120677941016
Si 6.778427421961412 2.2862804778417614 4.014295244722961
Si 8.460434379377654 10.008129596014642 4.355888478345386
Si 10.387297507082758 7.702597983057127 3.7521827053226473
Si 8.459902410955612 5.999967102117483 4.091588360104006
Si 6.554831151892737 11.347655834317429 4.7266999238641345
Si 3.48891637525989 5.603843860748454 4.711626853226769
Si 6.308101976638745 8.680633509026396 5.171349291576453
Si 10.011887891983754 4.605470720945009 5.260480885083087
Si 8.28913058729593 3.108883754096409 5.647039372970797
Si 6.149441112643122 6.156839491042911 4.768712217050851
Si 3.6101982221725475 9.321079130973187 5.390587498705093
Si 5.239316852132394 2.8287169122698006 5.762565756073527
Si 2.1047758561804226 7.45470971898168 5.317580187461414
Si 11.191006882473076 8.159573456187653 5.922747728995206
Si 2.912247706530085 3.5250527639743345 5.729338696026946
Si 9.807026466739543 10.129556402132735 6.361490822315075
Si 4.245819022758416 7.231330065014509 6.601009154126907
Si 5.171478264498077 5.0135220756245555 6.721505463752047
Si 8.627556103753083 7.945545984036425 5.9149209750972185
Si 6.081441566284776 10.337299062828018 6.887228413828351
Si 6.155226523175017 2.5608862041246114 7.919089594280811
Si 2.9484827778920644 4.793408519913322 7.810808873719959
Si 8.473596660016067 2.208506464336214 7.7906629427684
Si 10.08280544676382 6.3020911841663905 6.946080234256087
Si 6.79521354700285 6.04711742208778 8.182095855198488
Si 1.98175494148107 6.960239348318566 7.666656166759793
Si 8.062302488419283 9.462937693909668 7.816618812925491
Si 3.7609866326494306 10.577460514190422 7.4311488504419865
Si 3.6306538280352 8.481310172468897 8.565493624128138
Si 8.372485334282812 4.328567706388126 8.90377598863382
Si 5.081197577025969 2.2744740851326144 9.979337952465386
Si 3.513350688971661 4.119332570838461 9.941164978942023
Si 5.069020073664253 6.005618147447848 9.83209888398537
Si 10.03232962773562 6.038303690976931 9.295084333483384
Si 8.176397773578682 7.639480333833016 9.309003732819589
Si 6.63870397716283 3.9688809213558414 10.437376525847585
Si 4.195248112166349 8.047072099680134 10.819897894238142
Si 3.5252024388579137 5.7755854150407435 11.789367441263924
Si 6.549536308969062 7.576595556479875 11.071339592275386
Si 6.001840874660803 5.50754653314081 12.134338657745971
