49
Energy = -232.83890829 eV
Si 3.0612932141668825 9.04283574436053 7.463893803380375
Si 6.970256984905751 2.286278048944208 8.16479026710473
Si 4.7895475963222784 5.702248374267968 8.39242075216151
Si 4.546265745185384 3.9968499520657677 10.215780095038411
Si 5.869656554073419 10.52673893608273 7.864320477902496
Si 5.406693334606525 4.543341634664559 4.742040805354374
Si 5.283654856146641 2.704567715665552 6.4414530401207575
Si 2.9331945227718332 2.388186471844279 6.506783611729533
Si 2.19930375989246 5.902153576253565 8.8402486836021
Si 3.1154516136235277 3.8327767984945793 8.331756658139176
Si 3.006987617850158 4.429273630337873 5.2250839877949256
Si 3.868451665750052 6.864935584803821 6.445133120909423
Si 5.959705550978973 8.508306099808648 6.119360013789081
Si 1.457934587370329 7.383109966308011 7.173501125052038
Si 2.017001664794089 6.579429039927219 4.9309307975729
Si 5.920210700297633 3.6379025485048615 2.541488340765751
Si 3.7075473796323197 4.684080977496907 2.9111269742351973
Si 4.00272183841258 9.356475448929608 3.225909188817777
Si 5.3990129366641755 11.999621568921812 6.058102744028726
Si 4.084994581866845 10.006261904478185 5.548022683090902
Si 6.343238873757833 9.291899721352085 3.5959120725619766
Si 4.370138441629173 6.979382758895015 3.279564638201009
Si 6.4281119355619305 6.642005653713853 4.659684227240303
Si 7.700900037770491 5.279179653822612 2.7484860762361563
Si 5.072314204403659 7.807245141694982 9.720705639325356
Si 3.6676031241945424 6.182199048643906 10.678684832393031
Si 4.098222912365101 9.905148674268835 9.354516999014672
Si 7.2192865940689135 10.616824292347605 5.282957874034842
Si 10.812193656268361 6.914795757592501 3.6954496440545057
Si 9.718959060673416 8.640316082951772 4.9405607144278925
Si 7.718917192920802 7.96103258133273 7.658825878170758
Si 9.87243863171856 9.211426246678984 7.59713485358137
Si 11.603895665682387 7.523930706901365 6.076042850953683
Si 7.380164202361922 7.996889751747927 10.124216161625847
Si 7.985668707044151 10.034816618925545 8.903645543345787
Si 10.435721090811995 5.586658362091195 6.8330791033988225
Si 9.538713591190183 10.806479887517725 5.715620412864247
Si 8.088349677499679 5.9046896324721425 9.177289204562857
Si 9.545826457970334 4.836684758774281 4.194679201021289
Si 8.639017173603508 6.6589151765683665 5.626876950426097
Si 10.298312287360353 5.067839037664678 9.150505590206125
Si 8.297619642001491 3.3944244353075597 5.6535268957657
Si 11.933469888801195 5.146857662642122 4.955038719400776
Si 6.835000526916575 4.74541671702743 7.310230074070651
Si 9.439525484061054 3.3131888266522314 7.93408519247405
Si 6.540112447472887 2.256646677832835 4.477224403198388
Si 8.897644151391727 1.3539078737676806 6.925327424312559
Si 6.611513690366282 7.300578887404678 2.2729756515786668
Si 6.913545836888583 3.871557627751565 9.921318469687135
