41
Energy = -194.75823103 eV
Si 9.641527327075073 3.365711094683804 2.622611003394
Si 7.431083349503237 2.41804487672056 2.2617223820138372
Si 5.710726686337927 4.038273979898027 2.411599529495434
Si 6.945099916946589 5.996182577782756 2.7838732456928534
Si 5.906609267182174 7.976849574630393 3.516734239203619
Si 8.993013331652591 5.397767884206787 3.772418874436215
Si 3.7049412741767234 3.2267225039625194 3.366638530741113
Si 7.08426411375676 0.5558746076486323 3.754524485534434
Si 3.6903714515491375 7.417432844173707 4.264474201319374
Si 8.709080161839236 2.1527276955211523 4.39896653319845
Si 5.786465506308166 2.483521896629697 4.422752777415398
Si 3.9298530742872297 5.1040265102145606 4.871505446907499
Si 6.396225063476484 4.730699898200077 4.941449110838117
Si 6.6393594304554 9.65689866258789 4.914922458303127
Si 7.124730569249698 7.171433054251621 5.568901263793991
Si 9.566135242906814 7.0122858331979945 5.499078901249259
Si 2.824329347268673 9.08529101412118 5.885543108022941
Si 4.801756916871337 10.754030048420418 6.018056827336654
Si 8.715746380215696 4.0281135228380185 5.855261551369173
Si 8.44320806464202 10.988328539657735 5.815154860586061
Si 4.859552892879696 7.181537139420635 6.3811007309361205
Si 10.279748317992063 9.251112980637886 6.36949287936896
Si 7.324234031017889 4.340752046394454 7.769601201669019
Si 6.707847274645907 10.958208756769574 7.567460931305058
Si 7.955125074350141 8.846336776362431 7.011983093389388
Si 10.64853778591481 5.212259842035457 6.717712651133263
Si 3.2835493043690755 5.4120689211756305 7.138450173953249
Si 4.609936911548645 9.001930178156185 7.756645720938396
Si 2.376693297960893 7.558803713540277 7.8775851447278535
Si 5.502745994418162 5.6745932792988745 8.265344392975798
Si 9.07667806156534 6.064810542327607 8.247631059046366
Si 9.788155807073418 8.333646490910148 8.652097702988224
Si 3.677377857247094 4.442398165574682 9.341770507935166
Si 6.1298893424205625 3.4578791376433435 9.620254286550589
Si 7.644770903432797 9.175674940699116 9.358016585285522
Si 6.835540955750716 11.33019057916735 9.943332767185455
Si 3.7194249702307576 6.8190478997031825 9.779365414152576
Si 5.143547482391151 9.601123199073268 9.987248553903918
Si 6.351666112044631 7.181555050935435 9.987489199130232
Si 7.817726692794462 5.202652402173576 10.159308571612973
Si 4.722724454246919 7.893201338649619 11.621919100956408
