41
Energy = -194.97237573 eV
Si 7.296971218611829 7.3637696334376965 0.7587193485674485
Si 7.079389531546332 5.133779382756643 1.4447237287431285
Si 3.1883566579103166 6.012689855863032 1.8648430578516861
Si 5.427282881600684 6.916178267989921 2.2613090807754963
Si 4.900474306973133 4.404425351549331 1.880125983823147
Si 9.02143244583181 7.554942543367762 2.477036367966036
Si 8.420656554493556 4.479017255150339 3.3066390253091513
Si 10.35165790895474 5.82850406336518 3.639794260286021
Si 6.0988890262584565 10.21880966276858 3.939236125032833
Si 5.287572241995862 8.073487858057474 4.3949215576872405
Si 3.418238293197485 5.4485282701431395 4.251471067165749
Si 4.992032837159858 3.1647062807198716 3.91185459402482
Si 7.227432630021563 2.834124373905205 4.572660173261336
Si 8.216682204738284 9.068180737705656 4.058469462313515
Si 8.15907267010628 6.669042485523572 4.640664696095442
Si 3.193344874276793 3.357875872819742 5.402572233122831
Si 6.178388967398726 5.319871011856435 4.177242136785235
Si 3.087754684503403 7.577298090725753 5.284231639152214
Si 8.96561783052541 9.948383950895451 6.10678800983999
Si 9.933799795499668 6.2001204989859895 6.1702408143030745
Si 5.599440000832411 6.360287425455875 6.288138046847253
Si 6.630045578837518 9.839232671360977 6.211021350531689
Si 7.002163705685257 3.7581609709617965 6.68691725671633
Si 4.693333794504188 4.140693750179218 7.112817892975293
Si 7.679866748762776 6.31347849972489 7.442885157876797
Si 9.28056469881209 8.103536781163069 7.534043935545892
Si 9.119679638605069 4.271254300937996 7.598574794174629
Si 4.087257321599439 7.713110584819894 7.551279344482219
Si 5.26130873399848 9.757133405634383 8.09400623544003
Si 6.348614715066681 6.760098713279304 9.383066987140092
Si 3.7886098596697866 3.9817659960989293 9.32239856717372
Si 3.999005766863392 6.389868958156562 9.546901916417342
Si 7.029497348935382 9.047977078500365 9.595833859876691
Si 8.123498029440158 5.0420367683320135 9.679203485799887
Si 9.457560182040456 8.927434596526226 9.777558554274263
Si 5.893135565241456 4.544265290028024 10.284212108796916
Si 8.419869581852748 7.076229050987991 10.933501412438448
Si 6.151757897796831 8.395576650202546 11.7183154050456
Si 3.996566879721702 7.347236451196204 11.81788947074743
Si 5.857040106178524 5.952857638708989 12.190304872794552
Si 7.640109307328461 7.208001993534789 13.191559006174627
