41
Energy = -193.14620502 eV
Si 6.625973369610912 4.460367986385365 0.5804970548179276
Si 2.8135301011899316 2.8831607187067165 1.2158613585707723
Si 4.122763466188998 4.768937908604655 0.5665500015055761
Si 3.189567072243637 6.619590535547758 1.7176529883150606
Si 6.811526548377933 5.389238622513964 2.8884000059456123
Si 6.432073560195006 2.019788055630021 1.0297969960906193
Si 8.261589632475086 3.3317700550574667 2.1492587157411474
Si 4.113452989250117 8.793069143827097 2.0852952972026295
Si 8.717506158716407 4.6852123472452245 3.788012495650969
Si 4.621133945724081 1.994256568583143 2.5795481783745484
Si 8.684517296487261 5.872550486913026 4.44118964025885
Si 1.3991396699835843 5.992202107330724 3.1283725321591143
Si 5.692843625310255 7.484652717695995 3.217991701033223
Si 3.582022084776168 4.508523550548508 2.925646609916106
Si 5.2857073049631715 3.733438613167991 4.374990057315447
Si 6.1261054615619654 0.9806869939685624 4.389242727865717
Si 1.3781684853291687 3.365327780893858 3.04474038677178
Si 7.899007782360008 0.9772918861327599 2.755440734535524
Si 3.4030176204418887 9.083274718458883 4.431376653244982
Si 2.0010882147222624 7.3284417638785095 4.940110102681154
Si 6.638508912654505 8.817017170582684 5.052990304075506
Si 7.601679465607589 2.854580248398744 4.401970818682952
Si 8.717506158716409 4.077512035235166 6.097608779257765
Si 3.235411317308742 5.109941206010677 6.181137689702727
Si 3.8008212552245144 2.4160430705326665 5.715531124430848
Si 4.559435992859147 6.950715950150499 5.308740049543973
Si 6.626196529878448 5.536829859550967 5.635391061856795
Si 3.5026826060228893 0.4625380357160193 4.244657196209166
Si 1.5352897290072114 1.852841372373827 4.856595154124641
Si 1.040830372441834 4.124262418975381 5.812689243336197
Si 4.968769000400035 0.1427530053917385 6.265567826006545
Si 4.772623788075123 9.194922971466577 6.525046176760571
Si 5.24057949444204 2.242146072433303 7.745967236889323
Si 8.422158189809537 7.660628157411085 6.062443868032225
Si 1.2839867101689197 6.421823432420364 7.015254421137842
Si 6.6568657632368256 4.162785624224732 7.632956115585875
Si 3.4885467222009354 7.071125678850332 7.7836986704867375
Si 4.514617353447267 4.895914485041716 8.354596649815544
Si 3.9775874917755143 2.957236755510574 9.708433276761943
Si 2.6925945947819447 3.129624242495236 7.738905464128174
Si 6.42783985151824 7.366433650557963 7.329302639598774
