41
Energy = -195.74787152 eV
Si 5.144121906324321 8.989161936183653 2.0448822891684677
Si 7.299346015119122 7.939049588292257 1.6732790728563334
Si 8.873020569824018 9.706044298598954 1.4770921530464545
Si 7.016802752413473 10.074425880293973 2.989411992971555
Si 6.20637740675411 4.567570204580057 3.167633012966743
Si 7.898831171777614 6.260297915286244 3.2024233348259337
Si 4.512327201423798 7.896899365688317 4.071048702014638
Si 9.30323758651115 8.537090023896036 3.479220530269411
Si 4.114805642892217 5.566275889316082 3.786595222489685
Si 10.140478929718515 6.338018933703663 4.038255484173143
Si 6.72246847907528 2.9614318762548835 4.833869064011188
Si 6.2221072914950435 6.4002524793144895 4.9454896349400626
Si 8.053573490944096 9.67926927229241 5.057820589421442
Si 3.372404615677333 9.003616291084782 5.947029182550913
Si 2.874973680687036 3.9691326793410298 5.179111628144857
Si 8.991623215590034 2.864741393824002 5.426276131991245
Si 9.304835910929521 10.855850976868068 6.701327967447296
Si 4.7350539632559645 2.630880013889989 5.963992469634567
Si 9.45780030687852 6.538026268008986 6.371791697677494
Si 4.47838598804271 5.343405235822085 6.371657834899132
Si 7.022257172676296 8.108393363066723 6.644430533643806
Si 7.83368115540076 4.759966357114393 6.371272374644255
Si 8.670382697272014 2.849534105124877 7.815806776827135
Si 5.970006548770592 4.004563128921063 7.663349123032474
Si 5.26913797158701 9.646649071763264 7.352656947708353
Si 3.3386531968326865 7.159390580862313 7.44698747873819
Si 9.271969251518133 8.602829860104816 7.584080133406178
Si 7.346847267820763 10.498588589035757 8.035607319108939
Si 2.163672795281631 5.050701201324168 7.276776278237855
Si 6.422272397170058 6.673474523351302 8.485412426268477
Si 4.621027571142323 1.8473786852819263 8.232045446836247
Si 9.588295013954351 4.967668141323947 8.254732929162971
Si 6.820256291147868 2.42986490507223 9.36151769795095
Si 3.652803827818303 3.979834452991627 8.810046058560218
Si 4.250348975069412 6.978847969457217 9.630748759440323
Si 7.257874521573602 10.225998648466577 10.480202236327461
Si 8.159117772408848 8.213705588135074 9.647049124702592
Si 8.266908135900325 5.8939739439168815 10.01264484591492
Si 5.5344087754950495 8.88597842930606 9.585300996919083
Si 6.272886032090372 4.622512338393246 10.149326485500252
Si 4.044616503732081 4.97870559444294 10.931798031565755
