49
Energy = -233.76512508 eV
Si 8.582165720282068 7.711785838598379 1.4441536446094851
Si 4.380009969081392 5.495594117089558 2.2045154647716596
Si 9.435719486341572 3.8850060552481795 3.1494783078726662
Si 6.715338975147141 8.859429828261243 2.4833068765329314
Si 8.166723997999261 6.011125530955544 3.0510797364697466
Si 4.570503786794587 7.83632611889921 2.6596665913983126
Si 5.560589059662928 4.307880673218564 3.8925256568565487
Si 7.034172972250074 11.0172492903958 3.4450553030199527
Si 7.422038620958375 2.933467542888913 4.028822907331806
Si 9.583007920404858 8.12241909443271 3.6606894803793533
Si 5.998799306381593 6.607645992608335 4.1196909358622005
Si 2.3190365083799245 8.164482214584842 3.698777405972043
Si 2.7131499374799204 5.801862409393109 3.8022880303888473
Si 9.349797370645835 10.529775197245483 4.158725996455911
Si 9.670369588246267 4.631031313477898 5.39902026058943
Si 7.509373221501679 9.119719926709443 4.943828895522772
Si 10.61777901523376 6.80758975756371 5.453067285230516
Si 8.199296395342227 6.817340201765185 5.410269602808625
Si 4.2771027656355916 3.365692054094694 5.733382533975777
Si 2.8312406433633877 7.795393994428376 6.019182376057534
Si 6.253377699233846 1.8708040595152788 5.749810612811044
Si 6.366059729993448 11.138254523155215 6.110907414839268
Si 7.2307385309698615 4.341796496726474 6.088454569136458
Si 1.9775518072820863 3.980062611154666 5.17463127359033
Si 6.644332994849485 8.8060198659209 7.444101523363602
Si 2.567383232141482 5.550936065094976 6.795801520446982
Si 5.195045217883368 7.283516438724984 6.31090199463539
Si 8.703807271093504 10.661902230131044 6.462182516150416
Si 8.51836739933829 6.539798479195202 7.900540097601611
Si 5.251549233191061 5.136665164565713 7.2979301854889576
Si 6.442855142920716 0.822131422672068 7.881063120336958
Si 3.6886250265045093 8.792833801389541 7.954212643366384
Si 9.395681522677448 4.190590146406451 7.731697357256844
Si 7.413480526018354 2.954807124955923 8.212028212351262
Si 4.678363263152658 2.486017665317137 8.006381043599383
Si 5.211390733476886 10.569809438591118 8.334486373280445
Si 9.028706210362783 9.05464780893733 8.155366071976548
Si 10.812094619521545 7.532741620128275 7.747365618045879
Si 6.106369661807362 6.864760662275247 9.176876046051252
Si 2.9868080779493287 5.145284344023726 9.011735913293863
Si 10.468460949735618 5.704278243935043 9.349903652781887
Si 5.8516486151396405 4.232401667466641 9.546830898775307
Si 3.6334736217873096 7.241590795286601 9.678365982371652
Si 6.369003684742945 9.195723640522612 9.974045832404205
Si 3.7131318100869297 3.1370090309662486 10.061739975223292
Si 6.676000949136713 5.7057950559343675 11.321124276062882
Si 8.680161813636435 9.24617128346212 10.488947421348668
Si 8.56428296419051 6.82789571058408 10.343589554800902
Si 5.135032430043355 7.664937451101737 11.431451006500954
