41
Energy = -192.65875671 eV
Si 1.6162426391578222 2.8577043246626657 1.8158987181368
Si 5.838227128674922 4.554225988344831 0.5767925528170121
Si 3.6038079486416756 4.375600458417913 1.5821124504479553
Si 3.060073476947166 6.623085053645734 2.0646511161055483
Si 6.781709603782484 6.717919160301326 1.3646131388982636
Si 2.9931860694954184 1.1176370023313162 2.909063994685157
Si 0.46186537187922005 4.314176615430428 3.3815484362054007
Si 7.032581393670282 3.437491880942453 2.384422373860754
Si 5.0613978758930225 7.933901783375592 2.2926296675529314
Si 5.417059034314072 5.429797569197822 2.9450630594141693
Si 9.038905232960253 7.395728079451295 2.0137189335101575
Si 5.444790267570913 1.5491199178809723 3.116056414927647
Si 8.585294431625854 5.292410020939093 2.8312626141114157
Si 1.2645621422674689 6.7056496541474875 3.68474238454541
Si 4.3678064689933365 8.9665786880638 4.371498223434649
Si 7.41603675847888 2.7751395973231414 4.67055391483278
Si 0.45463710607264496 1.582840576730416 3.750635500456532
Si 3.8485070986452903 3.2634296944697585 3.7866345260144043
Si 6.520038919952576 8.015312152773719 4.92963444438594
Si 3.6535262998988602 6.68985547610233 4.693665454057216
Si 5.1681318773449645 3.67119758295356 5.82698278228626
Si 1.9376723959706195 9.336040111542372 4.504217980765487
Si 6.354846496468556 5.641429865338952 5.231332975170995
Si 8.779221587847706 7.444289352864543 4.4297215896699615
Si 4.2751841552986765 0.12760346940660314 5.285242064613676
Si 6.761494509824482 0.3673797878676933 4.792237963650541
Si 1.3866117018382722 7.117427540527177 6.16450207839182
Si 5.299436963375114 9.336040111542372 6.696315163366228
Si 2.3448923928869227 4.689136786130208 4.897821399201601
Si 0.32613416707607495 3.2335137723523886 5.617959653476171
Si 6.496560964186851 1.9010785124138887 6.83425904629092
Si 2.3824040794140786 1.903449101219737 5.440948194668782
Si 4.085123993820471 1.7176112553230953 7.186048724459419
Si 8.648885551058989 4.9643937813589245 5.201767070178119
Si 8.058517118063078 5.6109631911387385 7.462042691659113
Si 3.618578809445868 7.518919803443018 7.024816629495031
Si 6.152393813433412 7.028566599823333 7.254812340023643
Si 6.361033757411765 4.019497432363724 8.01862616890013
Si 1.6055671273605772 4.849434354410498 7.141588951176985
Si 3.930149358048874 4.19373856971254 7.867040492556963
Si 4.513674989546351 6.3194624091112 8.903289200240852
