40
Energy = -189.73182158 eV
Si 6.079097985067382 8.715378965755662 2.6897412000256544
Si 5.5689258924644145 4.759405525250673 2.639532403736787
Si 6.967391241439477 6.593130148638219 3.0904936805804093
Si 9.243786305794924 6.341226014874721 3.6102647035816293
Si 6.7243702817701205 3.75494731746626 4.4696267007033645
Si 7.1140999541254635 10.569214093889423 3.773697761348182
Si 4.172936435838548 5.557162637129641 4.39604046406286
Si 4.2212537147657905 8.696915667320793 4.189449101604041
Si 9.070420164341886 4.147254898872713 4.527258376925035
Si 2.446951456785308 7.162390224108591 4.3437082150472905
Si 10.120184667526658 7.898992055346958 5.179575653680756
Si 5.189300358575821 10.600069173651104 5.233147525420975
Si 8.016783303609373 6.550537095647099 5.765294609062389
Si 5.880213918406541 5.165017697993822 6.284195717943586
Si 6.45163769862925 8.311028054816529 5.103332355136259
Si 8.53756149855674 9.588029842291133 5.445645332251573
Si 5.6087652069535245 2.616629193181881 6.202401065576882
Si 3.680493536292316 4.0389302878882605 6.0789097862915655
Si 10.783647276528603 2.8461290967682977 5.531478424712373
Si 4.267529124700037 7.943954399294289 7.796769320865073
Si 5.449313142663459 11.707835508742189 7.266397533537274
Si 11.366408192502558 4.940779967341251 6.809477643640537
Si 1.9086908490473997 4.738574875848341 7.545047530060449
Si 6.882580569622205 9.723258841109471 7.142569793205547
Si 2.25535364771525 6.992123039440764 6.69122021370414
Si 9.513299972721342 1.70778318514338 7.400554057775782
Si 7.323199204900166 2.8196630250849233 7.925780769512005
Si 8.987915107270421 4.247000977527871 6.944755104018405
Si 11.114751726881815 7.281088509555941 7.252531246337897
Si 1.7860576307013658 8.88516277563274 8.217236515369917
Si 10.640786128602288 3.5365504989635133 8.571446984162597
Si 3.85413296281353 10.231300799392804 8.23674602939638
Si 6.836729354467792 7.9030035639226535 8.769614989942148
Si 3.6087176885992927 5.772026858620047 8.78206970066418
Si 8.885684592626808 6.847246184018079 8.113634918024475
Si 5.980866716292641 5.550202498098502 8.641257378143772
Si 2.9992128879721736 7.706784513643596 9.955721953428991
Si 6.764990607578979 3.7727982267184914 10.06363897553155
Si 8.754292465564538 4.797711652971095 9.360387983550108
Si 4.961384511575521 9.002480090330165 9.97906626372874
