47
Energy = -224.2948334 eV
Si 6.168878032514518 4.340700269687899 0.60413026416591
Si 6.669431438810272 8.252669108270823 1.8020440639510988
Si 5.622390925094013 2.8170830378776284 2.5912576419968496
Si 3.3784258082351766 1.1973008476271223 1.266594659595477
Si 3.5527901109587665 3.680579525795127 1.410299401590524
Si 7.393680036449706 6.047686562002854 1.7547268598787973
Si 4.098173927656466 5.428803068132593 9.257961060429732
Si 1.2835619863926881 2.5526839289569985 1.4132033736086267
Si 1.854819165767903 6.04654458216411 0.9611003087661742
Si 7.4612109038886825 2.3393752771092355 0.9595098074469423
Si 6.821049507307295 4.564655940622724 4.002810071349884
Si 0.04213912893109638 4.611631167503787 1.901694593867786
Si 4.917774138212985 5.915201840322535 3.7297440196076246
Si 6.4448924146205 0.47201317945636684 3.9610640135132336
Si 6.581864323719836 7.691213617460039 4.169445998183565
Si 2.638430214698727 9.440468135993575 5.195997495875921
Si 2.649677406827535 8.555322442205712 4.710907191013641
Si 5.920837208758318 0.589816377976685 1.6507470337633467
Si 4.588781189937955 6.994508522897895 1.6726068422540565
Si 2.47335976672564 7.885094829509256 2.363036843433283
Si 2.5592765988258876 1.7134956522582168 3.5489783236820083
Si 1.6725454743379198 5.746620930150924 3.4212264499583247
Si 9.03832252160577 5.292626559267391 3.202462732474876
Si 3.3519688027808385 4.039482426898739 3.7977040479473674
Si 3.6828924155397154 6.522293601113567 5.623900962166682
Si 0.788647449529697 8.58700800564726 6.316688443009729
Si 5.905795921716693 2.193560424278453 5.701020201157685
Si 8.43632426456639 2.9905319142847753 3.0685856569320986
Si 0.7855162848396546 3.3931870913086226 3.8529877560354713
Si 8.443675129199377 1.4030128758961744 4.784737091196304
Si 8.470313529543152 6.535348994603433 5.218795477290658
Si 4.882701723971527 8.88798003452489 5.457876259719401
Si 9.03832252160577 4.269570387560067 5.744585516409871
Si 5.044130902082824 9.26294913905134 5.688672771395703
Si 5.379098867615874 5.507351617079696 7.254976271348412
Si 3.8977268508815475 3.6019299264120423 6.215653914014635
Si 0.8386905718962071 6.347395598079482 5.521757431607036
Si 2.420543388737577 1.6012100294603906 6.895898146305041
Si 2.2732092807402644 7.068722464543525 7.541109174517281
Si 8.01452145355526 2.4199316231211556 6.9590473224072245
Si 1.3620440592890706 3.659441441576444 7.086415640938409
Si 6.267959676328335 0.6882465909002857 7.646041841930446
Si 7.358878309984936 4.6908841332100035 6.3030402384508095
Si 4.626799042523268 7.75865169383791 7.545428690894239
Si 1.9169733216961071 5.0872649385332895 8.870689811330681
Si 4.1016138874074874 4.2405349296168575 8.70612701991603
Si 4.35572445973006 2.002148549113663 8.123095608711864
