48
Energy = -228.5462329 eV
Si 6.218833957945331 6.797746589907377 1.4251229669781953
Si 6.355437905196012 9.118433262456879 2.1475297666607247
Si 8.118099252573643 6.0484979725231325 2.746930629594513
Si 4.641268353205841 5.549764245650503 2.6579518509068656
Si 9.966175703180053 7.537502762135332 2.6138607212311222
Si 2.3569188152516287 5.5315118255146825 3.1815835679653692
Si 7.953807636668727 3.7820686609891547 3.457385703027211
Si 8.18828348344796 8.691621432323405 3.715602199574909
Si 4.781903006023348 9.348032744790233 3.929445986506789
Si 5.649657777444261 3.778237315852206 3.8269266389206114
Si 6.142992333149101 7.3184977684824695 3.8874438607832866
Si 4.1106760454462625 2.1389708402360066 4.551342343472304
Si 3.4428928071605354 7.4174937158543655 4.045066482173265
Si 2.7552204924152464 4.050736787859344 5.167225881579152
Si 8.066826463934067 5.5781951272834585 5.564802334440693
Si 10.098818075110792 6.568608514851648 4.779377770457323
Si 8.92794337252009 3.3226075277512295 5.591557953889137
Si 6.005411446088152 9.711990194369008 5.994070568090834
Si 8.344121637878468 10.210564830188607 5.597413510063741
Si 5.021468705085368 3.03452860781097 6.546463977755421
Si 5.677117164420079 5.366961192684621 5.728906849544875
Si 11.068355480519875 4.451093353480981 5.511214254159097
Si 3.5352602975621528 6.5042265353821955 6.154713157431969
Si 10.227651465059417 8.39981533736216 6.3758987167027525
Si 7.258169170643764 3.356900456193575 7.272774271752263
Si 10.766099065708813 5.584988445717794 7.522027770138499
Si 8.56799646681488 6.87433773118166 7.671132683701482
Si 4.687476598032577 8.134919736100933 7.455909760282459
Si 12.246458699537362 9.50678351534483 7.199949990754939
Si 1.1740511757261176 3.3530418335164307 6.868928778944487
Si 5.069561893269288 10.5028522336662 8.033050312779622
Si 8.34590856248624 9.219581922415564 7.8767772560433045
Si 6.3520191611255425 5.921351979475143 8.06114119520763
Si 1.8443897109022862 5.507015543737432 7.5083505501532395
Si 2.8246817853055344 9.606365080988498 7.994476931292959
Si 3.2488124253018698 3.3486728920497457 8.146779638562137
Si 12.05135424047202 7.380143519650867 8.297528746345094
Si 4.029067862578482 5.601748192692399 8.708071911701595
Si 10.52761612236286 9.292593264450497 8.855182262955456
Si 9.504448999153583 5.660858190560075 9.464966842485097
Si 7.581209072573421 4.177118425987928 9.469684343596432
Si 5.799636716665006 7.743361189695366 9.668920877286293
Si 3.4412389189955563 8.00589491357908 9.678990534552451
Si 6.8212396673010405 9.93880486303884 9.601810533189385
Si 5.725194714406148 5.31973607240881 10.547386010968468
Si 10.899458967908418 7.491637841006618 10.371007181193846
Si 2.0321446994012278 6.088083355373922 9.962898434805822
Si 3.5185990546934947 4.097477084080282 10.53639091804916
