49
Energy = -233.1644739 eV
Si 8.69887852782153 3.961891194783135 1.3425074777643033
Si 7.041095724084538 5.172234024755705 11.514906393642363
Si 9.31978417404677 3.6677093875842792 3.620793451505614
Si 3.8931386472108964 9.351083164797785 7.1990625925672
Si 6.91186951301966 9.073489774496606 9.222979582683665
Si 8.128436672053336 5.297915977636559 9.341050064752041
Si 2.910845164579665 6.43684959557099 6.110219937417631
Si 7.654448407704081 2.576976205365267 4.893418046514206
Si 10.080438548255247 6.2037492611851155 4.067941032348546
Si 6.236443708200912 6.32649565882043 3.4730486940747474
Si 5.451843498185577 2.0841514916338166 8.539306204734384
Si 10.237125412876551 5.04767970748686 6.571213337697477
Si 8.385566320250474 6.15456203203099 2.403363201105381
Si 0.3690898304099469 6.161658832649636 7.156943896329605
Si 4.716777866884549 5.923825454726435 10.989291178766784
Si 4.165157514311836 6.117639249623778 2.3320988785642425
Si 6.307602990490107 5.503574454753292 7.593547334025015
Si 4.799486301173729 7.912517784303953 9.576205469501293
Si 10.626503802220961 7.289032011152324 7.432529536236975
Si 5.972802499407796 4.076681382445485 9.783421059600228
Si 5.063016887540079 2.8273200500515694 3.9483630002592274
Si 8.326234474294662 7.392372635921654 8.267586970911477
Si 5.471001745998954 10.19726243247446 3.5375606423024433
Si 5.947178867028231 10.600784986954762 7.616786370660922
Si 1.5515150781623552 4.201192629413274 6.4883553191020065
Si 3.6028637927941656 3.4438520782811604 7.583512731881935
Si 0.8244489184144966 6.122849827547413 4.7053146480090104
Si 3.060429813575441 4.230032681646866 3.5597593049583294
Si 6.634939108180929 4.796164266125396 5.2724932817230075
Si 11.40462669413882 4.349678458843091 4.562308899932483
Si 2.740267875790864 9.18827829659649 9.277029182084663
Si 7.362357561316796 8.471482638800973 2.627149298499334
Si 6.468305910188693 0.9797343284014044 3.557185672456386
Si 4.296849107015235 4.45389411779399 5.620419816495844
Si 3.643391389761282 9.210814969523792 4.799192323045809
Si 10.68827134151587 8.238883973949642 5.213551839658075
Si 4.476017678016994 3.732444809243237 1.6493732563336319
Si 6.726672565791838 2.951620958935714 2.1759832216107595
Si 2.2670377123077943 7.078375323984997 8.324923638761884
Si 2.6540948633096657 7.3121792257342175 3.8189382553838316
Si 5.954755639338245 8.180155011101165 4.897757345004636
Si 9.336346229347901 3.569974873680584 8.229723153591971
Si 0.819614327539987 3.768781574460384 4.225979001612368
Si 8.521687082385062 8.960731015286617 4.670692074161068
Si 7.260482700783971 3.01154826978636 7.221998112696853
Si 5.868403558259237 7.973542891194036 7.273831348641989
Si 6.900554711196271 10.43282032799431 5.455925338655187
Si 4.011186284177994 5.475803267211388 8.720896586347406
Si 8.605839305344077 6.817735575913031 5.922322792065212
