45
Energy = -215.14097867 eV
Si 5.206952087598805 7.328340209093912 1.7606616624806966
Si 7.716841439512466 3.5293635496192435 2.3971088025132232
Si 7.050727323951422 5.845174015788627 2.327090241220609
Si 8.982401975593152 7.24980423365243 2.3199240784960655
Si 3.520093432583666 6.399261919105066 3.1914350823239386
Si 8.287570275723866 9.4669220262009 3.0925420026588903
Si 6.000446756530613 8.870349484017483 3.5035878284622126
Si 9.704551405225676 3.9774853432294237 3.869262567803864
Si 5.662023469284119 6.461693527001124 4.258011703829064
Si 9.981499043338967 6.2800383023843676 4.253691449917603
Si 6.340533964515746 3.76492304102209 4.330701873775287
Si 4.031747840600984 4.2938094968759115 4.155238175158146
Si 1.761375673783633 7.090481947293845 4.664410880597117
Si 7.833192048323207 7.460216001545959 4.522758797916609
Si 2.83309973375858 5.320639236994495 5.893641849430767
Si 11.123771434747235 7.87868602609629 5.584436711187651
Si 9.274932382069625 9.363072204142535 5.270744504759754
Si 3.377807385604529 8.051155746289933 6.120583904421239
Si 5.192612240224737 9.49973655273121 5.6750533613697955
Si 8.177781096101565 4.806867191454963 5.637674743810989
Si 9.490754025386575 2.7437329411271394 5.967577152282469
Si 7.094420180428793 2.3738874503855296 6.167775176631242
Si 8.396658623600228 10.38654946759409 7.1360477350390825
Si 6.956264155220287 8.404569406245699 6.8503596496835595
Si 5.4544132445737805 3.8486095105717624 7.523882811575476
Si 6.1412034806312725 11.310121866510563 7.121708957226297
Si 10.128542106138896 7.58337027795989 7.710422872556183
Si 2.8592197996458646 4.568761329383815 8.093796899536716
Si 9.135755961224737 4.023461684058816 7.96472995248784
Si 5.133146311395448 6.070924766423112 6.664565532935813
Si 8.094975341164107 6.3083334490434995 7.653410914799522
Si 3.7634730432310137 2.419644918646928 8.345606638593468
Si 9.950224857575886 9.695378739120532 8.887904210422867
Si 2.309851392579013 8.49054370980077 8.29065171548832
Si 7.329739096718 2.618241405232615 8.550920285396685
Si 4.4195352675124715 7.2504620680751835 8.587445135618003
Si 10.15041913676 5.704076797203038 9.257411136668827
Si 2.2932526708631578 6.353111354661499 9.45727895826744
Si 5.9333871520731085 9.641608637598303 8.858346710691887
Si 7.947140013602492 8.69252694655443 9.47692433277946
Si 5.482511142381949 3.1869237161326454 9.963703753308643
Si 5.862712871227299 5.497013692534649 9.988318798424066
Si 3.9729777596613403 9.140484348398 10.062240058807099
Si 7.996715971719856 6.429648445701321 10.106212053894579
Si 4.142745385608786 6.819993016493174 10.984198334747754
