45
Energy = -213.35433647 eV
Si 5.512720566556364 7.746415618640449 0.1198424499067434
Si 6.695242139267596 6.241036849324347 1.482344151233647
Si 4.051468366526075 6.403626937096202 1.4751913402486292
Si 3.123635368575778 4.130859306734894 1.5829271216912049
Si 5.781586216214532 8.53670181970058 2.4335130158932254
Si 5.346859603388887 4.375308646714237 2.350884760804631
Si 8.351710920669246 6.383721976823679 3.2623513466443153
Si 9.648872080520034 8.398949326259928 3.656152958295183
Si 6.931512907605222 3.417643840193236 3.930884196807438
Si 7.503128178093369 9.444336639389098 3.913676742723522
Si 9.134289469443077 4.163858881464961 3.370941403954143
Si 4.031169563920094 7.357865074963141 3.7203860031454905
Si 3.1574727447231425 5.007516866090673 3.865495166093945
Si 6.459476689466258 7.197898460472937 4.416676546332346
Si 5.373841753073093 5.1445551515390955 4.790513845791417
Si 6.756016108145809 11.035743060326517 5.533804125174753
Si 5.485026615301336 9.014797416696208 5.879842059023438
Si 9.573759770929872 7.9971579932509 6.017028021088175
Si 3.1445476536432455 8.893804234584207 5.312192684446126
Si 6.831797975838694 2.3823146761220744 6.116412201899578
Si 8.537826511751842 4.418921924267282 5.625007987804501
Si 2.599203338663497 4.718116823100431 6.257537333400471
Si 4.781776074622145 5.830710388293733 6.942595221519645
Si 8.193299641623446 6.323674018858502 6.975343960702607
Si 4.75419539816168 2.123553572739754 7.177843117193489
Si 10.50396513102964 9.502845171689987 7.538593465470006
Si 2.8145099928677673 7.064318187899461 6.847004746842692
Si 8.254550572653741 10.046552448017055 7.060044762695017
Si 6.052222247865954 4.0839506699510695 7.853113123651863
Si 9.030889405369626 2.6606705242888977 7.132657164165612
Si 6.397613174818477 7.757586847728257 7.703043000797444
Si 3.320599210863721 4.477562287372355 8.520638095563786
Si 8.39295294327663 4.51301869697845 8.566913963936372
Si 6.890977712502917 9.913902775265003 9.021798386582535
Si 9.197595271023083 8.684831748558624 9.361143026929273
Si 4.750861898382659 2.819033387782262 9.562073823602923
Si 2.8432581270701967 6.702565073511834 9.31305708416371
Si 5.242981921130153 6.680100729573667 9.61112457544344
Si 6.343869456784879 4.623092484438104 10.240795876686327
Si 6.798263254197221 8.071526860484722 10.649553234032858
Si 8.662228340991458 4.392091580368589 10.930138704253654
Si 8.795879359243834 6.774239877172909 10.856686517601219
Si 8.2822266705547 10.180281895896071 11.125521146327774
Si 10.175209065444973 8.609189926582474 11.681803778425056
Si 7.985229762053833 8.249868497642764 12.711226935859377
