43
Energy = -203.96937032 eV
Si 9.824296100368986 11.152256421432567 3.6101122069323175
Si 9.492081634509866 12.013512409978771 6.027482632959955
Si 9.562531659843952 10.07622422815569 7.4623158101737435
Si 9.984267677248706 8.812428396580795 4.053426022725511
Si 10.829140591575287 8.395468825388923 6.270893899023543
Si 7.759722862191043 10.05945011167763 3.9581501848297203
Si 7.479005992930883 10.766410878674279 6.182045813902802
Si 8.564961526843046 9.255887694450895 9.62381333055551
Si 9.114053773834417 6.800772733858756 3.030910495941188
Si 8.366827210120139 8.411295364143637 6.0252956293324305
Si 5.8840716086938265 8.670697180476225 3.3851137028185287
Si 7.118672960123673 6.960687003659643 4.698157216538156
Si 9.827727644657779 6.32409666607001 6.847211351894598
Si 8.81235187769572 6.829888375334344 9.824973890537752
Si 5.039582046814053 7.685420686856198 1.352598700415809
Si 6.017756766364761 9.494357732216022 9.595651814660785
Si 6.845886179256441 6.472739912361823 2.2823188814459003
Si 5.767739614734614 9.543315877424075 7.213621158757191
Si 9.203578172698355 5.366892517152841 4.846143516570849
Si 4.51458623770578 9.13606414923301 5.283950691695821
Si 7.163266277365162 7.710745463704506 8.127967333055432
Si 2.653453790205847 1.526905575321831 6.938222088819539
Si 2.6058936660782384 2.7066158014345856 9.122464699644489
Si 4.7607454917375644 3.5729257437027484 9.606018840484559
Si 4.846926271516875 2.389959317692863 6.798101482664941
Si 6.421317391018611 2.156058127399449 8.573350536683758
Si 2.7645322526743117 3.791995133321362 6.163777881352144
Si 2.084041455632245 4.816889901193479 8.151668357002197
Si 5.362339250698268 5.458456732367598 11.0767006926205
Si 5.93172953409657 2.9041285742162053 4.642205552829287
Si 4.536889622659344 4.920965412832146 7.582275094863301
Si 3.3347611972489055 5.368714159410694 4.404152439551573
Si 5.744667029938894 5.221785080666323 5.546667387522013
Si 8.037685298112715 3.7808543674642197 7.945056684203113
Si 7.760538855183765 5.234271518922071 11.187171849189435
Si 3.6106440570156964 5.626903876941261 2.0379897056729885
Si 4.990316853846898 7.3000932895605635 9.62506960221044
Si 5.486976041629811 4.628534768795789 3.05020271294105
Si 3.1616202992632614 6.929238461060072 8.150430757636288
Si 7.903743081268 3.6481726656297235 5.602798226739264
Si 3.655342726847733 7.111969329035057 5.891336050054785
Si 6.658319370633522 5.481199470262194 8.967102571998867
Si 10.018689824376061 4.988031841198428 8.738364277806726
