42
Energy = -201.04556204 eV
Si 4.416521189791424 5.789107190239396 2.3767349518179635
Si 6.44602264849049 7.15029520402611 2.48485249951616
Si 6.1239527439110795 9.521344171332931 2.1549208515363474
Si 8.373572193658035 6.324742713606115 3.5179179157732405
Si 4.251318202903019 9.228207380663003 3.6009000194238947
Si 9.347783765935665 4.16607606026726 3.7273537587160837
Si 2.744037741227273 7.363645931097368 3.5481248617528314
Si 5.255350736123217 4.161221651103316 3.983735994335898
Si 7.266873078110243 2.897738308727385 4.016551088114938
Si 7.272398871787405 10.463122214167502 4.178839152307979
Si 6.423635725336244 8.343834622072599 4.6142675337438765
Si 9.32034005779376 7.795379582775896 5.121105273008585
Si 9.604531136171584 10.165719379303992 4.814533808592905
Si 5.196741060268054 10.435028089973576 5.365592283118008
Si 7.315551632092283 5.054499792556327 5.278763221409624
Si 3.0030907316605875 6.803831279193586 5.946717304416822
Si 9.654587956461565 4.53154620376159 6.11863049813388
Si 4.128468035753812 3.659785887911805 5.989676805633562
Si 4.924394529899212 6.5535869345084565 4.630442843933073
Si 5.9126695986606315 4.526958988307992 7.38385171725231
Si 10.857708757611965 6.568212849154915 6.5404429376491775
Si 8.994525351171777 9.614439278745897 7.044290657916231
Si 2.1491590229936572 4.704252345583974 6.73442832070041
Si 7.364957053149798 2.5396927212897906 6.369853164949726
Si 5.239307742553854 2.0163843703751847 7.3141179614509015
Si 7.277681384703393 7.664885404127444 6.779986224207366
Si 5.2444847730093365 6.907072390923996 8.038681526718001
Si 10.457312321590356 8.100255561007728 8.459425743543887
Si 4.544212508278431 10.703589966254683 7.603032037175476
Si 3.5840957481294167 4.996195059203674 8.62477519623964
Si 6.81448992624675 9.863376410257377 7.7997597490915584
Si 3.5639261811946654 8.4484416915398 7.573222984252509
Si 8.764744234204725 6.309522111688187 8.001599886988858
Si 9.418947807769088 2.6274368572973534 7.525238343789148
Si 5.089575177003212 3.3220871671349306 9.383244044854932
Si 3.1255312456212745 7.119021443357774 9.602018218679106
Si 7.077612365935497 8.498144368538624 9.652321412747254
Si 8.979363010759794 7.383439442501127 10.454705878252863
Si 7.929330514727566 4.115633316266417 8.685587294179234
Si 5.333516407863534 7.279982078897511 10.484779296226058
Si 7.078282648580731 3.4863860871026304 10.824951963061778
Si 7.137874189704284 5.804357501993784 10.658504783627516
