44
Energy = -207.91747833 eV
Si 7.715137257692488 3.9323868672107363 5.581709599904857
Si 5.814938037033527 6.828199903329459 1.4075542445278533
Si 3.702816702713554 7.805168877114725 5.282593211220185
Si 8.535203377479256 10.566621901453058 7.104604531994937
Si 8.304912084548697 6.495373593748713 10.068749817304177
Si 4.995825671752003 4.202905465309069 4.726045213598317
Si 2.6828746315564067 3.774521433434673 5.772371820583631
Si 5.706005204956955 11.128359518691257 7.70918919702929
Si 6.795773992454673 2.847995950370051 3.6029073288202778
Si 6.827077388730661 11.506574840164056 5.524637945681107
Si 4.0043478193225415 9.4279913028259 7.731968319344415
Si 8.10339568582451 3.1409377345494485 1.6354525477326305
Si 5.849438564641242 6.317652044803658 10.180846472616244
Si 5.908521351807178 7.46045618665172 6.7549930716720565
Si 4.339680959122637 3.6288396809527677 7.572616547884316
Si 4.5101336138463655 6.409813090792087 3.4328883474499485
Si 1.9644002266824414 8.72316362340242 6.770059461461115
Si 5.734000698111739 8.50998516204519 9.06282975537924
Si 10.043640987163284 4.127052059985768 5.16673773021729
Si 7.357903703269656 9.090574492887969 5.66710777818395
Si 10.423030742449203 7.72590697802235 7.610134755096233
Si 7.0759984760205255 5.706600234916473 8.00482372171028
Si 3.5778960361065426 5.890957899705493 6.744440679948029
Si 8.90494929933056 6.317188071062341 6.100379546182741
Si 7.327948605657184 10.318273672126269 9.332699948113245
Si 6.7647704189952105 3.3474130616385414 7.757022017527739
Si 5.01836138104389 9.85157072176161 5.470836488069578
Si 1.9551367675992948 6.85548897953355 8.347339061484057
Si 9.172767542565328 4.40958103734778 11.075839647192819
Si 8.161351058209808 8.297887356339618 8.166589286563774
Si 6.586924166054502 6.0527651751877425 4.813903639868838
Si 9.209863753908149 4.64826827364172 8.756855122500165
Si 10.456152008258732 9.429881638997594 5.872149520186813
Si 6.1321574051655166 4.480057862487047 1.656025989808185
Si 7.75223022158904 6.78103613597051 2.858920628774522
Si 3.8102070803667147 5.6379565649016 9.166395075483337
Si 4.541740515287442 2.9465340955538397 2.555855310338726
Si 2.9178273472404825 4.562078077656745 3.4448410925973167
Si 8.871879369059064 4.761167342538869 3.1770019122087145
Si 9.028827413739357 8.028193537040554 4.43921344469537
Si 6.951908097910766 4.048019582985346 10.20307893405893
Si 10.902132022401865 5.40008542892808 7.184173984891072
Si 1.5106202492092087 4.5806928257592645 7.745066347647926
Si 2.8683717258480868 3.4737229933453553 9.422281296296731
