44
Energy = -207.37587738 eV
Si 9.657731227006085 3.8021585746488564 4.455022643395181
Si 10.569070272386423 6.366215939043095 8.289613696051356
Si 7.471081686827787 2.8625117282875707 5.312028253672512
Si 5.362508263500493 5.742525198303396 8.590935050591705
Si 3.877707019362542 4.014151334652045 2.5272512378426284
Si 7.431058869896001 8.757218999215816 4.36431436652592
Si 9.48971589277687 6.045484999800266 3.169100668266348
Si 9.08619047283672 7.073339540842511 5.279800764976026
Si 8.106187618463212 8.005258542410628 2.091231741592389
Si 2.9322280203887945 4.343909799351307 6.164671028761643
Si 10.540813573564385 4.829830023490157 10.202651020736953
Si 10.188132616145039 5.029014863853896 6.4746512680257435
Si 3.102441883161923 6.477698365090766 9.400798525844529
Si 9.342168521159406 2.80762417212083 6.984986797850481
Si 6.425085106424347 10.06224002286662 7.506215646679575
Si 8.39021858872121 9.05443811476646 8.27179319392501
Si 3.430690499400578 4.281570670017241 8.507176840761863
Si 5.986945762934328 8.504546412128054 10.306422360633405
Si 4.588279910855872 9.380459678899156 4.3604396583647524
Si 7.162064201470489 3.8912221099014683 7.564006147764865
Si 6.352296601019625 9.600047982192958 2.1471714547133045
Si 4.863327185886246 6.520617318351485 10.947036404169037
Si 7.478213147843876 5.195679556360642 4.462937994216735
Si 4.33323721804561 3.021381315961695 4.702445965732001
Si 3.5322569790188383 8.167324239728739 6.011700233039078
Si 4.020915849604897 8.64439696656393 2.1286293690969553
Si 1.9948532800326486 6.39271197457845 5.301703171315488
Si 8.185446596207344 6.052789886942086 7.496258538783924
Si 6.448151876054993 4.788068585597662 10.563910945376483
Si 2.484800323814435 6.2111926557604304 2.9102104190168863
Si 8.281998978334856 8.313684223879523 10.49385287615594
Si 4.196756231573004 5.472452239065659 4.461238432005231
Si 6.354865816973191 7.5871182102921635 7.374640101631337
Si 5.7961354108519165 7.065274215838466 5.165651326100454
Si 4.847929149347814 10.382609277531403 9.350307427930975
Si 5.558152253665948 3.023437772763447 9.175835696078307
Si 5.811677154157631 7.1910911130894775 2.6376000947283136
Si 1.8700776974086488 3.8361046834155976 3.9967056876166964
Si 4.118802205103503 8.410860304195458 8.28892285806329
Si 8.865471875031375 3.250659100778914 9.315210122180204
Si 8.49558446637441 5.95704437357393 10.010255188699643
Si 10.274729719733216 8.397999009131038 6.98145094582349
Si 6.3789665742497315 10.749710452515147 5.155459890548084
Si 7.278118685755083 5.421284669925872 2.054366866715779
