44
Energy = -200.22671932 eV
Si 9.961879509443097 11.710392043984898 1.9636205256451769
Si 5.307608742183521 8.609639274264282 12.823163977593222
Si 8.860669632622848 8.072304009416696 5.914676280794192
Si 12.154728970511377 5.681181354851768 5.285098160116123
Si 6.542154765067379 8.709247558612192 2.7470816991659497
Si 12.212928698953924 12.130174775023953 1.521470900149421
Si 7.455799346865228 12.011927611615224 9.891849721829898
Si 6.5760556769859795 10.063345215479815 4.849497678354968
Si 5.644767117159339 8.08265763447594 16.62728522057428
Si 8.78750816035499 8.31564974547895 3.461433690787943
Si 12.956537677225962 6.6229813452580855 9.51245406423519
Si 8.242358471532045 12.935082842249427 11.8393460218229
Si 2.477732750709383 9.992422746742312 6.317821317685497
Si 4.44177113967813 10.81378868008678 5.3282040303603315
Si 6.776427609492281 7.68990260626869 4.963518277804965
Si 10.214411418242161 6.232564730307126 6.54053174013786
Si 9.587691562251509 10.154504044005305 6.646750871914009
Si 7.869968379767216 5.6393566381413445 13.529996678928729
Si 7.715809223872853 9.187281830753124 16.333265707355036
Si 9.472927327531353 8.816658793942663 14.812070249518648
Si 11.501110597435865 9.568038317873025 5.237401551625497
Si 10.356896453575208 9.45733990536299 12.162667035922837
Si 8.343258746662265 10.53738185942937 11.408165462505643
Si 9.185696867435833 10.63219861726165 3.892968778984589
Si 7.459475443442907 9.444226214337348 13.509179942208728
Si 11.444863932710161 6.04927873358351 13.162719901686357
Si 5.397150993658406 9.787856835400014 14.92091977238439
Si 12.309202702813009 7.248714946333659 7.277251581597601
Si 2.8925526772992436 12.253175457535207 5.917535034792783
Si 11.201817683754378 9.348052165070667 8.239725527522197
Si 11.051794092857989 6.57103531396744 10.955140419915022
Si 14.683658079538183 7.954755334925586 7.781899932189095
Si 8.909630653581637 11.550314222964174 13.628309124330674
Si 10.870430100927999 7.4458135758167066 4.355121674022665
Si 8.098763095470929 11.789755441213316 5.636029445488509
Si 6.360988122919922 7.277664589133241 14.48152405469925
Si 13.144175667699631 9.578840224930952 6.966609167276853
Si 9.803966850014469 6.4405046626917 14.776007549792514
Si 11.011440016524194 10.549220644777039 14.22155814996406
Si 9.302089642613808 7.293508545812318 12.544501551153033
Si 11.719977521170991 10.9210306755535 3.3535579809181604
Si 11.879985785416922 8.825422161268602 10.418257039822647
Si 7.190070058184751 11.299431749683224 15.349222180760336
Si 14.26380700132609 8.446624452885143 10.19829039773899
