40
Energy = -190.94558537 eV
Si 8.296938033369297 7.482854757536597 1.988443407240893
Si 7.753435708406942 3.515122722400051 3.169443825776857
Si 6.979410412140413 5.748922834962374 2.9524359295814073
Si 4.675502813106605 5.654818494611176 3.347252634754311
Si 3.8348455847971334 7.714686204830851 4.171036280226975
Si 7.641910962559503 9.398590557535947 3.1369047342249043
Si 6.208959125940797 3.086492651216597 4.982193179500375
Si 3.840727110986535 3.7525684008032933 4.510201585635926
Si 5.703363111516902 9.144310481472282 4.412250802708545
Si 9.625962647271773 8.005954469490637 3.8569661546635174
Si 8.995665041172069 4.485628075449366 4.910616234038592
Si 1.9722751232828766 7.354775735327183 5.68734130391821
Si 8.519934353676014 6.855524842029414 5.754334953753508
Si 6.163244955015502 6.845453807645969 5.021709778759624
Si 9.682637360073842 10.445425896597504 3.9748120775307
Si 2.9250954653121566 5.134019977284705 6.356009265227739
Si 6.136001303927318 10.529723726085036 6.222319941396775
Si 10.758981119349 6.154034521728051 4.999500582002601
Si 5.351027522142788 4.990218226360691 6.347147350783018
Si 7.360029978119483 1.3899156363094178 6.43867707851953
Si 7.806358548752843 5.232517813392344 7.389332217778844
Si 10.56824304622262 6.692138076778382 7.3118930750028115
Si 8.84793656417035 8.387317586220622 7.729204138587664
Si 4.1057724382157375 7.325534815747703 6.873020931414275
Si 8.422534181918536 9.833059488486237 5.895909221413375
Si 6.364546304062498 8.19633617691124 7.201567828699462
Si 2.3512355287640916 8.71771702375941 7.846992198730985
Si 4.663077606080408 9.77214166829421 8.037252434706984
Si 9.052364516135704 3.18598072524807 6.890688986670535
Si 6.481814520685439 3.16837638161274 7.582469967342347
Si 9.894355943884518 4.728848630033004 8.623169111324499
Si 8.425972771607954 8.374476569424136 10.07587345221025
Si 5.624723298563662 6.3815438598354355 8.676786488167945
Si 8.009459925765785 5.979739717929564 9.71352465232454
Si 2.398919265051791 4.471096491292002 8.614337021960567
Si 6.006160598781569 8.706289229833153 9.66420063814228
Si 3.116864819956652 6.734574062262892 9.08724595436425
Si 4.775311070012104 4.139282820708763 8.884107920877465
Si 4.633654006768422 7.187189296116719 10.904259715939393
Si 6.0247473124344255 5.096797546438935 10.758566944099424
