45
Energy = -203.50553694 eV
Si 8.1192370803469 10.08791798447934 9.090106125255467
Si 11.266270828409015 11.903366783595532 5.052499461942123
Si 4.72131184685072 5.9043392312568415 11.378639837639057
Si 13.13258977013905 14.645687857171348 8.075725860804909
Si 5.972318616776169 6.512071995849183 8.300023172797209
Si 10.91051479232219 10.272797636966237 6.795371407504739
Si 12.237653915728792 6.261622084280621 12.603893272905546
Si 14.170451581808125 11.928085263883958 8.379645311520044
Si 5.631933643633918 7.1022534530811825 4.725855761144976
Si 10.277761955328353 6.458142015635063 13.866340781207503
Si 10.10474483311843 13.997949538525866 8.461413473564818
Si 6.190090063016511 11.563247887601118 9.275541177913874
Si 9.735081068916251 6.25361786532644 3.8853860286445854
Si 5.217720390636639 9.350660333743445 5.3971541251868596
Si 6.824629912193393 7.032046812128656 15.263810359207374
Si 3.4106309635364 7.852735511082235 11.65117933453192
Si 8.18362065571802 12.734142851750258 9.1662427538761
Si 10.547692437341881 5.3708229496177236 1.813309830072233
Si 7.517546256412194 5.753298299754308 4.025936743568411
Si 10.288015183268126 11.27863745387512 8.855447085845444
Si 12.0274482251684 5.329522326905507 14.906634626818935
Si 4.364747682054207 5.853309924406641 6.372088411979699
Si 13.933663867812934 5.168706136462433 13.659954779707128
Si 3.476447073434704 5.488074817136434 13.345433425251608
Si 8.589122752847828 9.682533549062274 6.6526386484686935
Si 8.94819795441873 4.094840055221555 3.0694343489986147
Si 15.0340120670493 13.792995388986183 7.128033722325453
Si 2.9226807709347202 7.739131263514633 13.956724872382225
Si 12.615652637939757 6.024052837669363 1.1921818832776738
Si 6.796508066151007 5.460448230994506 6.335894206896411
Si 7.1721398940274925 10.759691742643492 4.972142094820116
Si 7.284254509575355 11.770515612767992 7.075566678249887
Si 8.879403606469847 8.214168002604442 14.709315748158069
Si 8.061311332480974 5.862264992285776 13.617680182645953
Si 6.490738438292368 4.972729288928414 10.045777768113956
Si 7.119300949834418 6.6215230166429695 11.596441350187773
Si 12.116901577553051 12.660059957106267 9.404376509441128
Si 7.259608217546803 8.606466378196979 12.954333883137162
Si 11.982664865625775 6.663574683319335 3.3427570117683962
Si 5.189448648205984 7.289988453536087 13.344478721191388
Si 6.958176503763293 8.001061433122452 6.582357110190776
Si 12.646566638384675 12.740464417562075 6.7836814817153614
Si 11.636413243489175 15.014464940315957 9.944171534299098
Si 9.65212625832603 12.519720714974975 6.704708902136323
Si 4.513692454259938 8.188705167760904 7.434931517890529
