47
Energy = -224.28504782 eV
Si 1.6962733257685494 7.227864023408625 1.811803092248234
Si 6.9860383857181745 6.851533317387056 2.0582555526094666
Si 3.6804336421346546 8.084263979515793 2.74768155332435
Si 9.046314256915242 6.2294495246250365 2.983939076365856
Si 5.878438129625911 8.979332205521803 2.367263017482166
Si 1.2258440811494 8.442046609380938 3.9347250997680807
Si 5.479012721030348 5.317143523227993 3.0615857379223232
Si 3.175129261708313 5.610362183225394 2.7288273140636954
Si 10.696688242405932 7.685421382892171 3.854650076226953
Si 3.384666199858185 9.170610011919681 4.956654221455143
Si 6.513031688595613 3.3750683107372628 3.932371093598017
Si 8.783505925784628 4.1710799317698095 4.165641115489655
Si 8.83116676799628 8.833186567363002 4.87687681730429
Si 7.563361002743294 5.502195930566713 5.861533738063581
Si 5.854691330750937 9.619435640896766 4.781424838716475
Si 6.849017829578198 7.395368565475486 4.420349324653226
Si 2.7347544391621352 5.049268716813512 4.991933530817686
Si 4.43092384607478 6.916711508211406 4.90016701366524
Si 2.0393365787309223 7.147892963331051 5.815084891301316
Si 5.255296033451832 4.663669537778074 5.825216008736958
Si 10.813250879171283 3.549615873885561 5.256852930396236
Si 7.776336801118563 11.031539788917263 5.272505452893604
Si 10.348227570740582 5.878678756384683 5.395325850828349
Si 5.712952377429741 2.2027113736643797 5.9123590555997065
Si 8.831801079316197 8.497324176412327 7.197730369446342
Si 9.379360496448015 6.1672909227747725 7.527379593540374
Si 7.331148172657829 3.5504829823085045 7.236913622202642
Si 3.360323578122034 3.181293835633529 6.435535367060452
Si 5.049006484398512 6.685223829637065 7.314334336014816
Si 6.3654533592093125 8.764889797006145 7.009603807040275
Si 9.709623960198874 3.6053065080443982 7.43978270551434
Si 7.721981005282713 10.70335082305422 7.714009655445922
Si 7.110950165866907 6.618447074694453 8.479542258213591
Si 2.6778056652886626 6.824776467408611 8.08361896063886
Si 9.458600460913612 9.841734395549233 9.096819928609793
Si 3.8158985676518817 4.757734356123994 8.245461167135803
Si 10.31219983256526 5.485966107858572 9.675475858286395
Si 10.837108737993358 3.1697877161800503 9.540237553276736
Si 6.825782236514795 4.382016546410685 9.422572570660517
Si 4.307333211742406 8.088442841187286 9.259112628615588
Si 7.537016866474185 8.556816959378349 9.908926099767434
Si 5.777273696427864 10.004382558000916 9.117223217434526
Si 8.771817151718256 3.603701000606461 10.678419301251036
Si 4.6639062180974316 4.246991863931095 10.421462874449984
Si 5.413561066813407 6.49488069064233 10.621464943155146
Si 8.415140906156509 5.826164333102642 11.112138738469161
Si 7.0722157624956745 7.508543987152089 12.049208040236513
