43
Energy = -205.70188496 eV
Si 7.078460363802109 10.703449972769603 2.3352965394076874
Si 5.349364844614759 9.100641853855691 1.7895112845006613
Si 6.409445196440697 4.782659380985438 2.3291703912586
Si 5.818433379759319 7.021518676718813 2.9102718463392376
Si 7.5037478288000266 8.653082751946393 3.5571746460911484
Si 5.256072914446893 10.609402005142968 3.9117045577663823
Si 3.2604575012847437 9.367545629742537 2.8687093841118716
Si 8.483682260246313 5.158935982409784 3.433930540039853
Si 5.212652336500588 3.903143663304378 4.278966125516627
Si 9.50344906559789 7.310471216329263 3.6199455651447323
Si 3.791106396247353 7.342958058412507 4.130078122831309
Si 9.292144995584877 3.7436708762700923 5.053853043985684
Si 3.036675844455764 11.206183448440067 4.4318087473238545
Si 6.361876324430055 8.95905087736166 5.614778694945359
Si 6.193793296133877 2.211614457845598 5.505332887757585
Si 3.6730288008879692 5.381832066204855 5.408146785097368
Si 11.106573459631493 7.590026785711651 5.528472475492484
Si 8.545700213547738 1.4985754104572555 5.519637062589564
Si 7.112923406340931 4.727066284215457 5.5879894788793285
Si 3.8671155789994605 9.27147378248247 5.626698603580025
Si 8.75891617100182 6.738700598375515 5.866662037137111
Si 5.690833003512181 6.677728346185648 5.810384341677672
Si 10.72939672893459 5.253263174735096 6.247093435764715
Si 7.853469292823473 2.0565551623174394 7.786161322791643
Si 7.117579097006752 9.36927503630341 7.793225174039423
Si 2.9191033054243642 5.100318758574482 7.665975830304401
Si 5.5450469672081875 2.0518888559176838 7.769370598841291
Si 9.403425353518248 8.591596653410589 7.403232253385539
Si 4.857306390485859 6.654121955754076 8.057901094146994
Si 4.048417243605735 8.935250928016325 8.012825517569295
Si 7.1032156855719615 4.5414372495767825 7.975483252650459
Si 7.602622637630607 6.977255885722555 8.28458419971958
Si 9.715207019026044 5.198554254932301 8.333339975904208
Si 4.7763069589359475 4.0965322102178305 8.806340719718314
Si 5.567628614040859 10.324911029596569 9.387923148752087
Si 2.5083826087123042 7.179928420138644 8.886837605309875
Si 8.769702831866912 3.403287273681918 9.528767331762188
Si 9.791135734862733 7.270458544566834 9.39275484360605
Si 5.949335642483954 8.09680351246824 10.137032980717144
Si 4.288643066896812 6.504119338762222 10.448102052167783
Si 7.0026906983859005 4.75668148645005 10.47488435635883
Si 7.8801553677717555 6.940908866689019 10.816755346876041
Si 4.768074649265943 4.240418353725444 11.17618487486533
