46
Energy = -214.85489606 eV
Si 13.621681413759731 9.300729694691821 9.047310560007077
Si 13.925907510615753 7.044910531279976 9.847438469355117
Si 9.590601408184147 7.287967887164179 10.14700102215066
Si 9.814827608018774 8.066617261192265 12.454658184871047
Si 8.889810364563138 11.70905800087301 9.793294798240078
Si 7.837493310216367 8.889372648377803 9.983259774524486
Si 7.474077618617319 7.503238320001123 12.084275210391063
Si 13.610955641353428 7.3142949008442395 7.526096462315064
Si 11.611572231862064 10.065566544762916 7.4361968331799515
Si 9.862528534756462 9.948820434766242 10.993198950920231
Si 7.639726338865321 9.788227091517022 12.265106849823987
Si 11.619836107501518 6.528706899235423 9.16826837001612
Si 13.909966663337315 9.570167296873032 6.7178640718885845
Si 11.887656324074001 10.586062548962254 9.888952580585759
Si 6.617005417306073 12.459313659102708 10.01412048784484
Si 10.875789497256438 12.2144590612325 8.542287981282398
Si 9.030539048915925 4.990562304608667 10.450488760040987
Si 11.356166536887061 4.286160423711941 10.333703381759712
Si 10.87553080915649 4.380098590931629 8.064343951401451
Si 7.478334129597454 9.097181854327665 4.506966617193214
Si 7.635402531404016 6.8067062808622385 4.33570341608715
Si 4.441721663229884 5.513863963638439 6.751356031040574
Si 4.105027233400905 10.908746660872637 7.5001235839549
Si 7.355502874513758 11.434885587484255 4.347384220455962
Si 4.428311349940271 11.08354170422806 9.83336617786778
Si 6.064134172118847 5.450800116585982 10.297762141409924
Si 9.847226723129587 6.641072398646515 5.620802773605395
Si 9.589007403974845 9.308840879827427 6.442417958715062
Si 6.061901020387458 11.146327030625029 6.294964585108183
Si 4.112023421636762 5.684842843910952 9.083176474071353
Si 7.830600413994737 7.713408691860344 6.615374005863318
Si 9.816394460350182 8.516114675649636 4.140218730244861
Si 7.405908199378885 12.409415391514194 7.766463908486405
Si 9.029781722904815 11.607992851084603 6.158246681527225
Si 7.41385839105038 4.169299850299686 8.84545079164854
Si 6.616427374082214 4.104465456050185 6.5991061940322675
Si 6.430903612000054 6.3126783192765465 7.990697117908393
Si 8.883603834913497 4.864610021873193 6.809036680988925
Si 7.346869112260411 5.164877877014924 12.253013436607734
Si 6.416070724949083 10.264268740057059 8.599748628725441
Si 11.355301602351654 12.313763347252412 6.272828743798643
Si 11.878673786628713 6.008190712987385 6.711121427632601
Si 2.907952844307243 7.458672739263506 7.247222962419734
Si 2.8899253939094667 9.150190113337453 9.324868056206203
Si 2.133804468816697 9.694951676083335 7.171492312307414
Si 2.1445948474202043 6.906891813158219 9.394155339395489
