41
Energy = -195.09604652 eV
Si 8.311488946809924 6.252505845485516 2.0132430975431492
Si 8.467325175938411 8.551387147467496 2.9113800077975016
Si 6.182753335062501 5.114094508646856 2.727604198165268
Si 4.200340493664457 8.711828206054374 3.708761415051435
Si 6.428833758477058 9.689401515602048 3.571217938776068
Si 4.491608712848168 6.369543668191794 3.8507904666474446
Si 9.63622725464521 5.3703868933577334 3.881729196351146
Si 6.667911522275498 3.4304346781868156 4.381777212272484
Si 7.462439172952665 6.770916683438741 4.2262639706403755
Si 9.112953424856906 3.046577604483887 4.159154338470231
Si 9.400927648591894 8.28041623552651 5.108997349168117
Si 11.20707653077153 6.757351062616757 5.1102749033657
Si 5.827421459616639 7.986831963022844 5.499618699556167
Si 2.5666134350827963 5.702099365298444 5.1811553065343166
Si 7.992660659800535 4.895515632304424 5.709648742086612
Si 5.587035633726037 1.8159645759885363 5.857728068991347
Si 3.79768577522061 9.347908818428543 6.108693920107014
Si 6.85751433121534 10.254999035145941 5.8116340568568585
Si 1.9307572400329018 8.060541872893937 4.712175090861023
Si 4.894705922325655 5.817465610500002 6.180531443880537
Si 1.545160960688962 9.229387845503853 6.798564301910787
Si 7.432606309377764 2.7775882674891323 6.9936097474221235
Si 5.046632163490683 11.131836929701654 7.09565155666432
Si 7.072014492881603 4.305241530285009 8.844960504089242
Si 10.078506577311515 5.681345026598512 6.906010984313922
Si 9.057332372353574 10.055615506989 6.619917309936427
Si 2.7361323330080056 7.209889012991686 7.120635656328094
Si 9.832559423255542 3.3089025921632373 6.489969929461166
Si 4.960517428167915 3.726417466349572 7.252929934645286
Si 5.087182676021915 6.904905029893373 8.326615788500423
Si 7.94480953243216 8.701421482170424 8.237482900701659
Si 5.6386549986184455 9.247601403678336 8.466482835134473
Si 7.705611200330839 6.364685118306379 7.772749665035169
Si 9.575108643245438 5.281554941281171 9.18350567851044
Si 2.856600410825024 6.580491151609393 9.4633793490968
Si 9.046565193729302 2.767591883365518 8.82703054835088
Si 4.355132858281935 4.690398223677046 9.347628060595845
Si 8.56044110981881 7.343677178685082 10.11595834068032
Si 4.575593707494057 8.165081810502798 10.408945706954542
Si 6.032538957893668 4.239592613761863 10.99561546040011
Si 6.33601821685891 6.560604062355918 10.519976318144701
