40
Energy = -189.71195133 eV
Si 7.267916849421176 7.74641764626283 1.7383490546796743
Si 5.531102226816594 6.68770706580419 3.0106991124571736
Si 5.1650381929980576 4.526906591002435 3.9207947398218637
Si 6.63477503409625 9.477928015165316 3.349110428141801
Si 9.093272406692023 5.163453501587651 4.661208082995809
Si 3.4377883345075944 7.807026996716033 3.407359034910464
Si 8.106057742753014 7.178493163000996 3.8823280089190573
Si 4.415051569183019 9.797551325417793 4.175008059258469
Si 6.980830145712664 4.296590638299342 5.387180794693801
Si 7.956165955614978 11.07471535400907 4.5436234726505695
Si 3.5007496021448583 4.738843064361833 5.605536707185383
Si 8.574547106222305 2.9523438210735184 3.9097614786403585
Si 3.6521618362374424 11.912059792375734 4.832028474696587
Si 8.094414049910206 8.899363646698507 5.40053238935193
Si 4.877135551537657 6.760646919334102 5.332660987135295
Si 5.844528189544495 11.36865871572668 5.7415230273610165
Si 2.3784432628989465 6.812922759888314 5.2899703839762005
Si 10.8144712181255 3.2258161356022415 4.92622938658567
Si 7.273233300056132 1.9280284443252236 5.921536177770688
Si 5.244792570942561 9.028886804784278 6.479651681005136
Si 9.414682359796336 2.506391514133924 6.781268702320248
Si 6.376704494419627 5.914484139298263 7.212212629576856
Si 10.073953467665602 4.832427528117761 6.798480894010996
Si 6.454010412915877 3.227236306807901 7.713319545414439
Si 3.0151426252780906 8.269649035462306 7.072628661180577
Si 3.1456113213582957 10.599494605325097 6.875705177432415
Si 4.415636797930259 4.510473481929204 7.798286305926869
Si 7.7034917995862875 7.988460515857783 7.528569350369105
Si 5.2075993314468 11.095600866037714 7.983947322860634
Si 6.108695055646887 9.058297420041264 8.82591768292546
Si 9.8054865988399 1.367994676400539 8.911781352241208
Si 7.769040237410776 2.60730780063705 9.7524797941064
Si 9.151318657224078 6.421299043062053 8.535984077679235
Si 11.384658635252997 5.5662398425714805 8.652412765539491
Si 10.058577025625908 3.6199600823157905 9.078434762082805
Si 5.511829858409821 5.858776416256189 9.98771719110399
Si 3.566335930040428 7.234727140777514 9.15128396655528
Si 7.5878491025963255 4.927614231463923 9.29661476879372
Si 3.3019037197251135 4.931943596320611 9.82465397552149
Si 5.104997423417486 8.077261355748412 10.703209592123194
