48
Energy = -229.73487456 eV
Si 3.8309553587107685 4.616120736803217 0.9941496486212983
Si 3.3970846244726753 5.868345894168281 2.997219240228752
Si 4.202338905610997 2.9689613119359857 2.7187169734154977
Si 5.796835446727885 5.3721620352532575 2.119192483905959
Si 3.3261827011350604 8.174122673711285 3.646762018920594
Si 3.010261607988786 2.209635059621742 4.672090369999708
Si 5.235691709249991 9.341215149839938 2.7071512377007587
Si 6.699433882597099 7.601899003679651 1.8086352600809936
Si 6.037179500223746 1.6221263895713995 3.3901901147743487
Si 3.2813626015772033 4.5106001617122455 4.91950181418551
Si 5.464470666490941 7.0515893692623886 3.92343411717982
Si 3.487704323555139 8.117061060027611 6.059791964500329
Si 6.892120098217658 3.7544250047193293 3.493792700683906
Si 5.248100551158982 2.8044334431957583 5.419628487428281
Si 4.225450117707676 10.915206421661592 7.810996435295425
Si 6.646695189526738 10.035057271987892 4.649413422215087
Si 2.2774391273624244 9.56612642657906 7.57512635498411
Si 7.990995089389683 8.218368585443635 3.6945900045747098
Si 9.329784093839455 10.161157993835184 4.048189967495884
Si 7.963898868838756 12.041108152864078 4.7221771480404175
Si 5.605961674261801 9.067529802061177 6.542451359739579
Si 3.2209099583888205 5.9102829270919095 6.833571159140115
Si 7.289387416320659 7.3583821762114185 6.923952370708475
Si 8.88524302818174 6.720765959820603 5.246255578547175
Si 9.455008424967268 3.419737876311299 11.052424325648941
Si 7.622908542293623 4.8965133199329 10.58737044591158
Si 8.054611806978459 2.051915760368535 9.667516657766873
Si 9.62226385488218 4.591230732032772 8.97903037779279
Si 7.258171794972468 7.246684420871118 11.091059878276678
Si 5.673772055137235 1.5826520929617947 9.639942268833039
Si 9.338388694646959 8.418381651756826 10.211998410829613
Si 10.717700838481425 6.826245267879113 8.842482859385694
Si 8.485935667216056 1.025064186511897 7.5251939063790445
Si 5.851613679570432 3.9029189314938186 9.375242191386528
Si 8.23895187800241 6.599869703784792 8.917256811878985
Si 5.3841009342561845 7.594883987292109 9.584476678073512
Si 8.75863613313621 3.3217217784535804 7.162967690674099
Si 6.464121031149484 2.3721448357316794 7.483319178769896
Si 4.787920782686799 11.308523018985241 10.084700888771273
Si 8.375863829313507 9.331893268999965 8.144814087759352
Si 3.5715405469158568 9.252769785131704 9.587055310445066
Si 10.091048563723287 8.001048507006603 6.820445315929836
Si 11.075567222918826 9.85485031585252 5.658832120757665
Si 9.131332125152676 10.8879634143815 6.470280667346666
Si 6.115886948020682 9.72783376481706 8.878845130557545
Si 5.152597939069878 5.752321407594985 8.135209203179224
Si 5.551648483750948 5.3597311365854905 5.719199419359817
Si 7.874921681223211 4.666417824204991 5.463355941919099
