46
Energy = -216.89705235 eV
Si 8.294991780710506 5.823008848367996 1.2774344499445907
Si 0.4892953783769838 1.5554742076493302 5.425903873740927
Si 4.314587875290761 8.119613763484004 3.3609072286593964
Si 3.7191936895006763 2.6826451068805524 8.127974995388598
Si 1.8805101860415279 6.300385553875659 4.072935479832694
Si 2.0651977631013843 0.412124245431901 6.893322940280861
Si 5.551652455982955 2.1163648797408174 0.17296334866347893
Si 7.75809831247297 2.389982878031624 8.26163324483296
Si 5.810692381125601 0.06306967664584885 7.0497579901227505
Si 9.080843159047786 5.337142787396525 3.6040737360729818
Si 3.1618229196724386 4.148447866251611 3.7340750920966235
Si 6.219018677821342 8.0258628110238 4.9593672763705845
Si 2.194948952249912 6.5693196675419445 8.749041786850174
Si 3.948292321867555 7.515633333469965 4.348339542034468
Si 5.570079907235566 2.3482086812804357 6.178567263016251
Si 0.27511003220453295 5.050985707328652 8.694999600851892
Si 2.65515497057931 4.903122849268745 6.088772473910958
Si 2.837095358711665 9.140385500757423 9.32720177236993
Si 3.6456898390482344 3.4595054492255226 1.155312365526069
Si 6.55770012584165 0.2569069218325512 3.0143764333001952
Si 0.8381883028140812 2.6645310962132216 8.772485288551986
Si 8.083372383267198 0.3891601283171201 4.339729354393837
Si 2.123648730108343 1.1203137663412066 7.387219022911793
Si 3.9386976543845678 4.9692179674209855 8.557223041773286
Si 0.8712684764596723 9.20573769963935 3.410053362909272
Si 4.213682227936042 0.8275010798628646 1.688967392342052
Si 4.1604387340290705 1.9048750887889587 3.9223456745033056
Si 0.9788401204452594 3.0907033594323954 3.2238071409023226
Si 8.62404615917413 1.0463474146496505 0.6401076355488163
Si 4.941467888639257 5.372378826063645 4.974199162369693
Si 1.7187136682036326 1.5152653085470043 1.4368789774533202
Si 0.496026809440737 3.8898296552692675 5.490255507924246
Si 5.842253613151925 4.489682011218649 0.6395579849910014
Si 3.067635122552089 2.5098799575777306 6.136188265128675
Si 0.7874272703069952 8.588022015531457 1.110840618035232
Si 7.510527924193908 3.6060342557858207 1.0089533902824317
Si 6.45568137098102 2.550151149296784 3.8375993434987308
Si 7.486286415873126 0.7614677098289232 5.31379569545254
Si 1.4329259075897 4.799178053628281 1.422271760976335
Si 8.140497701114153 2.128845234480669 2.7064933741987436
Si 2.729648805774428 6.859857309332425 1.8222887832529955
Si 4.021522857503305 0.0548130819778119 5.434869798159545
Si 2.2737793552394825 7.875203099506708 4.776605905737824
Si 4.828196430838269 7.875203099506705 2.0707439240355705
Si 6.95700394123607 4.20928982195026 5.617688202612868
Si 4.8755430154510195 5.558910637203064 2.535874882513027
