46
Energy = -218.97441424 eV
Si 5.345684728928521 4.635571702563564 1.0272488051745052
Si 7.799783902804045 6.155105067955894 7.718458913325617
Si 2.349191010849071 5.203590015695029 7.433048657757893
Si 4.140250911421286 9.826512238521474 7.811721994951603
Si 3.903553706036062 3.1493341623604993 2.0762324757892823
Si 4.58811897292453 6.7890561416191915 1.5411444134902559
Si 8.274565562300825 7.892362912915842 4.921533341267533
Si 4.655483092343176 6.755565956066155 9.346748485055855
Si 1.7186583001654483 3.1011877556354213 6.35942027644001
Si 7.607754807900024 3.0240840096655894 8.939453357662142
Si 7.467054022073823 5.649255044606103 5.433645178551769
Si 7.023892777016438 2.6359158338692095 2.9813011961537983
Si 6.731909556294999 0.9389760466315555 8.151232236598647
Si 7.2999257194807585 0.2778641109822979 5.797139749270859
Si 3.7659844257050556 1.886063282846682 6.45214606896381
Si 2.426626073462262 6.541625937696799 2.2983229915015335
Si 5.652591430642128 8.846866792043372 2.015637561462138
Si 7.577927333540191 8.541251014984848 7.301898698932559
Si 8.034937600075418 8.362935818927646 2.478528636758386
Si 5.359950723235199 1.3575573679874078 4.745048876425303
Si 9.323964354147469 3.8575798744597347 5.3380046758740916
Si 5.190135820384982 1.146254076533467 2.3888168999040067
Si 1.303798665477943 6.322649720580252 5.604267189745152
Si 0.724819172244481 8.613686740990504 5.8034033147467285
Si 1.6674242814406053 4.206589579802154 2.038682276577791
Si 1.8547355864004003 4.388469914804999 4.377366130974577
Si 2.2520056110311164 6.637596243793944 9.31579806628914
Si 4.6515740807351325 2.059706115220129 8.563059985338231
Si 8.77155008950594 1.7450512685918893 4.376067000130687
Si 7.59459256702395 4.109250457988406 1.2357526317183893
Si 2.433949540443373 8.178804704701225 7.500876144777566
Si 4.5175899846772705 4.180408963541231 6.998337988378208
Si 3.873461087912137 6.407249455742248 5.545320035188397
Si 5.802854788857484 8.82351130790966 9.261424647192161
Si 4.704489240711416 8.838566211685423 4.225451955430545
Si 5.760231128155358 9.925444254058856 6.053247674614024
Si 6.053856231822422 4.934483219236314 8.706285726021665
Si 6.199395474722125 6.972875579233642 3.6988115079852117
Si 4.192498518493777 5.1105937926578635 3.5292525041970055
Si 5.213467622891034 7.727926181260413 7.107302067716038
Si 5.871643101360194 3.8502637336713414 5.00320059793455
Si 9.70559955521306 5.964393638002448 4.2550216175126145
Si 8.139669910191934 6.010484790393842 2.480907880414089
Si 7.331350902295209 2.6570541203557565 6.433631934974714
Si 2.458858548277796 8.055372337113972 4.201872476747713
Si 9.21195841815457 4.234377846503823 7.6572504964913675
