49
Energy = -234.60791529 eV
Si 7.895421584826334 6.69587198456033 1.824381662429869
Si 3.6082838740308043 6.352856599680653 2.0302320938009837
Si 4.305560446867731 8.690806766814008 2.2455968927185936
Si 5.992231167974638 5.3657562403877055 2.5808839929822986
Si 6.6296502626049945 8.441397157103287 2.734852806858682
Si 6.231773920439639 3.01126304132929 3.0668319998270293
Si 8.82211607663655 6.785668870996307 4.037935400890593
Si 2.3161978126739826 6.33487182356375 4.142239986411753
Si 4.962279828259804 7.079412026101103 3.975975690102363
Si 9.536338029743225 4.697580957051245 4.880315313162365
Si 2.4075856548289463 2.342531634773065 3.9328318024769855
Si 3.720134878555962 9.347894325079025 4.454447026242326
Si 10.388089207814641 8.475225002491657 4.939796632253088
Si 4.472909494846603 2.9189117360004677 4.717554019577048
Si 8.015879007036775 2.920639582643817 4.766096880312733
Si 2.2806530450633513 4.2346900668380805 5.238010882751456
Si 1.6752931210350235 8.418353185242939 5.169726819996671
Si 6.82438959963018 5.0593435569482805 4.878407986251662
Si 7.031583962379948 9.677078916357186 4.709100163141407
Si 5.179330189952508 10.721464755181731 5.639808149909037
Si 7.022165257365733 7.373496396418472 5.67120104119327
Si 11.094964665064511 7.201136772255984 6.847946604463957
Si 11.53889039762664 4.868313045765801 6.252194843333393
Si 9.041795431599974 10.325187930913668 5.75098000106043
Si 8.840334822799631 8.139570968769117 6.893498925828878
Si 9.23599703954884 5.3732663110736505 7.222655864992538
Si 5.79649915686066 7.082833055751194 7.7687223838558594
Si 2.9118689208617474 5.364009126921115 7.201811097920043
Si 3.777554394245424 7.293694645961169 6.001234515516404
Si 7.427993851227311 1.635834109168614 6.708268628462995
Si 5.930029189779704 3.5346406354119084 6.508150372153719
Si 7.992805358302195 10.365153667943051 8.006437926840881
Si 5.634546970904423 9.657895791420158 7.736049258442059
Si 4.964973827851621 4.845755411222224 8.20952831563186
Si 2.33446912011339 8.558207520856069 7.533339629663549
Si 10.854078894803578 3.818286924352153 8.357871066778827
Si 8.53188889514705 3.2036813912013358 8.119558956074398
Si 11.454465534143923 7.993731900800338 9.118832611950518
Si 7.86000581503868 6.510830173456869 9.044214921078362
Si 1.8832126878542972 6.683684620842982 8.909194984276319
Si 9.067798408357639 8.615394026674345 9.276658485034995
Si 10.495567427484806 5.855203956820554 9.50187232533763
Si 3.6040411353722424 10.086504564894067 8.935940393295411
Si 3.9422236761564715 7.795393929534336 9.458207135835652
Si 7.4055875388087475 4.230029437751855 9.91480377327192
Si 5.759145231500079 6.755016344875723 10.58420264254829
Si 5.1327231520237335 4.411525821269214 10.556780079938097
Si 8.873100430034578 5.5917911960341184 11.166812163622502
Si 7.7955716039221725 7.758312092496456 11.27800484950158
