49
Energy = -228.36089025 eV
Si 11.65650909800625 9.017561833191463 5.42378807070487
Si 10.546819992307785 8.068558801823071 9.340623445082668
Si 7.672776834532415 10.182153392619425 14.806220062846563
Si 9.474899779559589 8.60649991059069 14.569605912819508
Si 9.69400478646253 7.794263875416356 11.77772460904798
Si 7.154684214355295 11.935999347483088 9.489939130718204
Si 6.36546221104244 11.49378495199198 7.307776805141435
Si 5.7309977055140315 14.740714790814001 5.228259002520077
Si 13.799381030668755 9.618703586810293 11.017737655629755
Si 12.440033881939067 10.854529924453717 7.169590735945763
Si 12.393844496396698 13.894662718817383 14.453305303386776
Si 13.322223901645462 9.158419756417903 15.546585922105466
Si 12.421547184817452 6.524623269944932 9.429874183457077
Si 12.430443066972007 6.756919754271205 13.758679129058327
Si 7.974509550617858 15.527382662491725 11.02731970926969
Si 13.374667937240478 11.80419506209514 10.234695044432005
Si 15.04423424339072 10.516168491510074 14.709886598424148
Si 3.5873614247170247 13.991044884496032 4.789807018592156
Si 12.628023484722767 13.196047986738192 12.033573973781412
Si 13.104504519692025 11.717083466383013 13.964624692701019
Si 10.353707324263118 13.488383106816908 13.185281794765267
Si 9.077887931173816 13.417416861090926 10.143537808333244
Si 14.318434557003282 7.199275066818613 8.022394603376094
Si 4.545435121751944 13.212214880562922 6.703048444869763
Si 10.054970333256366 15.562865769190957 9.719720644474464
Si 11.84775722211773 8.723553514045266 12.158419537130218
Si 14.293074072238673 9.651924276685559 8.603207288674867
Si 12.3600554442587 8.496506601497236 7.734608313594891
Si 14.911222290792544 8.325052807112053 13.825681055983395
Si 12.845243202037551 6.856103581042612 6.02103534609181
Si 10.281755125566194 7.557936040329909 6.946245476524256
Si 6.020537806027096 9.68232323144517 13.089887863763424
Si 9.498833696408234 11.26985542189627 13.701192251886393
Si 8.102307833369919 13.50171174249203 12.337917554396608
Si 14.035446403941755 6.870004748535133 15.514199043819103
Si 6.825955122028713 14.432497117644882 9.32353237314855
Si 13.366744295883933 6.78758904660184 11.641765016455363
Si 8.335144473257373 9.630184255523597 12.412590056126145
Si 9.99692449412337 6.442936827543751 13.781187941757203
Si 11.514263552791926 9.936203864764767 14.194381098159978
Si 14.471412084110035 11.986921089275075 8.029764235577197
Si 6.896597413252717 13.83306595123002 7.067497614649536
Si 4.942958562078627 12.915532175097887 9.050005585154723
Si 6.886616505496409 11.50036524284938 11.842057796687302
Si 15.478959559865782 7.97762704679347 11.5544591818314
Si 11.719904869693606 10.23397970931916 9.393468803698706
Si 13.392582465408644 15.354061606313696 12.75341967536935
Si 11.3854103491838 5.4210929203813665 7.3550932534891205
Si 11.182150756183933 15.196379764067208 11.83145502111405
