44
Energy = -208.73680348 eV
Si 2.3225605478216367 2.7921511048619396 7.565935250386627
Si 2.2368797301409837 0.11947061790398225 1.2797388943282637
Si 4.399657145013523 8.343059521670984 0.8929772196327973
Si 5.888694347943515 0.8750762443055308 9.02007785706837
Si 1.4227095935939504 4.164081652842001 0.29745970373662123
Si 3.6637928956684247 4.800067218654211 7.9969905503595635
Si 0.7478445445149865 1.4172383878568802 9.065782143456689
Si 4.2337373812012045 2.686762664608672 0.01158966552471482
Si 7.365527921531148 3.6185376571630496 1.7848090067255846
Si 2.98782875048821 2.3033901080739825 2.0153324377088695
Si 5.380512228895392 4.785120657787131 0.9093430207558543
Si 2.5857945586569633 6.011651255114927 1.1982674413636072
Si 7.704569036903639 1.2186356711103983 1.5919546013170875
Si 5.290867325519495 1.1999764191051119 2.2569252122553185
Si 0.6287298920699814 7.14616499249389 2.372390053819655
Si 1.9897119712020495 8.119250102837173 3.420020116892737
Si 5.318074300082543 3.486681678377198 3.125688813472801
Si 8.23740917372684 4.180139710966533 1.002967088967193
Si 4.481455873576691 6.803998826581386 8.962292119675013
Si 7.742103215086777 1.8364778468608998 0.969112448999136
Si 3.156946110502534 4.547818390985456 2.9970583521840437
Si 0.6007105348553865 2.6553103259751745 2.165337009087822
Si 5.724146751451376 5.96048857155987 3.180931134352593
Si 7.704569036903638 5.732053999485128 2.8657966788978313
Si 1.7770413649313013 7.36848554855908 4.489507423130372
Si 3.0013916482080654 1.2600681050107156 4.268975045872639
Si 3.882357638286126 6.248342041642492 4.609519619538896
Si 8.05203773070464 4.258873147126697 4.84702727802808
Si 6.0748226216262475 7.682295481321486 4.926391280585361
Si 0.9123158415393299 5.099308976955954 3.6760242600204713
Si 7.385564117773466 4.479924106980966 4.020791355904112
Si 4.373993013183534 8.168307761789029 3.3158256292676005
Si 0.16021577774972845 2.194637129683065 4.449154973769315
Si 3.1565971218961426 3.6008713668937227 5.393091272227059
Si 1.1053848221832578 0.16838206714037293 5.402483316535471
Si 7.013216689685466 0.6318374773586862 3.941667726612829
Si 6.028710169142724 2.529040899482659 5.179559624894437
Si 8.598243384654936 4.818706815831216 7.1911372235150175
Si 4.77945861033252 0.4452583445385694 5.650747537311543
Si 3.789321969723072 5.5796076134984585 6.900729121708895
Si 1.4686796369644282 5.7443217115671565 6.217792394958838
Si 2.8966357912364553 1.465641256936447 6.965186185702321
Si 1.0541854333625045 3.143909242870289 6.473330327296049
Si 4.734318647792978 3.2656938267468765 7.191606480479287
