48
Energy = -229.33696718 eV
Si 8.06311122272415 7.532306528825986 1.208055262594768
Si 3.8379563925584885 6.741250452642731 1.7148665723727852
Si 6.148249262494453 6.379391647536356 2.093295877835002
Si 7.761304350643596 9.92557135881735 1.8627050663710016
Si 9.400665685291951 6.724818538618402 3.0633891685504473
Si 5.134568338376461 2.750123124036242 3.149851523158524
Si 5.696522529839705 10.208457971982776 3.3563386665488326
Si 4.759518561709646 8.009973328469789 3.520344401572719
Si 6.713466366696042 4.541592949333102 3.5904100098111904
Si 9.174075650481374 4.526955591056511 3.7971702978445325
Si 7.257760505394441 8.116236233114286 3.476862684789328
Si 4.095847922742882 4.870647090033891 3.1764471200078144
Si 11.219692281815037 8.10410392036395 3.848671110435763
Si 9.445109789758416 9.644834591112817 3.5844103646508643
Si 7.589783990173367 7.838906757832832 5.9256648539042285
Si 4.523270520840528 2.9753985815059125 5.503150008291054
Si 6.463791062326499 9.96144182008609 5.633203292730694
Si 4.738713466651484 7.094020370621764 5.748614930141787
Si 3.4284230730939456 5.15150850888985 5.515848348140196
Si 6.563535490285307 5.567344795553178 5.723940353756833
Si 9.127274587868813 5.770995592614255 5.861156598086049
Si 1.2453597441577728 4.755637771427892 6.416396992962344
Si 10.051080848307024 8.036074357688008 5.997105312203312
Si 8.772731862192593 10.329904343992425 5.71944617624208
Si 7.412249491150336 4.044274360134502 7.341014826340172
Si 6.058620841183014 2.0679994539814164 7.076596570987433
Si 9.775417121577082 4.0581289909989415 7.4125975851724855
Si 2.487571756525226 2.7422004181502007 6.889969016823656
Si 4.846814838117733 3.940207354912923 8.070682835501344
Si 9.562843546780254 11.361867095341132 7.682424599787896
Si 10.077253097076598 9.108627479903664 8.15952945594171
Si 2.251745839933252 1.1941689650006535 8.723055068689632
Si 5.663798840917747 10.309103388920077 7.8447183639499976
Si 2.758485112950792 5.237295835747263 8.183832015834833
Si 4.470084125410953 8.258419480908932 7.806745955598491
Si 6.9369766869272045 8.068356234021056 8.249982166460708
Si 4.656580768381444 1.5751709697022542 8.96251690614054
Si 8.713261931556907 4.612466212281275 9.57405898512123
Si 7.823237504297437 10.325726913259455 8.98345790170128
Si 2.8436145227718597 3.326404582003393 9.64506214534997
Si 8.873429674785324 6.925179350587579 9.797331742388804
Si 6.359585881688526 4.9052662557628 9.629769995157336
Si 10.339715824699732 8.623419549999355 10.428508071958273
Si 2.9928860073339685 7.324148126163798 9.430365745512297
Si 5.281966805007124 6.982407199151432 9.965067801851655
Si 4.994000225733856 3.1617488007339074 10.668986097782696
Si 7.150589927658659 8.185270663387676 10.73594760059019
Si 8.457456121114184 10.104646092794264 11.250433552358407
