49
Energy = -233.65545844 eV
Si 5.883051689110231 4.083845329604071 1.092550298493528
Si 6.601690871046912 8.251580860338759 1.0258168537873436
Si 7.322104074637342 6.028340670499036 1.4904497006675632
Si 4.297072538183104 8.008618570953555 1.7286300626285338
Si 9.598917966428132 6.298403947851716 2.231916278556535
Si 4.629016122475941 5.483225689067718 2.6050912523964738
Si 7.5363898993038045 9.289208111027927 3.0195295259983124
Si 6.5597421030411 3.730790958274048 3.361041065995412
Si 6.056204297008282 7.305668205517737 3.2621828022896406
Si 9.304943544026587 8.049106389571223 3.8682264711271057
Si 10.678812253094467 4.512746121637588 3.5035744540676945
Si 8.185569834888405 5.374304276743794 3.990577158567819
Si 4.558349410204432 9.279806727251268 3.735872199918005
Si 5.980914450248707 2.330999418032184 5.277885429242764
Si 2.8566158770291543 4.903421946894054 4.163643200519157
Si 6.296487918430743 10.922652015371435 4.202740196681597
Si 5.232420655837595 4.821344368061525 5.054057446708397
Si 11.15497510389367 8.503779367903944 5.253640595729906
Si 7.371416745215311 7.278789337726802 5.320448815801052
Si 11.130874292115346 6.180514830032586 5.186906406303127
Si 3.6064177158500628 3.0838329255612913 5.605945358967008
Si 2.865322278146069 9.158398502089678 5.36441121811943
Si 2.816465479849589 6.8214752773034 5.609619916010165
Si 9.43858226782089 4.103209261634292 5.604018052152816
Si 6.737868500822328 9.484788964986887 6.104575260764975
Si 4.984437441543539 6.316005982582778 6.931112383571391
Si 10.79312458893756 9.490528435681966 7.5032837453057395
Si 4.6341415212091555 8.781257927311653 6.913336520253355
Si 10.701605841723364 5.265723529167618 7.344373613394974
Si 8.448039650343691 9.011294317623006 7.714224842855858
Si 8.36872965203222 6.372361797932429 7.441680919854706
Si 3.6607949955057064 4.0787801648002695 7.798276504935431
Si 7.416122065277735 3.6243288835372436 6.843779933093402
Si 2.413591448735694 6.253422142411169 7.865613452654507
Si 10.433775450147612 7.34485166382968 8.450386960884668
Si 5.857402701368465 4.535924203991586 8.382427567159084
Si 8.813410909224057 4.304939723178584 8.731633261553185
Si 5.62185152828614 6.850011943189927 9.40547859597216
Si 3.5912161847601975 7.997031369590578 8.912722550390574
Si 2.0864374721177303 4.506934482029753 9.493568115169724
Si 7.364809341860034 8.36108212057855 9.759187785991752
Si 8.879400365769543 6.595713804137561 10.080629670716496
Si 6.135209166762844 4.882946754318695 10.779458004715954
Si 8.560361148950438 4.486204660065288 11.1200375872799
Si 3.7747614193325174 5.396390975431056 11.021957996644693
Si 3.883080046873438 8.224632467066249 11.29541064482982
Si 6.077427235760998 9.084611734198141 11.69467773264364
Si 5.807448331208107 6.837262359292513 12.331946697784877
Si 3.4932519166563063 6.6095627972109 13.02210120394381
