44
Energy = -208.22846476 eV
Si 6.904714948905794 5.975241936635659 8.351830575929421
Si 4.098519503128737 3.003007983050576 7.628495052023426
Si 7.634383343495379 4.175800026061489 6.896316451168541
Si 5.277718382663199 0.8019418098289804 7.735682955034028
Si 8.843641590104525 5.247139216652247 5.094941436018431
Si 4.742797483605397 5.217050924785504 7.951390115197558
Si 6.247485383873664 2.4014985761170635 6.043518636767465
Si 4.060619712984782 8.551941694996074 6.988521352096213
Si 5.953578622683052 7.124959053615627 6.473663981409797
Si 1.6888667607797463 3.2028684869493524 7.853602571546106
Si 3.638161902993675 0.5496042535373573 5.966148866595885
Si 7.992776804887232 3.5828466469420164 3.6325088075081897
Si 6.232105899786796 4.908744145324891 5.053094226050738
Si 6.38337542138198 10.65050217015684 5.714329978113947
Si 2.406655331697984 5.457400636814953 7.321851257685478
Si 4.5014959238231365 2.2491033754497174 4.301658221222372
Si 3.784668475305027 4.483270583307606 5.5102697983113105
Si 7.207907093370704 7.021688166264875 4.318964579335277
Si 1.8694398412347282 7.603037858043487 6.361189047705458
Si 4.05964240597571 9.748958509528423 4.929134038534993
Si 7.76789133354972 1.29185003399112 4.311785537594651
Si 2.1879136467804847 2.450419883576206 5.557560658399096
Si 4.659763503145324 10.44298784632542 3.934182428117956
Si 5.310174188873393 8.451037492773448 3.4632606940729063
Si 5.742559818017159 4.539231355713152 2.7641653011163245
Si 2.830087851491004 5.236659120635234 3.038921422665449
Si 3.789313074099125 7.146359833433418 4.92938101997103
Si 6.0484140506574695 1.0387956311764845 2.7210888681059067
Si 2.4972489392093604 9.748958509528425 4.5916212657872695
Si 7.733202637623001 4.0852923122053095 1.3135825592201136
Si 1.5539847438992753 0.985099598245479 3.786236847967185
Si 6.9879573934762895 6.363258221182045 1.7394666214145749
Si 2.8624942807496843 2.783787319962025 2.518970765172053
Si 2.679712026831732 8.9288652934457 3.1856989319978584
Si 1.2529839781696837 4.738917014617877 5.00015189337754
Si 1.291539178308495 7.05680402938082 3.821975775308945
Si 4.24929989473067 8.682451254492788 1.375135698158622
Si 4.541060284500656 6.350735008948061 1.3796083211417305
Si 3.4342777315534296 2.598975627161134 0.21410476952302843
Si 5.642106988098745 2.7800699978287327 1.1831589846175343
Si 0.8528494079550857 5.897059891036167 1.524764954566953
Si 0.7047733958534359 1.7663965989443138 1.7166684285078038
Si 0.543954577755873 3.879080232381507 2.7761902006126338
Si 2.842595588958922 4.919596735007152 0.5328785056928782
