40
Energy = -189.61896784 eV
Si 8.434151975803935 6.109069244913173 1.8180010905378459
Si 6.340252020140556 5.10011727180653 2.4386222935612696
Si 4.1308660524884795 8.455850983059936 3.7526601552366516
Si 8.154278020405108 8.293917706296888 2.7798826105833756
Si 4.260050746241618 6.179243375765552 3.042663630746681
Si 9.477021756660218 5.036137469406529 5.145094716886658
Si 6.662162386464519 3.9179506268840916 4.45856293513696
Si 7.746231643280474 6.257042086113863 4.134381622537468
Si 6.447981841514693 8.313347009946412 4.392579834667554
Si 2.9884363951001487 4.950527726864885 4.51800808189037
Si 8.699998858571428 2.7296620567852767 4.988182607291599
Si 11.128555920325418 6.71551456412891 4.796510765827929
Si 10.12475999310838 8.685370578602491 4.037093825471763
Si 2.7766762766720867 8.256625350343755 5.707515972858775
Si 4.569600772416956 3.2602220758652156 5.318172048517308
Si 1.0956118755757656 6.297592998513162 5.323587868805598
Si 10.280689606745401 8.633743562212885 6.3568101814107045
Si 4.705337690464739 6.721877857147093 5.5035530956487575
Si 6.333306755703978 5.3450779966140916 6.910973104404908
Si 12.187672330361268 7.326081650963723 6.88665225980647
Si 2.645457919504533 6.116572610448704 7.033258385400226
Si 7.951958401052608 7.030313019150467 7.69019355210527
Si 3.297547519309382 9.43855065073405 7.9000097161316045
Si 4.112200337331039 4.356636274705477 7.473091877786698
Si 10.151912435895715 6.087096359054116 7.225581225953366
Si 6.686894764931085 9.037288615467384 6.566759863288329
Si 5.3203916993853975 7.622790775567468 8.10844717181924
Si 5.2953670597586004 2.118654401866079 7.315354303042026
Si 7.492687267521349 3.1223038390540543 7.018201756060549
Si 7.188341124861571 11.16787949737949 7.446972015360098
Si 8.70628797982621 9.412524189300175 8.022857283952693
Si 3.0902922775190396 7.376150820069606 8.99931592034979
Si 5.506952766939247 10.017450730823201 8.709480226894135
Si 7.7304372008454525 4.1995843880801145 9.050353130300351
Si 3.9572989718447795 2.814039687862361 9.213941871075791
Si 5.473893684575152 4.647877020816071 9.487880553358002
Si 8.546472777630886 8.023432036704438 9.940208374886778
Si 9.441377107672118 5.76888017519557 9.498681386369805
Si 6.190936413200382 8.444288707690921 10.327574317956037
Si 4.669649372350178 6.612714007795356 10.662328366078768
