47
Energy = -224.82167453 eV
Si 6.714991708088536 5.859253254581703 0.4641794779617417
Si 5.363148380084112 7.730313952656765 0.7430643300067483
Si 5.460851924370409 5.944874360527928 2.551088398632717
Si 4.97287335110897 8.270181426936928 3.0339478380652665
Si 7.633569633228028 6.92425029899576 2.4417889440261566
Si 9.528783329143806 5.4752599084394795 2.586897470666795
Si 7.115328792089912 8.707773337556066 3.8912383839437803
Si 3.074623184432901 9.118204063677995 4.146578072051798
Si 9.23593577788172 1.954701681884464 4.539465820900437
Si 8.053076155954818 3.871173174866377 3.606382658558755
Si 5.707932079763808 4.225712681951181 4.168888357691572
Si 3.766887932494577 11.269295371041633 5.091899078303314
Si 8.295873535703754 10.63619357023337 4.612032230311642
Si 3.3040894332474022 7.219521487131628 5.620853360583439
Si 8.875458433784496 3.7881605955253255 5.96900542907743
Si 7.192703819276863 7.201882467450905 5.686432469030285
Si 9.07629411670788 5.9617635983573125 4.878513032729187
Si 6.280876303118797 11.193300785734401 5.787465665031949
Si 7.32891752200516 1.7070234418032184 5.954815248899347
Si 8.274199640776192 10.341195146422375 7.204114723898876
Si 5.034241746743872 2.1219278599550266 5.1868312642862575
Si 10.245210291385618 9.886285207536236 6.004975196214062
Si 4.725387511235491 9.274166019015235 6.12344162300748
Si 5.303754640454399 5.851590915902337 5.869560050331304
Si 1.8273041179204494 6.56057446900878 7.388769816803645
Si 9.901347723555629 7.554817536452802 6.488727052733955
Si 3.103605735861972 10.72319472521078 7.390901736876805
Si 3.960924753448559 2.954725263638619 7.232101466703506
Si 7.340654568786798 8.267132728945569 7.778814639577009
Si 6.316493029749207 3.6750053753717586 6.898335483395611
Si 7.332004840441627 1.2868909443909373 8.31042765044282
Si 6.954889062564678 12.306636438611028 7.807317747359894
Si 3.271047451691507 8.367294637151316 7.907921236778666
Si 3.8805732748707435 5.305654127257878 7.755982874512152
Si 7.220300651705813 4.9885768115864755 8.709137130135142
Si 5.314361487524869 10.717228213161802 8.297884296792327
Si 5.360719787679609 8.45418102765682 9.084839559513073
Si 9.629746329287935 4.589872661430253 8.077114661944346
Si 10.996644042568475 6.501209546331407 8.397841576351158
Si 5.371195978521769 2.3865779737308896 8.97040815764767
Si 8.744016054055678 6.88169599577474 9.07341444581917
Si 8.608381089262956 2.9904223737566946 9.488016834475628
Si 5.025514231841233 5.388865051715196 9.92921819846075
Si 5.263414270608841 7.381877853128416 11.22122021712383
Si 7.190504722743271 4.024279892603858 11.008270429986673
Si 4.923729332746944 3.2939075614845885 11.138078754116206
Si 7.408648430694338 6.376404394630681 10.992827119453358
