42
Energy = -199.37912561 eV
Si 6.743457850711582 9.3489802900454 2.1515646522897316
Si 8.80172521639502 6.226503908754414 2.691432768635381
Si 6.785089274034533 7.285585780353776 3.49236724356129
Si 4.789301718413967 6.112398377641887 3.8646882863785557
Si 5.461246594332785 3.8619780652447564 3.665416186541221
Si 5.178731872220054 10.855479378718652 3.347814457257191
Si 2.7937449170012196 7.341264460491495 4.319653903708839
Si 7.784724204267921 4.432049970153712 3.835564586499086
Si 9.992558647173773 6.962420766200878 4.710194889467795
Si 8.881128415042786 10.26542340507556 3.0610840373201684
Si 7.009820221117511 9.591751807317424 4.586004068931768
Si 7.767676313618067 6.939791399512016 5.669896945680435
Si 4.0722212917218 9.321210300750856 4.698927688828963
Si 9.62385647983548 9.265896456903437 5.04998941737594
Si 8.549196153991574 11.861246160341915 4.808989431048263
Si 5.116874860571433 4.706015353831922 6.076311560509721
Si 6.253985616640406 11.911884873014307 5.205446364419077
Si 9.382977141257708 3.212876029450915 5.124058967545603
Si 4.198298938704515 2.6654866838347413 5.397136291875724
Si 3.7218298725548857 6.600690184065974 6.395000468134633
Si 9.938608420664346 5.27606528206696 6.366002813298988
Si 7.532493104608692 4.517724183425002 6.280232001888771
Si 4.356651146530052 10.107393113623111 6.82322215067109
Si 9.810098298457575 10.960556849209228 6.694538602288727
Si 5.795776719752625 1.870881140704335 6.989587821753788
Si 8.144205317278002 2.1458505083064874 6.964286566980785
Si 4.616048297973865 8.106602883730762 7.9814597714157465
Si 5.903794305797686 5.0136968551049 8.53365162619335
Si 5.703749289769644 11.878878822199601 7.491021497018053
Si 6.96087431468303 8.00733119916321 7.682680140721374
Si 3.5443448033913345 5.482427713207584 8.667242686371422
Si 7.489955207023628 10.265810483501733 6.964648141384099
Si 6.7852103486063315 2.9071470514685016 9.096368523853736
Si 8.773813702248617 4.812213756280331 8.41194796277655
Si 4.659837827593509 1.5670464189836402 9.064464891204056
Si 3.6269665913323843 7.43254633693959 10.083047079556078
Si 7.548627350473468 6.578986837573465 9.461737138314547
Si 9.136957941369923 2.558604264603877 9.166988242708484
Si 5.546408027274818 6.121946468610011 10.782845941532138
Si 3.0424207334205846 3.2957445651795805 9.568599151002292
Si 5.05503503093898 3.741446449152669 10.762797654808853
Si 6.119677621203684 1.5821651652606876 11.011087378246996
