42
Energy = -199.2933417 eV
Si 6.643209283229619 5.412486304821746 0.8610441403962591
Si 5.950062514570088 3.644778997545816 2.3539390667596147
Si 5.187093490168825 6.148234303426807 2.544987716074038
Si 2.9044131972484406 6.227101943647619 3.2050193526907482
Si 3.8709933334782067 4.026355111105523 3.480048640650093
Si 7.629269933799304 5.540768275767093 3.078581973119296
Si 7.680864493664804 3.1181224238187526 3.9801142730268566
Si 3.812377608708722 11.283897921491803 4.115633660557673
Si 9.945722765830137 6.165883142236612 3.610705449175077
Si 5.758213965676817 11.213914383211993 5.557309457901675
Si 9.631112515319414 4.1901334483276145 4.844987183310773
Si 6.370730002977447 6.501170426099644 4.905010398978879
Si 7.939724588883093 10.610901438033755 4.821871058939582
Si 4.0765793084566795 6.126537116969553 5.316770661195753
Si 4.15239175019928 9.191780691730562 5.099149656912403
Si 4.499882723428641 3.704194041255672 5.707301458584658
Si 6.464734416373621 2.370600900528431 5.89586691299404
Si 6.514901480695291 8.76549798306281 5.585935830201632
Si 3.6772485875403427 11.337649942501791 6.570895659265123
Si 11.413750850731764 4.161236828420504 6.489543812170277
Si 7.477348940027883 4.671536413663189 6.005873888142893
Si 10.620123629864477 6.417724107816552 5.858048573939175
Si 5.8921193086383 5.201343404096063 8.342715526141928
Si 8.735782267727298 9.724925526303235 6.837862777985291
Si 10.789682036920214 8.419327449405442 7.132543152860663
Si 3.0220290004862473 6.855649660187022 7.352299619536571
Si 7.018029536883337 8.12909209210914 7.801074752312208
Si 3.310377054190387 9.1752347450849 7.42947807529237
Si 8.93246163695487 6.8249682990317595 7.639908388747551
Si 9.429190866554894 4.42139827141183 7.773228748739203
Si 3.7889158964031617 3.9473121651802523 7.9099037934019645
Si 7.384811844797734 3.1352004487597913 7.991813627426192
Si 1.910524770904135 5.223810023060543 8.689706408034299
Si 4.180097943133687 8.521051959590633 9.505282517795633
Si 9.487825888269995 5.754977489460008 9.850246632414548
Si 8.416599660837225 9.781428721060228 9.243460997887624
Si 5.436510889418561 2.981013417991175 9.451310600207414
Si 10.149650514210064 8.030748499145144 9.405393651638365
Si 6.498351852120867 8.584089127363834 10.043749057827535
Si 3.7916669346090064 6.2231202090669635 9.715109720424254
Si 7.1797387770632595 6.285190730434277 10.095333634674253
Si 5.419345832815427 4.944073509584994 10.895401385476696
