45
Energy = -214.29764084 eV
Si 5.439050684825802 9.701420931809226 0.7165292335160139
Si 3.409780290906244 10.271386933850927 1.949712340057814
Si 4.436438208326719 5.723976515224991 1.9212339052190002
Si 4.512318298722912 8.062033042692487 2.313164983886259
Si 5.559521712275883 11.375752063027562 2.635532367194153
Si 6.5308242070788785 9.153763000930127 2.8168568486632277
Si 6.6015686151742266 5.456001824183545 2.9267259703036332
Si 8.177078471571582 3.6251167130497164 2.968760969414679
Si 7.95253997179391 7.375028454354984 3.392694692607216
Si 4.4855205742256326 9.717595364430725 4.111070207043208
Si 10.232585454290291 7.004048233822514 3.9235264371845893
Si 3.756243438667114 5.323697170703954 4.122466563483861
Si 9.690571258682036 4.74225283296017 4.458442426947209
Si 7.4688277975752415 2.035905828540891 4.606453374357506
Si 3.205479738879856 3.118007669971335 4.712590334896354
Si 7.200679152150121 4.4744309999466205 5.140143495905474
Si 5.407252109805717 2.890986873958439 5.453481111572872
Si 6.778768703067891 7.2631162139238095 5.42877696559395
Si 10.887495143349094 3.4617755859838697 6.114614681656956
Si 3.8615135745985616 10.37460644717054 6.3358391479790335
Si 8.641346400706462 2.9450619431168383 6.5313931542461905
Si 10.156440317282597 7.245569838186597 6.295426229287003
Si 2.4305119763274563 6.409609012034905 5.7953876423066735
Si 5.694441747283638 8.952897091255508 6.640354692657681
Si 4.795139144575351 6.354087158622154 6.392289861559723
Si 3.1451793874299576 4.254820215798525 6.791747969446657
Si 7.078707666614122 8.357219606989224 8.481635033999188
Si 3.30975736476258 8.156138211316224 7.157054902794412
Si 8.069500221620554 6.4688152771271765 7.227824021337725
Si 5.504682020701175 2.7939219828823325 7.808073342645722
Si 10.373426530419138 5.304323574344936 7.541755183663599
Si 9.674422546673759 8.222818926204353 8.425673224888703
Si 3.543494026907104 3.446877350972311 8.978786993335698
Si 3.333819379293561 7.208717584358689 9.411118243413394
Si 8.538495245886876 10.29420971241028 8.845804109567355
Si 7.24054246507391 4.8860872486161 8.80379256077709
Si 7.67923876282558 2.552781845337447 8.68539775311559
Si 10.546857352411976 6.370695677119558 9.710111439985825
Si 4.896948368108004 5.412479874445231 8.609088993189433
Si 5.494816910229786 7.677990141259585 10.26124382095327
Si 7.829658291879124 9.053415856581003 10.713469826463427
Si 8.282572596423732 6.403685376054184 10.408964841262534
Si 6.274229770451825 6.2311197750629965 12.023540112425852
Si 6.068987211481278 8.759229222547802 12.377081903494359
Si 8.302726888662256 7.586524796819121 12.534368085699757
