41
Energy = -196.78023735 eV
Si 6.626396839211211 8.158084136405352 2.6905026897399758
Si 7.5363216110034665 4.865075657715387 2.577482789178848
Si 5.422095770810866 4.496797114661812 1.4997599052575707
Si 4.844931637102177 6.724554366136368 2.134739711118559
Si 8.59141852650101 6.904636392272033 2.9993877917939438
Si 2.630015822305255 7.438247121978111 2.7043330038046673
Si 5.599660240315165 10.0737738978369 3.6591195665729312
Si 8.743075632436799 3.4812905713159834 4.070809929168446
Si 3.5612248518435505 8.9647331666214 4.254671791890101
Si 5.770170485776315 7.784226421900893 4.891513569773275
Si 9.416616156448008 6.423002539863724 5.154183327815744
Si 10.717173519233615 4.4552902669014856 5.111090252958084
Si 7.2231703397162645 5.372661969636204 5.018605929020269
Si 4.917395234960051 2.810650279956766 5.366936750994877
Si 3.629575717280944 6.416972479414869 4.604990242237335
Si 5.173812843460986 4.668991075011816 3.8655893275806976
Si 6.304723378384396 10.180344923231788 5.892484908969356
Si 7.2326773887489555 2.9102199481449422 5.723407593828786
Si 9.485067542154784 8.262135193712533 6.625673467700343
Si 2.4060947244411843 9.706732363602733 6.251041312086187
Si 2.427973279213436 5.557028708933462 6.484107614862184
Si 8.338546168282058 10.384960606563729 7.1196664688380356
Si 5.937602076574847 6.108278237521843 7.9608155757512655
Si 9.783357907013999 4.02061500884148 7.221211856132542
Si 4.465044810919477 10.015346917389587 7.324346662437116
Si 8.43126421533999 2.166398945173743 7.596479983571806
Si 7.105862098998479 8.054376402887476 6.921218056722811
Si 4.463758923818901 4.434416761748494 7.0528878648352595
Si 2.9799498774091835 7.675426482184695 7.316197547690205
Si 10.517083011205141 5.030998702390946 9.22829067232851
Si 9.900950422304348 7.244707313274024 8.7064300700096
Si 7.968502853673956 5.886662108360767 9.187247291927173
Si 7.007949871273156 9.400189059992721 8.921068938619158
Si 4.393642749399677 7.93438270091921 9.165862581135091
Si 4.891141876447537 10.200139717999225 9.653230166847917
Si 7.254050564663454 3.473792489920115 9.125363827818601
Si 8.406358014562445 8.08600737393 10.271560825912454
Si 4.950752715362476 3.97030553852146 9.333491590776973
Si 5.317906113395053 6.116095900628636 10.33743191237864
Si 8.6960352976966 4.322670096865562 10.826623104024032
Si 7.430648890311907 6.318781039631691 11.650143525891101
