42
Energy = -199.46765673 eV
Si 7.748610197705581 7.912601618928321 1.3897804575386943
Si 7.651443210824998 3.6324981513790986 2.2181410507910773
Si 6.251110362876124 7.857754771764055 3.2906393898121884
Si 5.142707955931379 3.712875302044597 2.541209780837259
Si 8.191445381428734 5.928481480823599 2.6235767105521983
Si 4.787602528769334 5.958131459943867 3.359908710369397
Si 8.615742099351474 9.038550776350856 3.2846692031112554
Si 4.79814819843948 9.633782429067113 4.103631918776441
Si 8.681051869911801 2.949595171965373 4.3120321208513985
Si 6.605447916213127 4.537348595550232 4.391764095139745
Si 4.777897475499527 2.8606177820145176 4.80246973590534
Si 3.0323251643742832 6.206087179217871 4.877886818879448
Si 7.26602894967717 10.479682756983001 4.643514077280187
Si 8.930018091943664 5.992847353918527 4.836223548769622
Si 9.690990828102587 8.34416394548991 5.283690878564527
Si 5.342843581440032 11.789866843923761 4.919482137320142
Si 7.20454690994897 7.427818409136303 5.529405640885714
Si 7.948320079456703 9.380626772007766 6.672308171129912
Si 6.880180302083325 2.382552439695438 5.705757833761277
Si 9.925296686830498 4.20707996276567 6.049872622336265
Si 10.943041248689642 6.592627094131513 6.356833155358806
Si 3.8130619719229575 8.264818067091472 5.8219695055336285
Si 5.512854847142432 9.91935389904329 6.605893508829452
Si 5.2708790807227945 6.1353931753865565 5.954468685469788
Si 7.19592594521914 1.8655660062385757 7.980697027559684
Si 3.9888234616152247 4.313463277728741 6.661311545076982
Si 8.448215793660987 3.8868101414722087 7.913184372872767
Si 7.156569257103956 6.068111805818672 8.28936224899714
Si 2.574966572948509 8.27254503661721 7.88627339975319
Si 8.837495180669714 9.367956238662885 8.883533170024881
Si 5.826647721556196 3.7735105286384814 8.149918047504514
Si 9.379375302364808 7.130831639803402 8.15571261338734
Si 2.2895741264390033 5.7325324983795465 8.143515230015767
Si 4.519977581704304 6.800221431022422 8.37858684800861
Si 6.837296352334981 8.401505637666235 9.72276974846914
Si 9.225898153476038 5.29383385126197 9.689328838289216
Si 4.513046309483868 9.147132920611805 9.141259683315148
Si 7.253739409583004 5.985868629617887 10.81079530429296
Si 3.3978855373452714 5.682625687966462 10.338356072347334
Si 5.455651562348493 4.550899942331491 10.293258593737505
Si 4.4718634376186355 7.658629658377393 10.969898211662198
Si 6.6154533552400565 7.922799629160059 12.017109286880338
