43
Energy = -204.17749595 eV
Si 8.063201721220082 5.9297860712001125 2.192611993013668
Si 3.7248109726991885 6.286450833708664 2.2566324241221265
Si 5.8660553215477105 5.455932409285687 2.900606910010363
Si 3.7839290314602323 8.644829960967833 2.8724545553534635
Si 8.00147629598106 7.8972168494669495 3.4458954401457818
Si 6.017339473069836 9.111111855805147 3.6960019484744024
Si 8.851902823463377 5.178863989587911 4.3002371360370155
Si 2.4207833903195994 5.361467626359621 4.063392800679395
Si 10.100540696849228 8.530838835011751 4.322002555570317
Si 5.921258800624426 3.2265245975538765 3.714378304004419
Si 4.155486153070271 1.7106206338254546 4.217782263355314
Si 2.0667786251002256 2.9838698106141988 4.317176057350222
Si 10.998145761430276 6.23106634531851 4.761449477682242
Si 3.3847143390150305 6.5285388328198435 6.443032823860292
Si 7.735873415341053 3.3152659105118034 5.2598652511350945
Si 4.7475051253380025 7.0164626255897735 4.465772914341797
Si 2.5751463460571253 8.593460273302576 4.965140158890829
Si 1.1714393427188277 6.735710921240458 5.581670853778168
Si 8.98042882881367 7.032525759401972 5.904619115483185
Si 7.426142305659358 10.538433000506005 4.993631342170375
Si 4.130199584031508 3.9990993862119533 5.080409939154186
Si 6.264246341538428 5.147358186229534 5.97474484306541
Si 10.14123632041364 9.030864422360441 6.660503698135558
Si 11.183738441333647 6.918290122681748 7.111621656177147
Si 6.121450967570938 8.78174691382461 6.180388122262918
Si 7.066102284404882 10.731511320702678 7.3136582480991335
Si 7.127443278979313 7.015558158475038 7.3900811838172435
Si 9.274420927693154 10.47471474777981 8.270344860058511
Si 3.8940781261768995 8.837723530491184 6.916940020875459
Si 3.202169085969615 2.2761352481326664 6.46246886397573
Si 4.5170188277678704 4.215479242467061 7.489922754692862
Si 6.783014253835196 3.0835513809238977 7.472978328732465
Si 5.1928886263529765 9.909011746818347 8.610013482151318
Si 9.783746448623923 6.173113538664198 8.918111346463139
Si 7.7855247616028755 4.899728432652205 8.649000371519497
Si 8.657896000707298 8.383399469734613 9.199326806786255
Si 6.343892295028579 8.070284998322942 9.592325125112126
Si 5.835694534282743 5.598081675595146 9.872161514540283
Si 10.367638602967592 5.296002884564028 11.132141047482145
Si 9.13058190412679 7.309333733908109 11.293783632237668
Si 7.999409688341106 4.936931353758072 11.1733887915856
Si 6.79224113299822 7.134679441690664 11.799023052408968
Si 5.91240879547747 4.968422921935652 12.262307985210489
