40
Energy = -189.82056456 eV
Si 7.674611570863571 5.58901797011345 2.9709224611673215
Si 6.17283522884978 9.262344875510793 2.9025278746077228
Si 4.476081058580929 7.532369428621061 2.6886784243713095
Si 5.333334479596755 5.338939208139825 2.8665128104159963
Si 8.039044135832839 7.8243979733319104 3.5825020173041526
Si 9.507132484024035 4.190508519051002 3.575764633670029
Si 10.2363157764689 8.657197031281582 3.915295453275427
Si 12.16559344024907 7.3763441255928095 4.807987735452695
Si 6.457501538324216 5.914040033657484 5.156502492304289
Si 4.665283843076255 4.23769627120672 4.822923945065825
Si 5.4154241742519815 8.134485769102232 4.966241977696997
Si 3.0335011196472927 7.514507501135075 4.5812118836592015
Si 5.143491769434561 10.629004356699026 4.7730632287493595
Si 10.08957636450957 6.222888515881619 4.6773907697589365
Si 7.936782297279156 3.970471046421787 5.372894295085643
Si 3.059320869754908 5.541584613820218 6.052466992145264
Si 6.112654074360689 2.355434613544336 5.118690378569405
Si 8.8578265240409 9.350667849654776 5.836653223554002
Si 3.263113190463524 9.454704361890146 5.89186081968929
Si 6.695868380458345 9.977618737958212 6.431273410641386
Si 5.512345399048834 2.868954540188599 7.314206225025067
Si 11.037643278939187 6.861916208022919 6.861406959185508
Si 5.262689992885066 5.411248884810174 7.478176136377208
Si 6.267878265638048 7.7540688613359485 7.614740598276547
Si 1.4204571568984654 4.732294803082712 7.588009094653955
Si 3.8843727855253265 7.630025037066852 7.340792839622398
Si 8.449910276348593 7.025030646107647 6.404189771942248
Si 8.878441123992646 4.277259133982915 7.540836701053563
Si 7.2828760427695665 9.731921442277981 8.741849002235138
Si 3.465459555023288 3.7112502149187034 8.067666032329843
Si 6.984724331615012 3.849878555850288 8.850368406667666
Si 9.637844753741332 8.633477275309934 7.9613845912731644
Si 10.904057991955874 5.080794426809918 8.537170613037432
Si 4.308885974829181 5.1291092194620935 9.753227750486692
Si 5.541055108392781 8.364116599974572 9.913666996437241
Si 1.8481822392527913 5.453786155409436 9.912616658244394
Si 6.853485469433956 6.419780641466347 9.97418743309296
Si 3.206149136483402 7.352265550703041 9.584310814515526
Si 8.924294909387008 6.449334210156365 8.772277317393497
Si 6.23431989890565 4.429630801583596 11.03791724209949
