42
Energy = -199.36471578 eV
Si 2.932658118511233 7.399687925699035 2.4362588893876627
Si 5.790114164942268 4.596915714907791 1.9914019713346642
Si 9.015804873312817 6.487671931845003 1.9459097618294376
Si 5.055112562201529 8.513508957243262 2.3488060116933327
Si 6.674941387040256 6.827678081009759 2.3471871783907368
Si 2.4016150166772623 5.325324477194447 3.561327307362731
Si 7.998493056192412 4.536647389422802 2.810577698315038
Si 4.6969948782386455 10.750425908502104 3.268138792029516
Si 2.7472381920566478 9.436689629830376 3.689659671177905
Si 4.690584946974763 4.642159995994262 4.050319904653742
Si 9.093076307725436 3.6187392729821717 4.6589571898990565
Si 3.8629297418406723 6.897093560800241 4.703796229606981
Si 9.435865110070702 6.25267359380505 4.251396387592021
Si 4.944086532106744 9.595051492483972 5.392527411326673
Si 6.118460639349907 7.650331990395176 4.639375592859678
Si 1.705847396915388 6.435907683755964 5.669464490496635
Si 2.5540990483354635 8.672998493235607 5.888356332593809
Si 7.21903797072082 4.971165112582519 5.697927960981906
Si 5.233724826620175 3.7116266661598165 6.143155807111516
Si 11.122817091730383 4.873215381335041 5.153906980574353
Si 8.024012889097001 7.165575280077705 5.913499236586238
Si 7.6423443241721 2.547025854204084 6.294554210909646
Si 5.38498976144389 7.326074903523472 7.737034765388256
Si 1.8795091285847756 5.404336807350168 7.877264769658614
Si 10.229374144813537 5.700835888014001 7.262274392370124
Si 2.8139439526719325 7.541347627656388 8.008945886108284
Si 8.525681352192597 4.074409679431357 7.892797831393191
Si 5.848032853289909 9.634490504717284 7.673525097258995
Si 9.402383347565248 8.26512424753574 7.549401014268111
Si 4.305972685473951 5.142687682144117 7.878444360762284
Si 12.261276348441593 5.507491799840264 8.697411465717067
Si 7.558240786819663 7.208935789191774 8.85221124183708
Si 4.155566857157857 8.949435732721819 9.297848711912678
Si 10.363014676023502 4.45434001448858 9.543273498209512
Si 7.97629071915051 9.724783493582677 9.01151445258063
Si 7.26240301666302 4.839971597056244 9.70745612877271
Si 10.62663191999986 7.112536396952292 9.329819241614235
Si 4.939418233984469 4.860178667914613 10.19803507832953
Si 5.439308763910187 7.21613141312729 10.264981083150445
Si 8.854747299122803 6.500817323099784 10.881771187754769
Si 7.357941261920898 8.413899343549618 11.054180109724898
Si 8.855413815932462 4.214056694630622 11.425304666470243
