47
Energy = -222.978991 eV
Si 9.695564791883024 5.831969181814697 4.048630015968269
Si 7.233036371890792 4.919126372856283 1.8121821385801093
Si 8.749674641065473 5.522544421448375 6.241441420360597
Si 8.048076543072149 6.966024153475227 2.6163360086505256
Si 8.976013185854375 3.58536548889205 3.490270455438088
Si 8.301052474984756 2.8366077569299506 1.370393943043187
Si 6.2039180854232026 7.610315093764787 4.668210430240921
Si 6.750355831514799 8.975115605751917 2.756826927579766
Si 4.963841283781169 4.471831317887537 1.3086557792172104
Si 7.939776269734921 6.40353158366012 8.338213659257034
Si 5.79919361108014 2.2303499223323 0.7068125026632545
Si 9.086543206590884 3.317575285767124 7.12097541354503
Si 6.151764811110687 7.1772574729331415 7.026726730802151
Si 8.639857054741375 1.9712007192566887 5.188697779778953
Si 6.995705269169411 3.558395374871869 5.7914701245662075
Si 7.115120744016321 5.4005595893155425 4.308579485039764
Si 7.423696942351378 0.06260523966354194 4.283360215346267
Si 6.503326374669049 1.8285165130222183 3.047186894866854
Si 4.08119642927468 6.6161091142026365 4.151172102525724
Si 3.4897219121002325 6.222136815515209 0.610412555123886
Si 7.08025113415311 4.130727101388585 8.194308361188266
Si 4.70166265701939 7.75039856494045 2.154463091758974
Si 3.3950201405348803 2.503526080578649 1.9291147878494734
Si 2.9770665346736975 8.880052391110622 3.5056342740643474
Si 4.082903485678926 8.091023767765883 7.832536736468339
Si 4.790982232895205 0.3965810960230351 1.8016885784493102
Si 5.020586432752917 3.6906535321489016 3.651367129397455
Si 4.165363387506696 5.899556131980599 6.464259056984976
Si 2.850150530463368 6.068695602978324 8.52498882663806
Si 5.299206627523022 0.292475912730638 5.475523149097
Si 2.4912307047462723 5.448137170170376 2.6615923955976535
Si 5.341843052021977 2.210203915842049 6.853965896071356
Si 5.505183298095292 2.6130881795622325 9.185433792992004
Si 1.1876126144681254 3.6024989102913856 3.360954522597748
Si 2.9217764343699595 8.15003514522664 5.745879500548152
Si 3.7514789118716743 1.3610520572255258 4.0337398622931495
Si 1.6610792655243645 4.8816471233763865 5.444748806715188
Si 3.5829924620735927 3.4209527433168136 5.6343798263189955
Si 0.6427189531008807 5.353013236702742 7.7296777607968075
Si 1.2100652909343164 7.251945762937118 3.50473249166722
Si 3.7323712561506306 3.896906258805657 8.252271113646765
Si 10.532688612412326 5.436727638889897 2.3362868081946244
Si 1.5629072275616347 1.828049605198004 4.999001438110238
Si 0.7256250766283093 7.085428958803654 5.967561211445346
Si 1.6280830538957962 3.07597004602285 7.298115953283728
Si 9.695564791883024 7.053045664251048 4.262232155896985
Si 9.96200610952982 4.607905017700959 4.596473671641977
