48
Energy = -229.0793823 eV
Si 6.14315258378281 7.42929195102494 1.5265141590739362
Si 8.139669338693517 7.223567514128169 2.781747240468046
Si 9.315763066758743 5.0985513337815025 2.7318860968754377
Si 4.920964147358281 6.017115324630732 2.9690783130128118
Si 5.285643014229953 3.6818679879153455 3.040711018925167
Si 5.2884624082239835 8.875488525716209 3.2246805028734467
Si 2.9354448366946686 9.321064153721268 3.1202348759946377
Si 2.779883532111649 6.868583951615049 3.3499626479554094
Si 9.230643718744183 9.260084552003901 3.311996118372606
Si 10.685591954630345 5.616397934724136 4.634566592716955
Si 7.466876867402538 4.028214370421655 3.8723993504699936
Si 7.193816662926532 9.545361400011698 4.507764889077455
Si 0.8561615182283729 5.922328985347466 4.5025810543097515
Si 8.179631070234985 2.9734265140897786 5.780805193828368
Si 12.238083650406548 7.303678471157159 5.537700837186377
Si 8.258573371488623 6.077276702246703 4.986061522115432
Si 10.080623557646573 8.078456662132568 5.169957443722659
Si 10.053206545198337 4.191535996179067 6.346535671334298
Si 4.768187616845437 7.251265889734535 5.1592664498349405
Si 4.320979939216054 3.5179738469106283 5.19770346202356
Si 3.620424806716871 9.381830005347004 5.4320916822287435
Si 6.929952515085584 7.924368919611813 6.290012498268518
Si 2.233477559926342 7.360081859075923 5.740681740913622
Si 2.383146901453674 4.642662746623005 5.850054297703706
Si 1.967973878538353 8.856194701735099 7.608652463179837
Si 7.48654488038178 10.407822372225041 6.745153448208829
Si 3.466981685707837 10.80558429216962 7.241857268697419
Si 4.524686054107781 5.490780261411408 6.88238460854081
Si 5.400510053977903 2.884858563899655 7.152552245286855
Si 7.338818615905202 1.6357097002089696 7.492690433996472
Si 9.431814243297955 5.9508520994913034 7.908059185881206
Si 2.367417093422915 4.914760612594009 8.218573716507022
Si 11.201044744190636 7.694551560070992 7.721024327196232
Si 5.751626662235682 7.3499599235693855 8.441262315316141
Si 5.493160908575773 9.758514313305753 7.80020791660848
Si 7.250590043151024 5.470980407789817 8.872509126547392
Si 8.956625494727023 8.642453762734142 7.482844502008859
Si 3.242482518533466 7.128646598330556 8.595835496266043
Si 10.595166729829609 3.7976072536314547 8.597956271619813
Si 8.270650513187094 3.3026496938466035 8.95059034238415
Si 4.34863081530052 3.9268616399900313 8.91048505658068
Si 11.179408460710079 5.964032174986905 9.615817537555774
Si 5.934875130700663 9.19718151739627 10.144010298904686
Si 5.48640274428983 5.162501565707087 10.536423498843627
Si 8.987676827434035 6.27997024772395 10.56725119337714
Si 4.390563095737204 7.314490488097545 10.722161170560616
Si 7.955462377914268 8.166651327401372 9.63245402717517
Si 7.6625252441406095 4.3059093235348085 11.094249889473046
