46
Energy = -218.09027809 eV
Si 7.695177524182386 5.217229956955091 1.4300929096140735
Si 8.630006146730414 7.3460454580818215 1.299846148591443
Si 5.585557611561665 4.624870665838506 0.20861290554235654
Si 7.584218724475237 3.087267218189007 0.5306498304373507
Si 9.087820758112235 6.191302774976109 3.410586449362915
Si 6.582632140635062 8.487638481855186 4.4681699694371755
Si 6.440172223079734 7.78933614786642 2.2458397342109966
Si 9.566553173050053 3.909760383150994 4.086838197661378
Si 5.289843467177724 5.633008636550323 2.5170106436373803
Si 2.203363968604768 4.997108487547608 1.8886981112831835
Si 7.865880085117457 1.6565065523831204 6.390882193135474
Si 4.029717316220593 3.5204660489845745 1.5031184027150581
Si 4.270657818632758 8.786432035460704 1.5615776050024128
Si 4.379312041879148 9.210944115078926 3.891453633623584
Si 7.880789162624697 6.7754617263442265 5.343927394787269
Si 4.6951340032948945 8.403646793813362 7.408624851384457
Si 7.848405356158686 2.665165917472682 2.865605068477918
Si 7.089477512047823 4.700212005717268 4.023408026833501
Si 4.638566406838829 7.1236656507036 5.243380708455401
Si 7.774280766394826 0.5609561506965081 4.125080498502215
Si 8.195900320183249 3.997726230125018 6.085902380016067
Si 3.1937768337827865 6.963111341331865 2.7660949648835773
Si 5.758066240658181 6.133193023571052 7.596378598105803
Si 2.9444847071191 9.130395099683534 5.777092520444996
Si 2.5427250524493865 6.050973515566602 6.053597112982986
Si 4.528843728783018 3.6401928573791054 3.947036143119263
Si 8.225431423789935 5.943432660084736 7.523935724725317
Si 0.5817019037942651 4.57927571945524 3.4592655349950667
Si 5.356545448766864 9.944314308594704 3.875365864595364
Si 9.566553173050055 6.333747216412519 4.459465536516433
Si 1.5543539619142168 7.516057975671362 4.511957777279455
Si 4.973645653698809 4.176607806746484 6.546170626595305
Si 5.9471096205501315 1.9465679036889547 4.809841765391036
Si 4.006777211792313 1.434473457362644 2.6141312353124113
Si 3.1292359078540617 6.829880727317876 8.255299855204862
Si 5.700755744700985 2.0470296786046944 7.291885312995119
Si 2.5560751117739215 3.8194660181337308 5.379016509522769
Si 0.23335047220956245 4.816069118433495 6.1174746806185505
Si 4.367915190295789 4.736266307449205 9.129520695091427
Si 2.5392992393564136 1.6391542050957673 4.441701248503102
Si 1.4903608349668054 4.856178549878168 8.17831904782522
Si 0.3431949831472364 2.6774399041277768 4.848531028466946
Si 4.085979313589317 0.5361088677935454 5.83082029230485
Si 3.87843038261323 0.8473443355605507 8.235566821432991
Si 3.08574629009288 3.1125473766652814 7.679648492144864
Si 2.3768161530706347 5.835557508489516 10.210010561332682
