43
Energy = -204.61910212 eV
Si 6.9177183514190315 5.010658072377681 0.8614493230940969
Si 9.140710085109289 4.824337587511884 1.7396954271423324
Si 9.803408196718618 2.867930509217873 3.0605879485200718
Si 5.321927470207655 3.2984179088853947 1.6503534560163269
Si 6.456085604601632 7.044563625059507 2.102379408693313
Si 7.53667159630796 3.070833665206044 2.523100341686962
Si 5.547867173246345 9.255797344424174 2.2645556632666204
Si 8.530139736231241 6.625605271970834 3.1961987619599044
Si 4.811355915729764 5.400763274561403 2.8795778739856055
Si 8.49863615389967 4.455634454519268 4.413455921677994
Si 2.896117881063512 6.453079819160574 3.883220756182674
Si 7.296904915634262 9.683001852829094 3.8338685729246853
Si 9.432062280552376 8.668488248010666 3.9385637627102814
Si 6.065269298033606 3.913137739895549 4.249177228121251
Si 4.60099517356017 8.142476421884547 4.1721338492010345
Si 3.4655258032389957 5.808454567522955 6.105096749934697
Si 7.7906967757408 8.211381464882058 5.893295384416018
Si 7.663470551053741 3.9690801643175133 6.74424866189561
Si 6.333966256532115 6.523554325838598 4.705281468806401
Si 9.084606286129818 10.154327143823792 6.978408161894088
Si 5.855261900978371 2.4269293587430845 6.0547581655270335
Si 4.428031262584453 9.240055663578422 6.272275712539853
Si 4.147462444695952 3.8325387805201743 7.0980201040917805
Si 7.049867582629396 10.687873664617864 5.897691288744007
Si 5.040871520583016 11.437325296342555 6.9726017059491
Si 3.0119177936449426 7.709821531964322 7.464904543233836
Si 5.705656899218787 7.7990985084921665 7.684029509639759
Si 5.945893482973448 5.568077738845167 6.963536476859796
Si 10.229015192348916 8.220923095956053 6.118472437449973
Si 7.817077201748485 9.230696721199095 8.703092897227387
Si 9.06658510690363 3.2006772446154983 8.547043442874102
Si 5.666560690827409 10.0840050440998 8.869665129153907
Si 7.50540948575729 7.0617629556815125 9.476769666698114
Si 8.632922709855382 5.125225854198743 9.949626941750893
Si 5.106863152349745 4.511740997478963 9.115678684825934
Si 3.8979082569381793 7.681351192368522 9.627790665475175
Si 4.169156786657261 5.6921860038679615 10.87608128692449
Si 6.995704800313429 3.3080259050908456 9.720280637511035
Si 4.610157836764986 9.507766001874018 10.917957210505605
Si 5.98408795578559 7.500031266211443 11.182245872965773
Si 7.442500506663665 4.155630309406188 11.935501979511711
Si 5.724831442581172 5.732716179663026 12.78059847803564
Si 8.285656697080377 6.417553438178751 12.09026465527031
