45
Energy = -215.86839885 eV
Si 5.4490527572850045 11.795470062806691 5.983167625809913
Si 5.207213400867172 2.119189299376037 6.773779922233097
Si 10.20850982518696 7.412423366509216 8.39043032618581
Si 4.718791834806539 9.347110937066114 2.7346254153813696
Si 6.216633093587857 7.21190217496324 9.504228206074291
Si 6.92167918925024 9.280532071954136 3.5197629089708875
Si 1.9861470497630278 6.6590480366956495 5.708282604418944
Si 4.260646521856666 10.038838719555594 4.916161540412734
Si 3.018500594646227 9.440600856439566 8.568537209515817
Si 6.378273441912058 3.305832430977213 10.133797593526825
Si 2.928653890280282 5.3688307804666024 8.536887695251762
Si 4.333093515168491 3.521516678284711 8.827371067603544
Si 2.8094799144253813 8.782302077037281 6.285090186961545
Si 12.37145056389121 7.757835739767128 7.390725698542236
Si 4.612945072871483 7.129988092590274 3.6380184771823356
Si 10.474475794632717 4.5787725973069815 7.948318420901046
Si 5.372574381880167 3.0978629362999444 4.66958044810394
Si 4.122291993429266 7.370212781321386 8.589501821306573
Si 12.126478911129084 5.4439478296217505 6.591683179831817
Si 9.720982383064067 10.791506504646339 6.2820879399586715
Si 2.4933742125559686 6.005346793740737 3.482984243917047
Si 7.156648722156549 2.526708778211486 8.02623730793952
Si 5.058387685006201 10.296034372327028 7.743730516904161
Si 3.157517961993006 1.660200558589048 7.895374035637671
Si 9.023991809278751 3.1327472300962853 6.806379311532618
Si 3.369465457079451 4.257653632978567 4.722179593819952
Si 2.328637212309894 3.5763160432024197 6.699837290136729
Si 7.510161710736616 5.290739625659411 9.449440419068786
Si 7.449209110858744 10.521856287058023 5.422579398636264
Si 8.364017112361037 7.748899611621947 2.499323063364503
Si 6.7774464301862505 6.2822779106403175 3.3508011941207236
Si 10.411953826535411 5.107629353321607 5.097723176625761
Si 6.866421625541854 9.369211735423583 8.87277572895832
Si 10.721242230488377 8.64893090484704 5.921970767566304
Si 9.667971936455272 7.202600573149648 4.402825025682147
Si 7.36122424512298 4.354051516698333 4.550346825294321
Si 9.36898144238887 3.0918367694033986 4.435521491954387
Si 9.81357775170859 5.6284561764407215 9.954647635658624
Si 0.8516990250981681 5.295694423987027 7.381683724772467
Si 9.065428096323755 9.434713342987791 8.063542176278485
Si 6.791574704607246 8.512927705222708 6.5323569440917995
Si 4.80633422528771 7.255877726668144 6.063310787401829
Si 8.614741431064582 6.987079784315313 6.551984469559926
Si 4.9168848932612415 4.817685517190191 6.611812561039224
Si 7.31523301165811 5.040799652531738 6.968594021863638
