47
Energy = -217.83147575 eV
Si 14.18857707423414 15.576491769160626 8.702293505597131
Si 10.351187108979804 8.571208279399716 13.166520029357342
Si 11.93641791239733 15.426097027465618 8.247550678797936
Si 10.593031948818352 14.342603885362344 6.694719613119602
Si 8.37926824479035 15.048987658245265 6.854909227037513
Si 16.277519040119405 9.975755083452386 8.366749177549028
Si 10.881126216786544 8.539103643040752 6.4762182441680745
Si 5.549190336712328 12.57519274047481 9.1189447226874
Si 13.115600838227435 13.624161855941287 9.441657977236332
Si 12.793241301760352 5.912471858191302 11.878321675282427
Si 12.397821121104124 9.488847121945843 8.252612785451495
Si 14.272110943059074 10.361056980566259 9.579522874445027
Si 12.932652503248905 8.614053225679827 14.82180176392504
Si 14.909946979874034 10.534189919765476 6.414418929977501
Si 6.22502792347226 14.649477253418858 14.132936983900494
Si 10.83149720537378 12.88909152496527 9.601884400927448
Si 11.005532506100701 12.091054270065413 7.408306220068665
Si 12.07605738970918 10.212321783790362 13.341369513803253
Si 7.452534736924641 12.970001769711972 7.734115059570579
Si 7.325296781974146 10.698361677094166 7.026605860428306
Si 8.48588424696465 9.799439835677166 12.352951626993923
Si 9.198171379097257 11.502695842045476 10.825776527542335
Si 12.6204766443512 6.077218221332348 14.236385711405365
Si 7.427830885591435 13.024868673465717 15.223332114298579
Si 14.239275389520051 7.544149029508554 12.662654534029505
Si 7.215352768200326 12.942304849080418 10.821129933968667
Si 6.310741430169712 12.629121797067395 13.014481752721382
Si 9.604979624427221 16.119200977591742 8.625305469768962
Si 6.637607905026036 8.884856832474368 11.108681184862037
Si 8.793189636183603 14.038301866018998 9.41880558705642
Si 14.75449627302489 7.117509408896874 14.944359961040394
Si 10.834714386557797 7.563582982001384 15.246474861624163
Si 8.170145463547211 11.277206617168886 16.51783857856205
Si 10.49224560758328 8.34196233778466 9.02455782845399
Si 5.862024314763013 10.323392951940315 12.808342179962668
Si 13.314679508929508 8.748915706896952 6.04541794951509
Si 11.520342279916578 7.834286042156611 11.208741023264198
Si 13.311561041779141 9.371079930289975 11.503925710037647
Si 14.622685205626661 8.300798363059638 8.050065950717077
Si 9.63988973547551 10.55287921138042 6.274909509738097
Si 9.858009294344416 6.530164619998732 17.09165184304645
Si 7.545379907621326 10.712687421751701 14.384525899923316
Si 11.057981337762177 5.166990905591202 15.761078631796794
Si 9.263366966110608 10.351052659594613 8.714876635659463
Si 6.895149358675519 10.656257827098855 9.522784419623468
Si 11.930229997836035 7.56720326300556 4.655655131539299
Si 13.326571683455837 11.794557138035186 7.808993770142942
