49
Energy = -234.45104619 eV
Si 8.53157662115448 6.946201026048913 2.4050935464878935
Si 7.4828163506635255 3.4846421747342564 2.853154849695095
Si 4.434452056559659 6.8896380282529215 2.423360424844621
Si 6.528873533241357 5.718962544031404 3.057452321263094
Si 2.664998339322381 5.419258944492436 3.199898120043226
Si 8.995970203762285 5.092044880094999 3.680746827276521
Si 2.9020248295309456 3.0497280394118254 3.6024076575493655
Si 8.786182459120692 8.633012183905022 4.0548963192392025
Si 10.911857924546101 9.956869984928673 4.469815830395419
Si 6.71493085961704 3.116530482201995 5.06210116912993
Si 7.497846923376507 10.675728178386555 4.21346222799623
Si 4.33135114742134 8.162838794459098 4.4674131578581795
Si 4.46579920926778 2.4204561050778532 5.313923140924225
Si 10.26986466467166 5.017722490801855 5.6831203467797184
Si 5.671688105105278 6.2278402051825745 5.181283245211384
Si 3.7625744965853944 4.877964765747889 5.30587384496032
Si 1.4798424554992342 5.981178395686821 5.15631733968107
Si 1.7944689161428475 2.746597107138589 5.666524246858335
Si 9.224183702248377 11.186271658554709 5.685926506855282
Si 5.76529150383637 9.674321295621333 5.539308714928971
Si 9.893761922958713 8.584329849177289 6.191284680117715
Si 12.320294012948972 9.101546667624806 6.398878639599286
Si 7.303414589050282 7.884034149140386 6.145925574059804
Si 2.4991943855505423 7.942035218903725 5.896257556733692
Si 0.4090003856972585 4.416348872438391 6.679473071810466
Si 6.573373803405898 4.644452999028527 6.919581235332011
Si 3.155122645855437 1.081363181988499 6.758492558128341
Si 11.318270735762573 6.832104675817206 6.826686441058708
Si 4.4847492497552315 9.479975195922735 7.5176910429407595
Si 2.109318722719035 9.15094238210509 7.84683909742837
Si 2.590514209606246 4.866180320816449 7.506305738093946
Si 7.572472170666287 2.1394509034773077 7.038473508522569
Si 9.435612615134255 3.5429912249636204 7.296612172351596
Si 8.4226493139782 9.69656691708803 7.753836104969712
Si 9.244329167491218 11.936410140496678 7.9352317043413025
Si 5.6300073310144105 7.3096016269399415 8.069456807350566
Si 3.2033643648060544 7.019625891185908 8.279955057057462
Si 8.536656974643845 5.933271850641777 7.111545681105094
Si 4.0131127992994315 2.991209115166942 7.859968180583506
Si 10.877637735956583 10.16752345043911 8.152110205825945
Si 6.22771483999932 3.181078036365539 8.715385134285675
Si 10.116341762201031 6.698131502010332 8.857038906389137
Si 5.384762483036832 9.309533883358846 9.7270537648431
Si 7.530585443732184 8.352199482921979 9.693070857391646
Si 9.220663554214266 4.63441490949035 9.33034003759106
Si 9.831591208359674 8.82846184385852 9.830870779943151
Si 6.595562578427841 6.221774470647362 10.067333589292351
Si 4.432071975490129 7.205282527210612 10.371090482591278
Si 7.341674495460588 4.0617712049097525 10.691551331178015
