42
Energy = -199.39618095 eV
Si 6.619216211091891 8.18300305279514 2.4316847653719558
Si 3.8308017291602567 5.28947551154999 2.9436560300030585
Si 10.34422755181628 9.378919236096385 3.406712655826946
Si 5.466903473349966 3.5576590140483373 3.4424970662318586
Si 9.487973209674008 5.225539819164892 3.371950124371866
Si 8.791897459249629 7.592114784733187 3.2388150642052533
Si 5.901223641737089 9.288922136413175 4.377850554825356
Si 2.1457558179009615 2.297257109705442 5.350161366059622
Si 4.504451627008034 1.8664548787238857 4.748668850175755
Si 2.946378036975981 4.5594710444699205 5.082426081996943
Si 11.12688768840536 8.179506709615401 5.307548057210728
Si 5.412031597117724 6.761977285036721 3.933696264540276
Si 4.150162867400764 10.473308586232521 5.501765212578923
Si 7.625381371361842 4.054927008133039 4.2894397532999236
Si 7.381632192487382 8.607292072973713 6.187882051231918
Si 9.23884228078954 9.87257572763457 5.512455942214374
Si 5.652033449663317 9.917602151848833 7.351728746769519
Si 10.184066529642834 6.066077747197353 5.499263694425438
Si 7.667574666733356 6.411635406830988 5.0433979982411925
Si 5.3672592624708075 4.180152268061482 5.809535814267502
Si 5.691253572125506 1.6832980371433637 6.778343080001651
Si 9.922956821243128 11.407638594746663 7.224622219293919
Si 7.493884488961319 3.258094453923512 6.502090674867731
Si 7.866562812721816 10.373207388730703 8.001274598294382
Si 2.4605576757376273 6.534572438794663 6.39447221088965
Si 3.6744139794945956 2.960383142402691 7.065815078185817
Si 4.92163703964553 6.504696631171359 6.840160332110279
Si 3.785639519271271 8.092743251357637 5.25325894065844
Si 10.781251181310166 9.129945869005057 7.39045045508366
Si 7.390540027708733 6.070318882920244 7.48504930824125
Si 9.833073795564308 5.77934678337242 7.773753943486018
Si 4.755759583908229 8.116918014630974 8.601899262843498
Si 8.628594206580539 3.852839093894307 8.504769362829734
Si 8.413164403597543 8.10697516713067 8.607662598071386
Si 2.362251135097168 7.6986262433412795 8.603948812698706
Si 4.206824988769085 4.895480550119276 8.444176973757962
Si 6.565075442759949 7.1797251545391365 9.82140918800295
Si 10.609820014954648 7.569610769985307 9.191382044321395
Si 6.474883262202213 4.69646245174805 9.4205826442295
Si 4.408705065469021 6.093472937878832 10.719147769193354
Si 2.36385352532485 5.588082785841691 9.881052104546667
Si 6.54459679351351 5.643689806054488 11.663542304541751
