41
Energy = -194.9551356 eV
Si 4.65606573289316 6.371019294388294 1.9116910964620717
Si 5.865859363605619 8.204220613853327 2.955300078002087
Si 6.051667573248295 4.749042480148764 2.935818096864676
Si 8.335940964896805 5.265479906684924 2.3755047379710175
Si 7.865188775681013 7.156762047871314 3.775913741796235
Si 2.757812471830197 6.447783332689266 3.2851304122301315
Si 1.9591427767211396 8.78269412060693 3.4803163555407424
Si 5.045033076467743 6.480412876854198 4.388021474570336
Si 4.2169416167061815 9.402116892553362 4.188395283704305
Si 4.547859383571071 3.8057362773435406 4.455857291199293
Si 2.179547342545116 4.307996609449565 4.362369632903461
Si 9.594349325314946 8.394596435230476 4.93164384215514
Si 9.191692322306457 4.484606661906385 4.450075305698888
Si 11.24322477151888 4.2985768583603985 5.576593717090022
Si 3.113508851417433 5.924477549098372 5.84438716646041
Si 5.069699107827745 10.95204910823355 5.7675778259022445
Si 2.203668384332118 8.149323122952659 5.742706261466919
Si 8.004920453686912 6.4254748260593 6.004046005612535
Si 4.506852673023087 8.693152459388612 6.59430786791987
Si 5.577491719349963 3.4443111529495063 6.607698499640996
Si 10.462078487042266 6.488075907164384 6.075811744909331
Si 7.30380723999588 11.301624236853153 6.752696322938346
Si 8.493158111148496 9.222069177611155 6.853530004065954
Si 6.238116853117766 7.283092823374052 7.355314383802039
Si 7.818087837180089 3.837201820677321 6.209302625797014
Si 3.7459916514687337 10.731050290777214 7.760070815545983
Si 2.511734831586458 8.676533866582817 7.990847324052476
Si 9.82872647972892 3.42825219088484 7.370756983893636
Si 4.714966649919948 5.450849139804026 7.5928228031755145
Si 7.8426335040735005 5.03170796329395 8.501904781578467
Si 9.776684787329472 6.618958999726774 8.298067014850774
Si 5.960967723131065 10.209883819591726 8.353674758455659
Si 9.35536147955091 8.834435657396353 9.031605933215706
Si 7.033912209708333 8.34892514223036 9.37187235057184
Si 5.87584416092731 3.215599758335365 8.979352775828643
Si 10.308438703135398 2.3391055705154082 9.392928610674796
Si 10.112928996509252 4.750448578468715 9.706027731725511
Si 4.424000845154077 4.924525645789352 9.918267609093064
Si 6.4662704449185275 6.173798248326261 10.12927188044153
Si 8.012465595341654 2.9738147158976758 9.940784332631251
Si 8.227356722088391 4.920213820076509 11.28173451956062
