49
Energy = -235.50338399 eV
Si 6.65229573223579 5.979697550892243 1.7003339576560967
Si 4.86180221289101 6.6768254162208365 3.0282700848170827
Si 2.393709267647885 6.458572105618409 3.1902761373049877
Si 7.910585678634935 7.436457147827871 3.1008673747541953
Si 7.244257659833671 4.341988347390211 3.3265751496917026
Si 4.533770415856841 8.74084890644418 4.094517065542979
Si 2.592302095693501 7.909703719254744 5.057319469745437
Si 9.62039679072848 4.248465485204184 3.728341459358681
Si 6.056470657710691 2.2048200687424875 3.7753127026929825
Si 7.616180593724814 9.642612041911773 3.8016157718134274
Si 9.681796899635088 6.561671538004796 4.4563532119462135
Si 5.562454903076882 10.882824975983203 4.133602219793403
Si 1.8750515213669816 4.298096358937636 4.226139274948396
Si 3.9723866257908127 5.560855150787968 4.981355338013825
Si 4.1735851506254145 3.167632833104458 4.918268875486975
Si 7.523664748972064 7.9248040379603975 5.574587921654129
Si 9.573757985377053 9.733847879579802 5.112414587081632
Si 11.399548236130213 8.195327032094848 4.8548426414607935
Si 6.6306963383879625 4.480307651866764 5.623137741866737
Si 5.287593102974142 7.266902935362483 6.041645513197184
Si 1.9628335816692446 8.076970497079563 7.340687725843352
Si 8.588588554658822 5.798156074284686 6.5735526731552785
Si 7.113165500249726 2.091769259837083 5.991069308401263
Si 9.035805935852657 3.4371033558901605 5.902595116817769
Si 1.9196110965683708 2.1649056808761546 5.183957951190702
Si 11.259743859346235 8.015215846834202 7.308675895579325
Si 3.2221292545120206 3.1991498414625905 7.102605214992867
Si 5.886486531355643 9.941768635590384 6.312911312998958
Si 9.045857092124216 8.89920811796265 7.364156683801401
Si 9.575550817034044 11.273378249583802 6.973248312998488
Si 1.0500832431820748 4.178536170205014 6.550217739188622
Si 2.8161020033969244 5.7904684580955745 7.145494992602564
Si 9.969539527567058 3.901544123744547 8.058318673680834
Si 4.324991773979576 8.69686402300842 7.657147929916391
Si 6.353234874467582 5.315464299716678 7.882733136009525
Si 10.137790672455912 6.260747135396378 8.362832069102414
Si 7.425055723460638 10.729147447279969 7.931446312645661
Si 10.916624655764979 10.045509206063569 8.67391503266369
Si 7.560293691931146 7.302532035380832 8.575503510891723
Si 6.150823471082329 2.781676439085601 8.048385765193624
Si 4.0886442085006784 2.678394286538341 9.223401492857995
Si 4.278378209159255 5.128272250445923 8.980944840299586
Si 7.894480226756299 3.736258322442199 9.212187652020043
Si 8.899841628874468 9.257534012353762 9.842845716452171
Si 5.7189498875918465 8.45470588814519 9.572997965541186
Si 9.162354245808006 6.947953245085938 10.461594745987478
Si 7.147876319718034 5.655320621029801 10.388527568109419
Si 6.8920567565605095 10.4873506102382 10.247070638791863
Si 4.940800039074169 6.541834683149545 10.905197523435488
