43
Energy = -205.22437327 eV
Si 8.373822207919638 4.293290449918744 1.9603546755896122
Si 9.614424064264188 6.397978332126672 2.2020286481589544
Si 4.019666917008786 8.38629677108682 2.8974212389808396
Si 8.077773231194985 8.19194829983517 2.5600985562249368
Si 8.15078341130817 10.12979159243394 3.875963101379181
Si 5.929613238693566 7.373001170722536 2.1154555283640817
Si 6.115151673725038 5.048975817017253 2.528197561492085
Si 4.365809851463885 10.530757299401131 3.9020208155424854
Si 6.097702247148031 8.873722845047611 4.313576908141401
Si 10.275429064839624 5.96750445621379 4.446408472647107
Si 9.123312714666332 3.9598155573216895 4.235366623218018
Si 3.1736527295320656 6.476462617459684 4.001138221550361
Si 4.7868188167107135 4.873890891812188 4.4125274198426485
Si 7.818315315503379 6.029585027417027 3.9753180665146086
Si 9.006092449490492 8.719806066631042 5.639228475883766
Si 3.7265389503868924 7.163058857997684 6.2352696533257115
Si 4.201041367496153 3.375690592340937 6.078354552989299
Si 11.066970392603986 7.5412994231735455 6.027604366252867
Si 1.4446662956191076 6.486243869690888 5.688516587724085
Si 3.855836661572086 9.533717245178346 5.998167682668849
Si 8.52235354105611 2.927265796351211 6.26926469065928
Si 2.7634099954950924 4.964328124293929 7.068907042067667
Si 7.932150720964743 4.990002376483507 7.373423946670184
Si 6.9227420574418925 7.330006185924802 5.932945676430848
Si 1.808754049394421 8.580630530555124 7.001181561533694
Si 5.942452566202943 3.4730652276533767 7.761263800009686
Si 7.307715875196654 1.5256607957721284 7.926253053226264
Si 10.203841739243051 3.8683765722410772 7.628869874850837
Si 9.994571681221348 6.263238562514447 7.706642820153327
Si 5.580260165624474 9.532700185255356 7.599286813592126
Si 7.9091367429799035 9.18225582874655 7.656355228990221
Si 8.585534199609194 3.202620966183235 9.134181616235528
Si 5.4860796758072325 6.764480764803439 7.870927849920538
Si 2.9181704735545058 7.388591633150502 8.739578103954521
Si 2.4861406219396565 5.1198265270284935 9.400752297208705
Si 4.877670043165504 4.878216519546662 9.340226620792556
Si 4.777841747666516 8.566898003243264 9.541771393571796
Si 9.764986816268285 6.811346605343113 10.024760962660915
Si 8.483570425373028 8.915916213574569 10.042635928338596
Si 8.20850195162587 5.046686460727985 10.500415349065335
Si 7.3206375297800514 6.944613818253363 9.333305176291283
Si 6.11625844658383 5.70812488720422 11.25169899568401
Si 6.3637973326611945 8.162310232325892 11.302334041603487
