47
Energy = -224.28297851 eV
Si 6.6273989427530875 7.79105405050484 2.1787193848152464
Si 4.846262195664124 6.506098813008689 3.0707516901249825
Si 5.339944974738339 4.215503396885732 2.6270052690762458
Si 6.344594863973059 10.133811258684464 3.0272080667498273
Si 10.457765133954071 6.787065443532949 3.7240473585127836
Si 8.13807063883556 6.4984045550117635 3.4477286658848123
Si 3.317003562008534 7.786884043630442 4.252566629225106
Si 7.184833212339682 4.466621785846349 4.131926203069161
Si 3.8213242068327133 2.978325321172005 4.036787749054559
Si 10.269988056681667 9.014875189040652 4.6710106300714775
Si 8.243138526730721 10.339539591955125 4.608138296635858
Si 6.932377353215548 8.305040904514303 4.6135025618700345
Si 1.4883562937239612 3.010333615641591 4.506707405732129
Si 4.76083715971259 9.635767532905222 4.835392192010878
Si 10.419513922043638 5.172482830687894 5.461948548793682
Si 5.057715740985277 4.774126369546903 5.315940037553476
Si 1.3920659987626092 7.0761370275618285 5.364671665129761
Si 2.5376272513500835 4.979657602317114 5.11794456383686
Si 8.887662302268545 7.26119776845079 5.941523181690638
Si 9.120766768606863 3.2336027745047056 4.889497411951018
Si 4.542000376578795 2.3483264922986598 6.160852487623281
Si 12.007102122506671 9.942173665635666 5.93459351413217
Si 5.245823784462313 7.185404736125881 5.878710375070408
Si 2.3240055735190372 2.9668232040116664 6.837136486314766
Si 7.844077641112458 10.038245458988172 6.985434538072695
Si 5.819331950371056 4.9317479653287535 8.129546518075509
Si 3.072201589544831 7.346181001258476 7.068636255960526
Si 8.715405381809328 2.221514318988065 7.097798314579899
Si 10.147795160655726 9.279269454359635 7.1598983773991955
Si 5.0506285727179625 10.066779717144799 7.190357180802503
Si 8.0351853139676 4.645738759736484 6.767705338231804
Si 6.9414526352626975 7.844313154183448 7.620951939724484
Si 10.26843109694168 5.752627162050979 7.712352428803962
Si 6.624783075288208 11.686300021263575 8.140384977075595
Si 10.624671719530625 7.741369334382166 8.923907119571753
Si 6.400544832079239 2.5608009212984446 7.528303619133414
Si 3.406971151680987 4.987375822690128 7.650329775771914
Si 3.093473467964558 9.35399008889094 8.36939557505269
Si 5.823756579525385 3.0149201651650004 9.758776636277943
Si 9.444489766100146 3.8421548859469845 8.754101740774308
Si 5.073998768259587 8.48097935616514 9.312650296524403
Si 7.588263718764001 4.627900473241179 9.958022040419797
Si 8.32593758495691 7.6748915547601415 9.586217219275778
Si 7.022398739503389 9.754580220431489 9.550499730456501
Si 5.479375753990052 6.323342047506188 10.145328262557408
Si 3.915392587701364 4.502798571515059 9.991368285365203
Si 7.4752539500244986 6.412921571228128 11.463723455161828
