40
Energy = -190.67689582 eV
Si 6.165754457769484 7.753387583958994 3.17215683968099
Si 5.11370718884983 5.8571159925668015 2.334844099817232
Si 2.9827643412989255 6.355750021033268 3.159913077619094
Si 5.929320522172569 3.564180846269468 2.622273306766245
Si 5.21869584227753 9.81269975158406 4.0152812163261755
Si 8.187094553737674 6.745053076237809 3.7552354208228698
Si 10.271070487953134 7.722929835735944 4.076880745731873
Si 3.530905393182296 8.158845790053748 4.762644182772811
Si 4.896236296682722 6.2746757225914305 4.816677125454375
Si 7.946044824384087 4.399437354909611 3.63426347620466
Si 4.424104828688072 2.7369069769240686 4.675934501526424
Si 10.930053441618288 5.489959755889372 4.82219651493826
Si 2.9089442528728564 4.635155275586921 4.744316529467165
Si 6.177835870042463 4.379129968136907 5.25137973657911
Si 6.407258701978294 9.181059190233867 6.0464810546495755
Si 9.67172625071757 3.3925613469008313 4.977760541635448
Si 10.061486007694162 8.386275095294216 6.451268623532797
Si 7.940240605826709 7.329538945436442 6.1750824810420895
Si 1.9325691549936799 7.6156123426566555 6.532703243110095
Si 1.4123605886741837 5.22519527632067 6.475418562194669
Si 11.27589568021041 6.331102914810465 6.973775633749992
Si 3.7664224148944814 5.6488620799604226 7.040321500531113
Si 10.145675039580956 10.586510068851982 7.527549016899808
Si 4.574926566687329 3.176971446420178 7.051409262367155
Si 7.689380237835464 10.454432177003188 7.6203847737290715
Si 9.10132518554801 5.317094996628827 6.46704666178955
Si 2.504797019958989 3.905628820956143 8.260951142457236
Si 5.261569813155973 9.044219457727516 8.100942873764724
Si 10.270409715776019 4.921233864102624 8.63052702720909
Si 8.864545846530651 3.157664801517833 7.524450264978421
Si 3.3834530340983138 7.630592060410344 8.365196352310045
Si 6.679714234971712 7.023254225303065 8.402666566582534
Si 9.273873556330905 9.027468899205802 9.031241977942967
Si 5.883900335288137 11.073252740748535 9.236145017128852
Si 3.5259362156661975 5.623845166458245 9.58835560395996
Si 6.600246038099074 4.0744007340977255 7.758909746068327
Si 8.93968443110724 6.747524546172154 9.284389535075238
Si 5.8662911388831525 5.222425342955136 9.782057931840349
Si 7.068119896769118 9.156380311060863 9.918532753196844
Si 7.2156599871898095 6.861665197284338 10.932435078543232
