49
Energy = -233.45937628 eV
Si 6.1260076418744465 3.3970919654913576 1.5276655193101552
Si 6.098594262049293 8.653550989562072 2.42509466115325
Si 4.472009586437433 6.859137476325383 2.412913993647634
Si 7.920198860368339 5.0251176490005305 1.8632403180036
Si 5.558233546396364 4.851705610839813 3.3135855859937715
Si 7.984618263455262 7.295056264633559 2.6414035288095556
Si 9.756151859401246 4.159441298804274 3.1848611707137935
Si 9.952182416226261 8.1938417870673 3.457269329560317
Si 5.873383289324252 10.055224285247267 4.3915711888933995
Si 2.8600660431119502 7.385194340814744 4.068132206963282
Si 6.593446715680691 2.5178926005137034 3.727940587563791
Si 5.297304469760789 7.662672721150646 4.607985895804365
Si 7.732200535628787 4.842316471943391 4.417283481521698
Si 9.97438728344269 6.1112676424077685 4.452902041803105
Si 8.751472530256555 2.577010946334947 4.675975104555896
Si 4.4048877355546665 4.1980205609180965 5.703987362071857
Si 2.4026130356151296 5.375811171468798 5.1724929917846865
Si 1.477679563345698 9.187968611839056 4.715921523236293
Si 3.7648162954676416 9.544000404749175 5.346851359547737
Si 4.83016362886556 1.8775210162133205 5.214783653013133
Si 7.358464455108293 10.105186415662317 6.29126347030008
Si 5.547990231374174 6.230388036556531 6.460805727921491
Si 9.507505565007985 8.857511729534544 5.765383037562847
Si 1.7403671385806505 7.593957587546094 6.596894276835427
Si 7.850826688286862 5.680906303618706 6.727360168662433
Si 9.59121730735162 10.984953209734313 6.7248809943718815
Si 9.98074662919172 6.750370036307275 6.737970740462949
Si 4.26606749968956 9.235506031659964 7.634550375935496
Si 8.39485518787961 3.3435743126307518 6.978955340218605
Si 5.847812600465948 10.979486262837804 7.984580552390173
Si 6.174214781194287 2.588879698169648 6.966178693902087
Si 4.114015210029844 6.508146035496774 8.355232673499755
Si 0.8481326216316372 5.370849586832729 6.8799148004455475
Si 6.697826101621229 8.543480487411898 8.062005291548315
Si 2.9953771284953286 4.482613087606448 7.742444694393412
Si 7.2914284441531265 5.051221887011986 9.011073469895676
Si 9.119759755483157 9.716385949202788 8.734776318288256
Si 8.836957099704865 7.184358163321586 8.964969495784993
Si 5.920753936152292 3.0178468730216284 9.201002785246741
Si 2.5294443345734394 8.221595196032126 8.780902261990084
Si 11.193480653878934 6.306193653918894 8.805052120520372
Si 7.127199411395061 10.257541153260021 9.917673488915911
Si 8.455051531663697 2.872233995191572 9.47190174924227
Si 5.500495500692835 6.009439721511048 10.19131215612368
Si 9.475403078176377 5.11530944987876 10.197623434998635
Si 6.806367782340097 7.949742540410257 10.486880525297318
Si 3.935014705227013 4.10534609753306 10.017133388918722
Si 10.656990719335926 8.406683217540126 10.087001736510441
Si 8.898030546059303 7.252663672242573 11.39462893287368
