41
Energy = -195.67631444 eV
Si 6.406373774222611 8.341462932888545 1.0461538609472971
Si 7.71503013422932 6.642604360961567 2.0606249015136857
Si 6.9248995414502765 4.398379346541052 2.08972208331478
Si 4.475378615323826 4.964685257437251 2.336219048180173
Si 9.893902504997241 6.921000053024975 3.036002856666295
Si 4.873192962566861 7.310194752863637 2.557164967122333
Si 7.188601830875268 9.325401790924591 3.059450099498283
Si 9.479755226149909 9.308777574428019 3.757542524209437
Si 6.108772373695006 5.792985510599715 4.147552693762682
Si 7.594276823884127 3.928920674033514 4.338076306469061
Si 9.216980347045382 5.5565451060623525 4.898564159971571
Si 7.910251202148988 7.556092985897135 4.59272923243602
Si 3.913967439777668 4.716958183135931 4.64608688211255
Si 3.7734244081387476 8.446027579168053 4.2683505293068045
Si 7.001415527373851 1.849242894565226 5.405747335681164
Si 5.7753988121758155 9.525435728410349 4.907082900969135
Si 2.804393591399846 6.687562021453109 5.610595920404382
Si 8.906370487391142 9.434156809214487 6.058592413311744
Si 4.992609568271255 3.058659574550896 6.009249855044171
Si 5.088955485720549 6.4848016165437565 6.27588582867054
Si 6.972400003979309 10.816790178761389 6.60112307898491
Si 10.397718035892515 5.841531510774196 6.885331495546466
Si 10.243660767870018 8.112800781537038 7.508101602771808
Si 2.766677606532797 7.394928244312469 7.9702682322853935
Si 3.828665971884446 9.33556408265725 9.24818088845655
Si 6.838035377401854 8.15951874664391 6.789168920038281
Si 5.766448273475015 4.657429153235835 7.70161140948539
Si 4.644700095890575 2.392490533829541 8.268120489256619
Si 4.876962179610172 7.071484461001291 8.970508618941867
Si 8.307870967209077 6.5186236584474155 7.972885003518473
Si 7.032218656078135 2.5239166247638316 7.752684447510543
Si 6.187282990406305 9.590213484772235 8.611587258119167
Si 9.982987507494881 5.04900183919787 9.201561226085575
Si 9.755707258085618 7.513074283254994 9.732649326016608
Si 2.7699737393020065 5.923011530424139 9.885273370046495
Si 4.5610969584788865 4.3268191822331294 9.712010959895043
Si 7.693621978189447 4.243544339946238 9.237195861251175
Si 3.88661760093171 7.737826292657463 11.157432789402826
Si 7.487613657141889 8.050400185374935 9.872728525582081
Si 6.046629640008761 6.677097392965888 11.035892130711
Si 6.409160077296854 4.314038740503396 11.284289966499404
