49
Energy = -234.51817539 eV
Si 4.482268227246536 7.48213987074726 1.15216045912187
Si 3.0992328741432322 5.678946178782841 2.1951224765564588
Si 6.689005974427191 7.078377318286288 2.0854693727108944
Si 3.925162364973102 9.185404537263814 2.813424052439319
Si 8.204326939339678 5.1843716609896475 2.0685106328046103
Si 1.6999078936959442 9.236842933313591 3.7585433215470463
Si 4.575712850101033 4.425400142736329 3.5787113888145368
Si 4.8079195182192445 6.942063989824202 3.605708067360958
Si 1.7848198860026854 6.839228007583485 3.8562885419430533
Si 6.971901323692997 8.83309643832798 3.556956264479301
Si 6.922508116214769 4.0444783267719915 3.7612437113628703
Si 5.592813111004763 10.679380008632291 3.7726480364582025
Si 3.3925853563363693 8.294344960291442 5.127970480453085
Si 9.068746370418454 5.821609436554231 4.167323886748016
Si 8.575884175736519 7.958670963954904 5.066145904222168
Si 7.437101387280687 1.9522688286216523 4.735700035235521
Si 5.987769425978635 5.521060270566958 5.409135490519374
Si 3.696126976270995 4.364999844127321 5.758405563897487
Si 2.393318812774004 6.303016197055132 6.088301484601512
Si 6.567893292897276 7.707867377098712 6.27223454550366
Si 5.196021752817468 9.614642190730027 5.9409854117210665
Si 10.704444591575653 4.674633944135136 5.375340104693705
Si 6.191206496272191 2.0160172383306803 6.746675739490677
Si 9.115250614466795 3.02851164265977 5.935585961936994
Si 9.125980339904382 9.69722881075223 6.601299601956878
Si 9.142351324753102 2.374719068422873 8.118612404402489
Si 10.157369307586972 5.629544514871075 7.497065006177088
Si 10.546945890271326 11.651070087448732 6.727194188001985
Si 3.787607172086592 2.305653407044005 6.985151931642456
Si 9.905810814826713 7.879811975091919 8.081957591489493
Si 5.453311062268949 4.347091718141776 7.511426990631141
Si 7.258502178291962 0.9318520386007146 8.60871620077528
Si 8.098867106144251 4.611540710877341 7.9768912884383045
Si 11.145087790106912 9.900282692935 8.270240468655798
Si 6.042087824230713 6.659369747930605 8.38722516555176
Si 2.117807212103167 7.118360038914786 8.358098866343267
Si 10.23884122545177 4.0731564736009975 9.418613262702108
Si 7.264740605859708 9.784672686772524 8.177847659982422
Si 4.990834820467755 10.580772076144488 8.128548831407441
Si 6.448455719863155 2.9457591451774996 9.45862207846353
Si 9.09345372833681 11.380095285839733 8.676409675527168
Si 4.252753508746112 8.365587258251676 8.60855500868914
Si 8.401674768555273 8.427661723561332 9.764656690647717
Si 4.0714995428758245 3.2298077049217118 9.289870692805765
Si 3.7379010973991513 5.556636297721621 9.129339154275655
Si 7.174852996420669 6.5898625290598805 10.490752991630739
Si 8.048403502397202 4.398010159175308 10.43194452736397
Si 10.053136882052028 10.113958406061768 10.410672710034852
Si 4.859795247116461 7.0801231352970415 10.561696077784674
