42
Energy = -200.41366238 eV
Si 3.4640739633460034 6.509431059590699 2.063839970510355
Si 5.269453612898902 2.484602407435033 3.145665879217232
Si 4.8821860490062985 4.792688272375409 2.8096105865287537
Si 8.373847155661025 10.069014884195468 3.180252239088343
Si 3.3242312680675794 3.0839921176005807 4.382521952900401
Si 2.446406903185117 5.292304754650352 3.8560163363577726
Si 9.592339505577367 8.169048429469216 4.060322141927086
Si 11.840897994811613 7.79531858306977 4.684758863830414
Si 4.3706388733367 6.9024287601158205 4.2679921909761855
Si 8.676058227479137 6.122338254664454 4.8753562719835575
Si 6.897308071704551 9.347353033477344 4.880664545453987
Si 10.067723856914855 4.232456906054445 4.632527455831935
Si 6.362184711558077 5.560604238767155 4.798641853712045
Si 5.757794739109805 3.3259696997815476 5.355786168282151
Si 11.104340601975672 5.883402964376806 6.013785728097521
Si 9.01069743582847 10.652919451679265 5.466427093494958
Si 4.58256321882515 9.18485768640023 4.984275246563104
Si 3.57220934547545 3.9019596694922245 6.632451541885192
Si 2.9233805739345624 6.092225026452067 6.080895394647227
Si 10.52155131190552 9.009323643992161 6.258691255579251
Si 6.5073841018877525 7.531427048008732 6.390678011416314
Si 9.270153115552 7.28342592490303 7.265683456400336
Si 2.987863956419803 10.173259660793468 6.5110924166306665
Si 7.0604616861787735 1.792029507232951 6.634650549154307
Si 11.026620829957873 6.030366506027296 8.369599418673916
Si 7.793009342500601 5.296615629245113 7.867206571395315
Si 2.0121029954410465 7.968591501962786 7.362978654266289
Si 4.460822551608285 8.37496164677621 7.3739540956728655
Si 7.177974385099096 10.5502513876409 7.025417062244945
Si 8.829266783390672 3.388151932316019 6.493098892679391
Si 5.336636642276454 5.301947064497124 7.557797972407709
Si 7.674319007397482 8.662185106338388 8.314012107685304
Si 4.880707433442796 10.85631993521445 7.981984975458803
Si 6.422016643931945 3.116660920217024 8.486650709224632
Si 4.095665136818059 3.3890141090800903 8.945087892852845
Si 9.77056616798939 4.01855566427095 8.549267003861704
Si 7.9122352153176765 4.005740935459112 10.101992419498114
Si 3.2872820075729208 7.635810983276407 9.414658724913545
Si 5.082786534587715 9.115970734142753 9.606555782104273
Si 6.758154646701529 6.101591374639423 9.974996295840528
Si 4.46444006131765 5.613067907491657 9.768096550095
Si 7.149643334010789 8.381814676827595 10.57405772065773
