41
Energy = -195.09793882 eV
Si 5.042932123989395 5.490962130264634 2.165717935712192
Si 9.302332101917077 6.164038124167141 2.848225469892695
Si 7.208042592849342 5.022571804441052 3.113874711549448
Si 4.5248598637152755 7.769691044322181 2.6234876799928406
Si 6.141591942059839 8.81061755723247 3.989181020303185
Si 8.393472108397269 8.013187071319496 4.138579872626494
Si 6.972111714641389 2.7317422946362555 4.009626561231342
Si 2.4950476404280555 7.727613244404384 4.11990136020663
Si 5.684989700732912 6.410790458012941 4.41410652668961
Si 3.8279922296088778 4.608567886766798 4.035038261092524
Si 9.582943856731227 4.842852734533087 4.8862596904063835
Si 9.039902163498931 2.536321919795643 5.36954569008676
Si 4.944138003197954 10.586656536523813 5.063430700680121
Si 9.825401723138942 9.658454058786445 5.348776554868116
Si 7.351229394395793 4.499503919486861 5.65125371525213
Si 1.8201881816711831 5.5308126951318926 4.847888207865424
Si 5.1126511315263015 3.3072892354860954 5.4755091003982646
Si 3.83239415384475 6.6114534989003095 5.897027451295134
Si 3.2900734127891518 9.063579005086984 5.88165545330089
Si 8.514511987163596 7.495854496493891 6.467777106549422
Si 2.5507979648690395 5.130251093764251 7.228334180462439
Si 8.097560006397387 3.092962236067926 7.533600411862728
Si 10.920875124293218 8.21061136932664 6.879152649556357
Si 6.049008152588236 9.939145018460039 7.0228178522412055
Si 12.452112283430637 6.738056184433591 7.77170346900754
Si 8.360624708115639 9.952321899048966 7.2682794567491085
Si 6.9942656738577185 5.874288378149942 7.602276566155377
Si 10.452201112979102 5.823603266097746 6.8335348779583605
Si 3.1811580992264386 8.425705768947452 8.214932005536788
Si 4.946316460921579 4.34121155013956 7.725485346769312
Si 10.45978931269639 6.921552055188285 9.243730067827626
Si 5.45161094586907 7.728600254804888 7.7880043975561914
Si 1.8147825340096302 6.6244046738110445 9.032166113024648
Si 4.9879715844514125 9.818301612772373 9.178555934785985
Si 6.190547040230605 2.6086295681726077 8.945926285517334
Si 4.110366753021788 6.146556910901436 9.295347738055208
Si 6.874068274839217 4.7079079144128615 9.814703995029712
Si 8.57444845726519 8.340147344382247 8.891330052771238
Si 9.02455178127802 4.932694743766763 8.761074995751729
Si 6.48879001301848 8.08629594165942 9.984083491407048
Si 5.644907723611862 6.207752533168016 11.171657075241882
