47
Energy = -224.0926752 eV
Si 6.179908120634298 5.695276587223394 1.0920945009048146
Si 9.159697393686432 8.830939250844798 1.9371298717814216
Si 8.222272342140075 6.651345932475687 1.9306050789031584
Si 5.3422406483194305 9.474385285821498 2.6949586987511838
Si 5.349136101371695 7.12350873815578 2.8166955943926877
Si 7.491918494667109 10.55550581166839 2.5600002913725346
Si 6.328062062013911 4.275669639464606 2.9638510862711804
Si 8.340979198035358 3.9500646068684486 4.027670836817007
Si 9.89686735845078 5.271538821615403 2.870863164195277
Si 7.393501189497709 8.272193660671816 3.7458439164829915
Si 10.036499480054276 8.536614372301575 4.2099168969778225
Si 4.028004088751509 6.570246363145385 4.65126234018116
Si 4.1249047991423655 10.485883324882897 4.454584963503764
Si 5.045240518199823 3.6438385542117864 4.764127675118477
Si 2.8715369546304146 4.544640838001336 4.84682017655592
Si 11.050505124902106 6.46381246942046 4.554656133008269
Si 8.560260449821032 6.3583164898735 4.7335599620182105
Si 3.3734945484195578 8.54903252976178 5.5669416728882535
Si 7.878836662080818 10.35642254028617 4.985953214758844
Si 10.081850132121756 10.266503354169874 5.848607471478273
Si 6.0985505591698725 1.8046761896550332 6.006379687458951
Si 8.435120198639913 2.3633814835804268 5.7504634911027654
Si 5.834468369225364 9.55495044509398 5.758511659671654
Si 6.837101370239498 4.177267011669456 6.345722631014311
Si 3.2709300661571636 5.049493081853103 7.092981245919419
Si 11.047249967499289 5.5002783836200315 6.819579757251134
Si 8.95985438230576 6.550186875841455 7.157598988393775
Si 8.892310687645649 8.908296762979177 7.342574129708254
Si 1.9501819420150914 8.927439599119904 7.453810667263587
Si 9.334276442169397 3.8941231732734574 7.352365444695001
Si 3.5353061317019296 3.2694148733927584 8.657749078255062
Si 2.425000865012499 6.827464715472559 8.407825973062707
Si 5.754559422932912 2.363806709243428 8.329324917683403
Si 6.0514364232643 9.22998438107319 8.076197871665652
Si 5.427372464319836 4.846101030035143 8.188818115839672
Si 5.580683680616269 7.058841864585177 8.919803425543984
Si 3.8117161040128367 9.164072954317463 8.932989387576013
Si 8.399461658999382 5.735115226094556 9.312555129172736
Si 7.989630272889397 9.84084220269159 9.338241938213743
Si 7.016904901997229 3.780911154205491 9.870510645553955
Si 7.627022594201223 7.670899167735441 10.36390509655194
Si 9.4187243116564 3.65026844621851 9.71870630459829
Si 3.870724722826055 4.686674870350391 10.491303363921844
Si 1.9207514873523672 6.089324884578029 10.638595569296097
Si 3.7071838400094617 7.585447960889836 10.655507541191616
Si 5.78157981190074 6.725285494397501 11.387593707606523
Si 5.766181654294224 4.369711887162004 11.87424068542101
