48
Energy = -225.4828897 eV
Si 7.9758577102768475 4.673870052743343 9.761367139976578
Si 10.665168572771222 11.039221062880198 12.763864775956407
Si 7.42007344835982 12.370867679288406 10.936718293172738
Si 5.924671235553619 10.065221768115713 5.539925798864623
Si 9.383926118137397 4.071176900310535 11.572524131883188
Si 9.155357315926777 11.786581924611943 5.438648733851773
Si 14.488531025999047 9.512979119135412 8.92910519257728
Si 12.84231757567061 10.939101929388528 9.875249307094657
Si 10.913335200044251 10.804124348902345 6.6412688972033775
Si 8.683986506336135 10.496287860015968 11.627185831231984
Si 7.262704801196493 4.078988128588823 7.514314611351853
Si 5.929714068353178 5.190803522402817 10.957821992635566
Si 14.118011337576938 5.322908560905148 9.124803530660659
Si 5.282405159845009 4.6231294892696155 8.749460233081283
Si 9.280572923035805 6.419781995968804 12.428443418237878
Si 7.070577937101299 2.838476652782599 12.073227527424367
Si 6.898646418575283 12.100645401923686 4.76367213262055
Si 3.142474245115544 8.082726603657798 9.401301918481836
Si 4.332927801629033 8.982724135322762 7.451278085234103
Si 7.2801226732932385 8.017682945338523 8.998941814155296
Si 8.957696404451791 6.844479674211752 10.090321633121903
Si 3.9320157125512654 6.373918225557998 7.960713932699401
Si 13.523397169855944 12.97225228000739 8.969049555788557
Si 8.76615456168467 12.933713818567082 3.3760246609290427
Si 12.712314725266843 11.632913822471583 5.378535154449955
Si 3.893962929399148 9.012672224639413 5.078970579765242
Si 7.672858243800536 11.775573693776547 8.632542365331453
Si 7.63909965269728 13.17034033785082 6.716016055492971
Si 13.235658338389532 7.467460316845758 8.756498472558533
Si 4.937550220222648 6.979885049304953 5.910311125946149
Si 8.890594881782897 2.839511388857158 13.652835701347488
Si 9.738495382062174 12.742201172956152 11.304960768218162
Si 11.029961452134973 12.939692598583463 9.203440856799645
Si 12.446179133401548 5.865371688482986 10.571011493720302
Si 9.336320401958007 14.213642075547066 5.404053041347316
Si 7.780706727824588 4.935169886318974 13.561737128491496
Si 12.046590209051615 14.789909877994328 8.274878285849237
Si 11.31858195797296 5.211879153315278 12.544106028349011
Si 6.568140496500989 9.855446497408341 7.779381262372519
Si 9.880643443905452 10.912798470442954 8.734252494186553
Si 11.144222459240705 2.823454679080164 12.713619922893843
Si 11.13249604329629 7.631208172805901 9.742514982343826
Si 10.885292473613056 9.821060267827397 10.610748046542643
Si 5.531858189652635 4.3377942412446835 13.12985139052467
Si 6.700151052537077 6.399233648697591 7.375074202863178
Si 5.316949830355498 7.282354043686566 10.03222478586963
Si 11.328245067067213 13.333260390330835 6.50884739004154
Si 13.628304485063019 11.091047196598549 7.4792799597666395
