48
Energy = -228.67579744 eV
Si 5.762933001745286 7.164255206777102 1.436986269954579
Si 5.9502680979458065 3.1162518698945996 2.8170080014563923
Si 6.737694232167862 5.378333546681683 2.7430899390653054
Si 8.934822365102614 4.711188396949961 3.3515118918441864
Si 3.758442369313933 7.154992461171882 2.7245139275301695
Si 6.382269633221088 8.521114990066339 3.3240601141656483
Si 6.6264561258102646 1.1466165577259895 4.021546857588975
Si 3.851288523860868 3.327920901273543 3.7869575951216095
Si 6.561246867512968 10.898081981849714 3.3348188947210513
Si 2.8290634694128176 9.074828828506144 3.83769037708788
Si 2.800061371157801 5.368357995401537 3.9462014727246633
Si 7.7862583874450335 3.075094273580888 4.663500670838799
Si 4.793285060291634 10.173454132574333 4.7456042693681315
Si 5.292336160290638 5.316623762660129 4.59571324738529
Si 7.826546189737658 7.999851666567785 5.0955902385402965
Si 4.890414886341508 2.020788854225277 5.5640189079203
Si 4.626997109867281 7.696879525483874 4.99975435585981
Si 1.5003710478566683 5.611637757946531 5.874740672864706
Si 10.411873530323108 11.295057022514175 5.687689195040719
Si 9.064646674178228 6.021716327466754 5.3407015026162785
Si 8.273440245130727 10.493995897852594 5.018055425858524
Si 10.201153040089828 8.933107828193004 5.460207047788373
Si 11.2581126466869 6.848728308994355 5.947756549429951
Si 2.2695465418052305 7.835691936506665 5.775295499847291
Si 2.840918113987816 0.9165914356771502 6.726723384656302
Si 10.051019989075462 7.7720873838752444 7.773380360818612
Si 8.113511222035731 4.294153554019275 6.674603200494425
Si 6.970770308024145 9.344566780085913 6.931855966921584
Si 5.541049893223336 4.074956664601153 6.566517828458209
Si 4.873295143353862 1.020837135373258 7.842405652400129
Si 9.176610295617541 10.265453020281168 7.493323143241322
Si 3.356550372413371 5.0500162702873945 7.345907866279268
Si 3.8387052203107843 8.272129640270961 7.387317993070575
Si 3.194105777299116 2.778308958952317 8.164039264188894
Si 7.527350608504288 7.692148434618062 8.53355798125053
Si 8.915576691339693 3.6793822102018923 8.8176692112193
Si 6.541334734724275 4.07111674423067 8.806431958844538
Si 4.867817301991291 10.401967550809404 7.133752919182151
Si 10.677578391461317 9.155244364925082 9.573867828227296
Si 5.01314327804371 2.4337783497020418 9.692414456597835
Si 3.5140017935999284 6.672055570026543 9.080766135684144
Si 9.37457113423797 11.187825713057602 9.699497319523562
Si 5.80377359168366 6.246417220234959 9.271829276367043
Si 9.18259716883762 5.99019490741587 9.303830676267268
Si 8.298659797280113 9.142062715153632 10.432424864458198
Si 7.470360663871328 6.766838932794777 10.931018655066266
Si 10.110909699897892 7.429226088239815 11.087708295613147
Si 8.34754893383901 8.149358026249097 12.627430538498617
