42
Energy = -197.01901395 eV
Si 10.335232445496143 9.612493773483104 9.154273634537125
Si 7.012944734306053 8.221840748401592 13.729020727947665
Si 11.030980874129396 12.841290631562654 7.8215443792141555
Si 12.104849968885496 7.864598245677986 6.8484857132821055
Si 7.558828909209648 8.1193136769984 6.8115572962131665
Si 11.287593605099005 8.172526897015315 3.751678486242055
Si 7.245592062768213 9.047238408597824 4.666208852138335
Si 5.393467054536072 10.591745354856815 4.606813108882361
Si 11.768306951159929 10.910395943263088 14.021724083828376
Si 9.853395592187706 13.81156385885527 5.9078450464811025
Si 9.8041246017842 10.492729158107181 12.607939081644448
Si 9.899494490329031 8.452094816501262 11.211523297287446
Si 6.006928933012278 9.22985212268521 8.173611754507636
Si 5.7997939937544025 6.307078189724033 11.832425412799168
Si 5.453567164310147 6.539116716025487 14.206153305593377
Si 12.872040762713514 6.559846185362002 13.575152346222737
Si 5.847416088726984 11.863939474169802 11.412034582842114
Si 12.590956504951151 10.560803849133956 9.552637585671985
Si 9.599592138266678 9.43074648841453 4.923040688977263
Si 12.397018488604061 7.821799567176469 11.601581880672843
Si 8.48529672315948 12.273620499314333 7.134278860572283
Si 13.282083036121936 9.231744721273289 4.879956892911681
Si 9.401092877889 11.849007557716945 9.222814657616698
Si 10.5579898429616 6.640762906474648 12.809679665927565
Si 8.225391345069331 11.6812382312424 11.269418836438346
Si 4.168891072748787 7.934379534965674 12.496580352369229
Si 12.296499309533079 10.512536977374618 6.697085502221002
Si 6.973689277947748 10.629346222065124 6.465573039291704
Si 9.34583239294232 8.512095448134673 13.838475290661943
Si 4.541826987301189 10.561975408162567 6.872804002230298
Si 12.193899122462724 10.166218696216164 11.895290226954916
Si 11.725321979741407 8.489052034895842 14.341164180842789
Si 13.340213620599958 12.174921496745153 8.01269836621735
Si 12.536654131685601 8.303737338735012 9.170105071382993
Si 6.815388619177028 9.934987978931588 10.286755311568244
Si 9.893218530611218 8.518239934937482 7.099578179842755
Si 10.509625267846229 11.569979416508398 5.487834054915631
Si 13.024351404361765 6.857752608335477 4.9143418077114145
Si 3.299192900868441 7.371788245146694 14.585716063705512
Si 7.550740517114793 7.965760741731221 11.396969611762298
Si 5.727989959856047 9.773852636600067 12.503418176242857
Si 11.746758107988459 10.468028031331842 3.489756138051022
