43
Energy = -204.6875329 eV
Si 5.500261071276825 6.944719780121098 0.9047493498782276
Si 6.230734592969473 3.563783683321425 2.1403116400291635
Si 4.550832749697662 5.162306340734141 2.2119026030004667
Si 7.186898849129985 5.728330312372266 2.126748542677407
Si 9.614724651469936 10.452438217096724 3.2192837064675355
Si 2.4356308285024273 4.786010054437796 3.2356905458233878
Si 9.451635917236624 5.961139439193571 2.8602354856799392
Si 9.862102753908113 8.115821785577426 3.74605679312175
Si 5.886029482236691 8.03152460295024 2.9613890400912775
Si 7.572774203537345 9.423613956007776 3.7777599400052146
Si 9.628566074955994 4.389135317433046 4.7572550112662455
Si 3.716330851416437 3.8676254178517415 5.0818966847805305
Si 5.878115764918083 3.2563895867914203 4.44550023650058
Si 9.201758333274906 11.362378593592043 5.553490378951987
Si 7.678606906402005 6.891761553255596 4.296478113726878
Si 7.588057537542625 4.086745769792217 5.8378857085376
Si 2.9717187810713748 6.335728576706484 4.912509860889897
Si 7.284511505686904 9.978872460305173 6.050207475860601
Si 10.772292244337297 7.7543116192934685 5.916958122099949
Si 4.857315155669974 7.695468572508818 5.0636935963675755
Si 5.595822331018988 5.483657028894041 5.631999697444021
Si 9.746474281777095 9.5669602168063 6.968678119799527
Si 2.1185114120924036 5.980702280047318 7.123345689918392
Si 8.194787557270349 7.5792231314022995 6.548656965285101
Si 10.093105228465078 5.663930364011284 6.6500712542025795
Si 5.735378154918263 8.508190849668845 7.145859540727359
Si 2.5299720492873696 3.62405291323157 7.190161818616196
Si 3.805484167154822 7.3679462518379335 8.486452688911369
Si 8.015714044817573 6.352119100966329 8.583625766242019
Si 4.460571696176609 5.148788547668687 7.694772170426201
Si 7.85135293126996 3.8970661041450407 8.16861808987013
Si 9.038730279847844 8.722879051065165 9.01923591097018
Si 1.444576667410097 7.373221961209661 8.888075279104914
Si 10.050435038964702 4.752754040188752 8.859869629390113
Si 6.710812153169432 8.627513283850815 9.321175236062993
Si 5.918437877166921 4.187876004974718 9.458210727452027
Si 3.583640113677715 3.480808552770537 9.307303048996268
Si 9.865570026190804 6.849277631430338 10.300664097117552
Si 2.6150496671568155 5.661587843068807 10.130620190747162
Si 7.53451115083454 6.757580927711255 10.966221240435981
Si 4.6609309256920115 6.609856195729991 10.811355864970606
Si 5.9383102226061055 8.55406301689855 11.498484928589985
Si 6.12292376779771 4.961839063082017 11.646539208966827
