44
Energy = -209.58529647 eV
Si 7.978402530277539 2.2930002103963814 8.22565144610494
Si 7.424083300173118 4.554146835309386 7.8643482150613515
Si 6.195795564569215 6.015152569186119 9.31230752575331
Si 4.580830996314467 4.352628254677448 9.73933391605733
Si 5.628955606132857 2.6335622636852425 8.447430329168942
Si 2.763156121752319 7.477829913046202 7.833959357408809
Si 2.8176715191726465 5.103773645052235 8.380572837249206
Si 7.334763334309022 8.300493541775094 6.716239135774654
Si 1.6496833813790592 3.429419204786694 7.27188666480347
Si 7.34279867254525 2.0314406808226537 5.925584842988131
Si 5.236440103149105 7.272488820787869 7.523546827742611
Si 8.126496863630894 6.071804563447543 6.213977239571298
Si 9.628974342132611 6.729591749432981 5.165038328938849
Si 4.34893266120315 1.1194111489606728 7.236067026271094
Si 0.5171444191093274 4.52370451752562 5.514239430772889
Si 5.104302899486259 4.889851598329887 7.306454307926609
Si 2.82765560566505 8.612868081235355 4.140118286791665
Si 5.081777219655587 2.4934750955790403 5.346045131883353
Si 1.927715497830603 1.0026535377462586 7.184707248426745
Si 1.7697479449562985 8.614661335308927 1.8115668057750567
Si 5.932873733922107 0.0352572272490732 5.687940719466623
Si 2.174989850311147 6.644968697153015 5.6392595250583035
Si 3.106382080807569 4.372457516943801 5.445800508335944
Si 2.685132332857799 1.6965208125178823 5.071350994402226
Si 4.26048765833743 8.970540526415729 1.9990662824079581
Si 1.3095611535956244 3.1003697783006885 3.809762867288126
Si 8.347303273208704 3.1471577981945953 4.068509800699778
Si 1.2641770180450786 6.7532460934291745 3.24276867645066
Si 7.110578979978797 5.1537507287651 4.104873605446376
Si 9.628974342132611 5.185742873208335 4.5271014964685765
Si 4.412956912954976 0.5726821254605539 3.8807909465743435
Si 4.73135987156939 7.218570956122734 3.7296114178221793
Si 6.910982886917039 7.588196452640216 4.506263980364902
Si 4.761884588512493 4.7563045095028595 3.2325474812066757
Si 5.50878533890939 2.265755647217354 2.6753182289723156
Si 3.3499220005931774 7.5208926420850535 0.058932343329236615
Si 2.4017598650130942 4.789548726342624 2.669305866743634
Si 8.637557908222798 6.7931924303521525 3.003331048159208
Si 7.786350502822444 2.134002156091201 2.037492011696003
Si 5.151796537072154 6.6799529584359 1.392123540295504
Si 7.26103692538694 5.626722785606898 1.4916856267819083
Si 3.366530239654126 5.110413774746748 0.5465910776501559
Si 5.253246393379182 3.6469303985897223 0.8042650958386245
Si 7.538836909655996 3.7534194339038245 0.18046168734501056
