42
Energy = -200.05436352 eV
Si 6.064058878047839 4.098944844782448 2.7411645784208245
Si 8.492171653860376 3.7864244898692085 2.6395881895875726
Si 7.835605846477815 10.711537914223262 3.2709509054204506
Si 9.080479741775349 5.523566510727776 4.261621570751122
Si 5.130332356290328 5.755264410563687 4.211826563147025
Si 5.157537288474561 2.1759323416538705 3.7210356255929744
Si 2.8934635805072495 6.441338169423251 4.197126253291815
Si 6.114216676295433 10.740003547409177 4.90499796128929
Si 7.182197849963227 6.743598415342001 5.014869904471469
Si 8.3845035057936 8.820290516811308 4.665283034334282
Si 10.423315380157458 7.451660932742955 4.825080855119815
Si 7.046598879771934 3.4166656153788293 4.854829341718519
Si 9.000257602497852 1.9946255476781698 4.380147800845728
Si 4.06827427490521 10.257280900574637 5.966075979763032
Si 6.8486087466667085 0.9415232876941508 4.906137008648787
Si 9.064575890150623 11.062399179401991 5.497161716389594
Si 3.639103096954203 7.889707566041413 5.981211258632237
Si 3.3063657180422794 2.0741821159905864 5.203730403106487
Si 3.2485342592335007 4.451948438738722 5.5113400029846265
Si 9.148218463662538 3.8512947101423403 5.901470817330926
Si 7.37493505089093 12.774888707123589 5.022851587501755
Si 4.8483117598970935 6.795232574848654 7.68952263635642
Si 9.831449311314822 7.026239293038326 7.090386118586523
Si 5.371934996934964 1.9933453839553636 6.455447330619584
Si 7.4047644978758775 6.308637635780544 7.391071845881505
Si 5.561000751717151 4.725829794797917 6.581024618866663
Si 9.48479891601777 4.8237475791358415 8.001832953855606
Si 7.848679993052834 9.244764479233067 6.9753237774791055
Si 3.110598039830233 5.014046799388593 7.812115676395557
Si 2.3835641337726106 7.280760309103977 7.9757654551812776
Si 9.52205575449878 11.008988124376126 7.866882228102201
Si 7.2634145150376845 11.736993116860644 7.2441084432690355
Si 5.689806319888044 9.935108123988634 7.670731457553695
Si 7.46482516559453 4.4754352495657415 9.168690404364177
Si 9.420953254860882 8.677526357573164 8.7379489979962
Si 5.594952123348895 3.1397709646107943 8.494705440096375
Si 4.038609478132187 7.732353165569222 9.698657518893063
Si 3.628720066544572 3.667204346554572 9.749430043417858
Si 7.311694126853867 7.640645404458172 9.481520379905394
Si 4.901328683996716 5.633532395922304 10.222833979357299
Si 5.73286858599217 9.38824458158247 9.980270619143216
Si 7.095208404349568 5.801409777273466 11.046122336260664
