49
Energy = -236.09622107 eV
Si 5.156130816563184 5.795601869855406 1.3929084550138713
Si 8.597970143254917 7.771753764265837 2.473247894077085
Si 6.595716721059563 8.742448928136033 3.232216911068624
Si 2.6067461988068357 8.281770418096588 3.768862548270887
Si 7.363993323574714 5.772728795896039 2.3072556251324743
Si 4.771675282681837 4.267682799610588 3.170375152355348
Si 4.661461102632594 7.306012516501871 3.1607746010652913
Si 6.356772275448853 2.4304712260340176 3.490211821867998
Si 8.275769218326364 3.9340030752187967 3.44035457440336
Si 2.7267765122020937 4.0771159679842315 4.474790011999746
Si 2.3031588911658094 6.40424515785656 5.231773522333218
Si 11.617446767023457 6.431361790381814 4.836835230501695
Si 7.025747739956033 10.276536741576523 4.905306604858659
Si 9.74965446750122 8.001633739895631 4.551409642563395
Si 3.7836420840358733 9.193921041206252 5.614522829914745
Si 4.667020586336756 5.619374313256075 5.230626777304005
Si 6.514176279106826 4.1490226340560765 5.232641625206511
Si 7.851395529644219 6.414265335636272 4.6208021379073845
Si 9.42836730732743 10.369923019090134 5.048628410748762
Si 9.721791031413277 3.241025789824532 6.808522104847934
Si 5.090385623071187 11.1854092166338 5.951214964891106
Si 5.836085502705666 1.7972316707870544 5.801653674896589
Si 6.064947649926205 7.7396302427698505 5.632641561396244
Si 9.820633785509488 4.836237296576513 5.030178701871598
Si 10.996002131888016 6.37537552461055 7.141597326131222
Si 8.705416701556421 5.489171265977784 7.336664908105237
Si 2.3604129687504685 9.200731307718401 7.5807726624357095
Si 6.2697314225310175 4.788867386533203 8.433728887204412
Si 4.113665930699534 3.3679289991038903 6.290333395442036
Si 8.164070752597057 8.937224929835164 6.671176587528152
Si 10.663018353121224 4.531652429488883 8.624068944030146
Si 3.794964036947174 7.190620131874352 7.096532264227364
Si 7.411480076117543 2.947102048475149 7.225560952534763
Si 1.3139566879737075 6.9683567988172985 7.4170857319582115
Si 9.92270466892296 10.544771076421274 7.511654391308917
Si 5.81702291651504 10.273263307633753 7.9997418306997305
Si 9.982481153054573 8.216116674762665 8.059067600099924
Si 3.9659494815470904 3.9791194404875023 8.535105218812843
Si 4.277191373188101 8.909749188243858 9.023024463088142
Si 6.127970959139948 7.352989455865572 8.165528381763025
Si 7.931799291183794 10.284525387029374 8.918937463157466
Si 8.59794641446878 4.919852766086813 9.794118981609225
Si 2.859609662040656 5.981225451704112 8.949867413783858
Si 7.403613781397888 2.825757145536582 9.635562532042186
Si 8.099363164480245 7.9526135604738935 9.499039609864246
Si 5.887885892597453 5.983395110493485 10.59654238425114
Si 3.9009485722749644 7.2640865095410625 10.698464895589336
Si 5.303266916502943 3.625057931760208 10.449267748007937
Si 8.04206185123001 6.551038820378038 11.438800041828108
