42
Energy = -200.39431105 eV
Si 5.9436998484759735 7.5568621404037035 2.0918410987544096
Si 3.8724622840156173 8.695595983299443 1.617295178595581
Si 7.036224239219141 5.373526659364182 2.332779588334912
Si 7.462278295107499 9.23682049132512 2.702906512297934
Si 9.06952534733081 5.908638521530606 3.5938445626737803
Si 4.919601085954609 10.117083908481526 3.3133374523648382
Si 6.859880522139434 11.446158733335697 3.385965516673807
Si 3.270053657142311 5.029292789598245 3.8578464065749163
Si 5.512858400997627 4.187687128821986 3.811310144838021
Si 8.86314155493956 8.228094894572658 4.293293566058294
Si 3.8489715313183925 7.277337907459805 3.5198492611654952
Si 6.8996287261753215 5.718373240110414 4.942769268759989
Si 10.082300260732653 9.914766118087528 5.325686418262596
Si 5.840290409192044 1.9598248741693893 4.701111072701046
Si 6.319906243814482 7.969301220484837 4.613613881033414
Si 9.012003341493594 4.762837534685858 5.722976325360124
Si 7.775585662410469 10.541009166477705 5.441210155532755
Si 4.034969137717514 8.953837316639065 5.165098285924113
Si 3.8188110020930837 5.176384186247882 6.137329870154286
Si 4.849513034367542 3.0808342048622284 6.5897828252861235
Si 7.590703539658906 2.8805263291409613 6.043257085152526
Si 6.741236795366786 4.050531179758868 8.00390382319933
Si 5.69984364963952 8.55638477663841 6.944786712623172
Si 3.134563647065926 8.810702641907456 7.405137835327866
Si 8.368155965611244 1.8165387623403781 8.094362831559527
Si 2.775378067285937 6.488757128736509 7.805866926802529
Si 8.176627815186398 6.691787552637487 7.4751482099220405
Si 10.163978372910387 5.286805786909146 7.8447189174385965
Si 9.29292076661996 8.735329561116457 7.212095275966351
Si 5.7196751694569725 6.22774080464386 7.357426922431992
Si 7.348978758059913 9.987907951205411 7.795244983807199
Si 4.7288539260770905 2.9867507401004807 8.952526063300157
Si 8.911449647940097 3.8232243616358708 9.266136663282142
Si 6.817703199551652 2.2817651225981406 9.817824410832976
Si 4.630256652980732 8.160824313307643 9.219762279582916
Si 10.145987393791064 7.442328245492877 9.037315723982031
Si 3.012985357683265 6.680953525189333 10.211000411737094
Si 4.844047587112385 5.3502363904996715 9.521484272626791
Si 7.863185561082433 7.433185282677816 9.82402368433217
Si 7.082392791802697 5.2777707233738385 10.392287414717076
Si 6.520834702921284 9.42376584463281 10.092408596939514
Si 8.138536047560736 3.4719159555017605 11.523433563092961
