42
Energy = -198.53370814 eV
Si 3.9337201786501494 6.036427282996921 3.2071570350475005
Si 3.3175182692131084 8.29866381076007 3.6198989866502713
Si 3.1961091921614617 3.8660890781674624 4.186845346066374
Si 2.733571544046975 3.6540975419935164 6.741376008922731
Si 5.457991151843759 4.864342119832137 9.857612517073342
Si 5.753537020681996 9.076928860739404 8.068117469263695
Si 9.542414064723477 7.985415152211798 3.4109907994624957
Si 8.606511908622481 5.761921825590955 3.26693324294823
Si 9.000867193683238 6.873329154639607 8.352162218959691
Si 5.5366863574850145 3.7986894097078436 4.604830382712204
Si 6.406794992532783 5.32284910234479 6.287916581479131
Si 6.594166537119764 10.600708384513338 4.559583550553922
Si 7.123257981658945 7.962640586132678 10.393626846120517
Si 4.886894121541011 10.448463332887695 6.2261094449008265
Si 6.0183665112002265 11.708580777799053 8.106732238748679
Si 4.196143991648519 5.392656220320201 7.811008497135453
Si 3.404396692986736 8.526968944088761 6.289055450959314
Si 7.903992919612725 4.795551155670276 9.581965058581515
Si 7.207580260116942 8.541614883691754 3.572505672526625
Si 9.554394124837126 4.487212037626562 5.406127282118126
Si 6.91543925319107 8.641694904604075 6.035586177857268
Si 7.560148994200146 10.076073407694473 9.299023106422563
Si 8.915609808785172 9.133283842010618 7.4095568612487295
Si 3.027644777090632 5.870808844824063 5.634484530807211
Si 9.035285277127011 6.577779975246428 10.73994615710156
Si 6.082168548148495 2.668292203798138 9.211493939574389
Si 10.569261223825608 8.311790650271773 5.667793400474508
Si 7.906251376220319 3.493968321540901 6.873165694975156
Si 6.62831184774316 1.5872299655820399 5.821665390807246
Si 6.447024847214509 6.655528079718363 8.385545858819707
Si 5.162898068846478 7.1067708332774755 5.08246754642696
Si 10.630240410092588 6.147067489169519 6.732079932898416
Si 6.334588930892815 6.431488495159604 2.913733156333978
Si 3.8858712234031767 7.670851912933193 8.54426343510991
Si 8.558079386437319 2.628985060470855 9.020612874116692
Si 5.139506238411124 3.153666184670689 7.0244082133483765
Si 1.503675643262102 7.636210701121311 5.1790853448966
Si 8.575066687215893 6.801347919337362 5.49973887373484
Si 9.681637908767504 3.616025202987584 3.1877481230589697
Si 7.623188175506691 2.929781114162418 4.197237420741804
Si 7.8617695575882145 11.151547185307123 6.563243131593151
Si 4.927710827247275 7.049185534683268 10.759572132112027
