42
Energy = -199.79809073 eV
Si 9.362286000673123 10.640559994874021 9.035830869656051
Si 4.420731387723202 8.253834243490132 6.928853452259102
Si 4.121366379487898 6.537537200091078 5.207204362560423
Si 7.664219259635211 4.395086652562755 9.379126011529166
Si 3.7318666610836835 2.320367445556604 5.858793029979372
Si 6.129406194072927 6.672242947650964 3.913552550476549
Si 4.462323157932977 7.551282814403409 9.215704398113358
Si 3.1110607327656807 10.284185715990755 6.634839746855872
Si 6.748487058734924 8.65002563746927 6.525482693977812
Si 6.245656787797657 2.509816039617827 8.267472861584656
Si 9.017626358124184 8.281337482483503 9.493613273777937
Si 10.152663106446811 8.07680956197964 5.362411214598515
Si 7.491309011369421 4.822454956491941 5.091462462603691
Si 5.882863944494738 5.754991713123905 10.225922355702295
Si 9.885507656068766 5.772523289568083 5.841588336945967
Si 8.369723093757598 2.500173389996368 5.376290420779932
Si 9.104751893472228 9.237807344893875 7.13951545377547
Si 6.009611932795232 3.0033947862126684 5.943982823286447
Si 8.26212386806262 2.0898442833838797 9.430638312804973
Si 6.39727431974244 9.285092970995882 4.265194456434973
Si 6.069478441962743 5.826621000535127 1.66679338791847
Si 3.9164013738232377 2.0039348018693417 8.278732782303496
Si 9.133159905330011 6.109442696859209 8.447652797403343
Si 6.145343626401357 8.220557170516814 1.8495241759700818
Si 2.504890233605897 6.967175911590742 3.4386112225330523
Si 4.321608067888148 10.500104057865473 4.477674345868994
Si 3.6238337605276736 4.323337547368035 8.77165509664921
Si 9.1467099420056 3.2519651414935073 7.490281571436175
Si 10.960940662913083 4.8015091626250115 7.679254057566759
Si 8.643256054561164 8.003454310877705 3.581775437773074
Si 3.5328367499537414 5.826954392921519 10.65612170240309
Si 3.6669671825294325 4.5826748488939355 6.483361496247493
Si 8.217504921955337 5.8191597451420325 2.7551432573190797
Si 9.576564603543442 4.254195251202697 3.9780337134712886
Si 5.895749526120016 4.919291662647946 7.669401267898826
Si 2.6006278275589203 8.626508529617245 5.126932159588118
Si 7.102648837900816 9.784071588802297 8.681161852331371
Si 7.479485545705196 6.436258266014258 6.799190928990663
Si 5.214862990180334 9.625043951361356 10.242708927646312
Si 7.791236913520943 9.89188822392997 2.438206265212791
Si 6.800736602136189 7.901490164089167 10.365579354953049
Si 4.084297425637186 8.684993102941682 2.9847251108146526
