46
Energy = -217.4699996 eV
Si 9.777985529050017 3.4352050955053373 4.377817911933297
Si 9.002751646004528 5.150367665629661 2.887095576386068
Si 7.8956390716550215 7.040063056828585 5.5564318051658175
Si 8.304898962415246 9.197627694338546 4.537414681022424
Si 8.685588135820495 7.410747147826133 2.8760248507618837
Si 7.638568186517273 2.112771928763717 8.6204444937829
Si 8.621415405879612 4.786644533471399 5.947140045195744
Si 7.050552835536989 0.22805640671009106 4.764773078575914
Si 7.55049440296508 2.5200230970506685 4.198048411853763
Si 7.8374404836593765 4.79506983519314 0.7212702526410388
Si 7.392260887094311 8.967627922222048 7.097485477451266
Si 6.623537691428173 6.854881393432788 7.845780820127959
Si 7.332192686010011 4.478061659364633 7.908911600945808
Si 6.658945535055771 5.972356042529534 2.7942707912805442
Si 3.867817903450229 1.1123244741641118 7.012167115321097
Si 6.106855988024136 8.413253617234979 3.983152220857726
Si 4.967240352743185 7.869164324924982 1.8926134660495217
Si 6.188846784806814 3.8924971938556543 5.738071634641173
Si 5.521008449627106 5.809451147567249 0.6832943359363526
Si 4.745420579198844 0.8097952938149645 4.5040789117552
Si 6.4207334808590835 1.6012701810760674 6.627185595833306
Si 5.638921884975701 6.162745622302173 5.113964387010661
Si 5.18545068171455 1.8481721721269255 8.853521906797367
Si 2.7452109173507018 7.473484301084873 2.7427809121498954
Si 3.634757319878256 5.552654796918246 3.875910277329901
Si 4.317073761075704 6.472772568462363 7.305329838746368
Si 5.162480856927646 8.691950565362292 6.140027085466872
Si 6.58358699002224 3.465209181083703 2.238290105398024
Si 4.739634141433761 4.034148895568189 7.8185713460631465
Si 2.7709107726241076 10.060654181634307 5.405091085374245
Si 4.047035089081536 3.178909854489025 4.727229066988505
Si 1.9837691731870966 7.839705126856347 5.009793678097031
Si 2.391342548795464 5.638200912898188 5.960814374151924
Si 4.287316822308025 4.068294506247805 2.050392691612455
Si 3.4887740472919293 1.8390704120895844 2.6900095901542573
Si 2.691220922078543 3.210248153952254 6.876011475325011
Si 3.0245354961525672 8.563935224399469 7.0645374797415
Si 1.5257661374066998 4.2993779084803325 3.4488438901067267
Si 0.9662989353789772 2.0703340366596024 2.3012515971658414
Si 0.4738840115500121 4.064677098092598 6.332761789277183
Si 0.9774391787103905 6.063685738245962 1.8266157924049888
Si 1.79602397653772 1.975604697757993 4.795831224933366
Si 0.08813870943128362 6.6674725235800185 5.762817078526771
Si 2.038316532077859 3.9117376435540745 1.05473607092756
Si 9.818620889789246 3.0325223167590907 4.116717348190313
Si 9.777985529050017 5.565287261708195 3.6353571847208808
