49
Energy = -235.25878951 eV
Si 5.779401580806598 8.058414300894356 1.4346859608731743
Si 4.543189278312505 8.311955297834695 3.467134251758059
Si 6.181361708528083 4.017776081081565 2.083682691516635
Si 9.828596323664371 8.607025751616874 3.158928406189836
Si 7.527047726357029 9.001788464110758 2.753784196929437
Si 10.745058601570959 6.3366063737178 3.1955565950063956
Si 7.538631898658756 3.548870008867264 3.96968041117895
Si 4.629003438877402 4.478680077312288 3.90074734814395
Si 6.9815428491157 10.967806042775747 3.9738338792947236
Si 3.1549959641104115 6.423771695464923 4.220208340349343
Si 9.51940665318754 4.664661506326946 4.605156692312403
Si 10.005845275270495 9.285110293629923 5.444317512030583
Si 6.444123108744573 6.242902713770774 2.838591102252464
Si 6.788053624999546 1.8059194366720872 5.38122404352972
Si 8.159427644447371 10.555353649306886 6.0194095907152185
Si 8.357229948263923 6.852945367445201 4.131327050123913
Si 4.444217782610521 2.512172432194395 5.304414251477508
Si 2.4969810090639624 6.774812712095661 6.507168333477807
Si 11.529578451594356 6.619429027324443 5.427596564127516
Si 4.677018099688635 10.554750206149265 4.587193720532622
Si 5.4480112319161105 6.541751633251473 5.127224166543616
Si 8.160762547689602 7.740989170490409 6.316228967442756
Si 6.368434137622215 8.868181820160963 5.107974051806242
Si 11.404872440082697 4.406465640516715 6.145728745994493
Si 8.881083398202534 5.2684861802030385 6.890074426069306
Si 4.4530473854214625 3.329958537157962 7.537920521051042
Si 11.780437649274548 8.502604990493573 6.809475027111942
Si 0.9720163319858516 8.358747747985218 7.385629286704127
Si 6.204864789134187 4.173731564663265 5.989213543244418
Si 5.206898458152611 10.040143018437924 6.880598917765335
Si 6.507111577027224 6.287740722067772 7.45614570815479
Si 7.120449049682741 2.5363673448965893 7.678926365545806
Si 7.156043621879773 10.72545926005289 8.1854154427906
Si 5.341120638003428 1.6890258252379176 9.025144694690892
Si 2.8899244942209523 5.030835885789398 8.06287325432794
Si 10.845288032344603 4.970555956868283 8.413876260009673
Si 3.297572684987409 8.952743993353673 7.687723222525834
Si 7.8344359013892735 8.408828848182695 8.662396324391695
Si 9.981905347549565 7.296144921920042 7.948813959308671
Si 1.7110220144969845 7.193591505913327 9.396929983640675
Si 8.87833045985929 3.6733123547221096 8.802920427690268
Si 4.410814917732373 6.9350547436252565 8.459657084867027
Si 5.611244062569017 3.6809662657947992 10.284380911958412
Si 7.257780449607885 5.137038209719811 9.637769764013543
Si 1.5668925139609566 4.881477284656218 10.069111542389415
Si 7.480542203754159 7.228405149591389 10.728020721735184
Si 3.3987934820295034 8.661319436681854 10.053398555385266
Si 3.8907596982719808 5.17992451508278 10.595389068140284
Si 5.108829513278643 7.179396033891288 10.756398112880639
