45
Energy = -216.70352056 eV
Si 6.870476477938042 7.083972161889457 10.66826273351737
Si 7.686430388980558 9.106464966007852 9.79690076920949
Si 10.191793116754173 4.074844969701785 5.287407169539022
Si 8.544527482426776 3.5486341513689763 3.739327917142908
Si 4.503088312839438 9.074197650551532 9.761635785672155
Si 7.026596655802598 1.8623903372812554 4.451640083158824
Si 3.0716160265439565 7.780557016392616 3.8125603584806615
Si 4.236638113608397 5.378810985896191 10.05311004280707
Si 9.65577383847244 7.036063720132299 7.455971373320243
Si 8.024006120052542 5.002259960635853 10.814141737365532
Si 2.8593769981825967 6.155218180336055 7.508331156187566
Si 8.740561572748584 7.274581265456527 1.5511255846199257
Si 5.4824561651414525 4.649805700499081 1.9224746381647622
Si 8.857134153776373 10.690929824142478 6.954207134915293
Si 5.13145237528761 11.210596273177607 5.326905313585055
Si 3.3161507360611147 3.5338838000660497 5.180875554366343
Si 9.707338709594342 9.174098517680358 8.569415385455052
Si 9.488792519755705 3.2037247539954805 7.376078563738531
Si 4.38619709502969 8.946394589312764 5.495901492943739
Si 5.623202153793216 2.0388064330691176 8.45433804817856
Si 7.719323405328941 5.272725840345989 2.423228956652387
Si 5.442413483015317 3.5873782025473293 4.061075148520306
Si 10.587413916808167 6.40300251639264 5.3611444986230286
Si 9.234812306563477 5.133044637207168 8.748969242491771
Si 6.733113784576967 8.274081743949983 2.4403967528379513
Si 6.699241101013957 10.049036629115575 3.9477078482737116
Si 3.9262330608011418 3.4653941392345424 7.507525546452557
Si 9.364569724060559 7.636329687054018 3.786648440642968
Si 4.614138271822379 7.306277474262137 11.424069908319979
Si 7.21705732800777 2.5576074257783086 6.735542456035094
Si 6.106925802734119 10.915675673254247 9.638590866328391
Si 6.119681898196844 3.9823951841187086 9.777561960626402
Si 8.780766142455816 9.664182569891928 4.8233141141005085
Si 3.727478856971167 8.348650896904163 7.72035595327642
Si 2.291812988365787 4.467820137929423 9.00664428668696
Si 6.474730833985553 10.651415571133667 7.262853239535634
Si 4.981270352667891 6.801325428569183 2.767713695284395
Si 2.6286577504333906 5.833399855792353 5.210546986598834
Si 6.072239429722303 7.790882148201221 8.38409819181605
Si 8.125534171317572 5.794612622784119 4.898280639328009
Si 4.931114830240968 5.384292832236936 5.698955682011312
Si 5.638827585791923 5.535954850909769 7.968329397205193
Si 7.8058394415772865 8.477062853194175 6.863199329829827
Si 6.221519093651318 7.45299993880292 4.8716453634480015
Si 7.642890469755483 4.8794309254512 6.982205695362072
