46
Energy = -215.30784538 eV
Si 8.494787602783143 4.909055491103363 11.790326930637537
Si 7.063984138067221 11.77560475249304 8.953647789877927
Si 9.263306704612704 6.299842607096982 9.266020002790304
Si 9.34473593005444 11.893670895949805 11.212377191673882
Si 7.660627923417469 4.7296166988181785 14.207812341154236
Si 7.147666969486235 7.0012230242243785 14.859374890395037
Si 10.228845120496066 7.966649443153044 11.821098645213846
Si 4.718211570927703 8.639673451867248 2.794711370129574
Si 11.457446595649847 6.381111978557737 10.4921307305812
Si 7.5901810985066716 8.695044484086267 4.665640743661018
Si 6.775503372964559 9.141475768601065 10.061469638277261
Si 11.761594806519396 5.479907092378934 4.425758369314861
Si 9.255279559837502 9.735424800991854 10.11347764348647
Si 11.095981073157674 10.22474231590667 11.725942082267972
Si 12.377966027876717 6.397768775896811 6.636671922170051
Si 5.065432999936626 8.361612749928375 5.175915247029504
Si 5.426193301035006 5.771367861750669 2.9052810724649616
Si 4.428604917033443 9.755655212781306 9.75377455908253
Si 7.771380095641694 5.229101556461531 2.604455681149918
Si 11.291628038236714 7.656596992956607 8.467216149039556
Si 3.247893787682285 10.434447135236416 11.772635035959485
Si 11.315894777522102 11.347848843947421 7.459790432299795
Si 8.938440411141096 6.748790816250822 13.324657171830292
Si 9.857842984608217 9.446081866296607 7.55245586981735
Si 4.797300950106878 11.628517720283527 8.237673009205869
Si 2.3598819588083386 8.855642692982823 10.37181980037366
Si 6.552132654117507 6.4025023806328525 4.897744457741418
Si 7.46257015566697 9.653901325714326 7.859224806823607
Si 6.448532137223813 3.843422190736989 12.38326664829177
Si 7.044565357107883 7.643696440367772 2.6042394839104355
Si 9.429981969275971 11.919182994802739 8.826310854918013
Si 9.632102575908547 7.844179079510583 5.603056511609177
Si 8.958437923749006 6.90490868488537 1.3506792314199807
Si 7.956864399698165 7.2971297314945875 11.024692658665643
Si 6.102985573064662 10.38901021155323 3.992652148974971
Si 4.6745376460359775 11.991253012619145 10.818582255039546
Si 6.303521449439973 6.242730161360262 12.739323094525707
Si 10.270497101597295 4.335791527929755 10.307165331005129
Si 10.201798783890844 6.95504747130881 3.403360752026012
Si 11.955794494648755 8.039296935189645 4.793541992727989
Si 6.9631389164221815 11.223343646424151 11.293380935628797
Si 8.919676474188766 4.111675082523458 8.295650358735166
Si 8.80341890139308 5.539172266018038 4.859252600946284
Si 11.724179360147007 9.85617485181555 9.37482908578968
Si 10.139154399802132 5.462048931972275 6.773264798850148
Si 5.644107831113129 10.289109777946967 6.367978830834168
