40
Energy = -191.47625801 eV
Si 4.719835208533277 7.047630596346878 6.014359146047099
Si 6.868784854165878 6.248028529469143 5.575692703234664
Si 6.191582126141963 8.522626325201193 9.62572878555235
Si 8.854696351981067 5.486613376713897 9.4625621544238
Si 5.2532379408985905 6.767454233776415 8.312960202057017
Si 8.401966157626127 7.908419102691491 6.180278002642755
Si 7.132949846621316 4.7592311478565605 7.945253760144638
Si 7.285320399762884 3.9407694936844426 5.66247553673125
Si 7.918579945951372 7.397511176234978 8.443330736131552
Si 5.124212978717729 4.599163472651461 9.226104111676817
Si 7.267790892688018 9.927918022834193 5.837299003058912
Si 3.5263717243695822 10.711877232628485 7.262945395142495
Si 6.1298323375586685 10.888839013246198 3.940171340816966
Si 5.860610803411393 10.08167178931803 7.861102050174862
Si 5.856278867728889 12.873165148229432 5.306329335901453
Si 7.504166418034002 12.062007199616184 6.879103540073858
Si 3.612571580014623 13.136431256840432 6.2969241772555264
Si 3.875124460272948 11.26471754172045 4.6986335729178155
Si 5.365927622915534 12.437101630737722 7.853715784615043
Si 4.880956369805038 9.363378285898008 5.712578123895776
Si 10.456307753524058 6.842470300940018 5.789776864619542
Si 11.076526772742213 3.0570963273669474 7.065813444989435
Si 11.246947095106467 5.734220103958627 3.8184347331870763
Si 10.502311689073755 5.369550956732788 7.7540308929876645
Si 13.24743870977844 5.458266723165248 5.195778172139123
Si 12.558279155756045 7.036576607780439 6.899364449488251
Si 13.533170205659406 3.159665312972087 6.06089884756954
Si 11.604919910433988 3.5132150582502004 4.5907169300488055
Si 12.848735796623199 4.826344066732661 7.703839898630903
Si 9.65289398487371 4.503267500278238 5.614787187528412
Si 3.0429213967594064 5.419629885284378 5.643422809579209
Si 3.276856656495505 1.7010251866287904 6.6090852442862955
Si 1.3696460332660638 4.746017862001996 4.14108846740158
Si 3.628153210071678 3.9528024318494346 7.482845303417626
Si 0.29103311319919434 3.777803726854346 6.022928838864933
Si 1.459127536345792 5.295568015882118 7.531214184163566
Si 0.7419926607228959 1.3842241391645222 6.237421516291314
Si 2.04955794187268 2.5152953590935825 4.538507422370433
Si 1.4962122034886163 2.933988779919261 8.096338537371647
Si 4.2861712870142785 3.348417079453896 5.1061587925751635
