50
Energy = -236.70906921 eV
Si 2.5220492930941885 4.9967492139011105 7.744807039644918
Si 1.0020506489710488 3.0086797313200573 5.371774813363203
Si 3.3909644991388683 2.7082848136037634 5.837106977087641
Si 3.112981829672395 7.055043380842216 5.290264487830456
Si 2.461917654707849 4.552696896009578 1.2120692614517274
Si 0.9692896568294374 5.890980767775176 3.031828441633387
Si 2.697543507088907 2.9004620231380964 9.170939410168877
Si 4.6230132620299775 1.8372667130603575 4.032959463943625
Si 4.685336366674815 2.529363841561083 7.875165216374313
Si 4.203917521232149 3.183475449713156 0.40954216129254345
Si 2.5175820652460827 6.880517412170912 9.375736083592722
Si 3.523215120516483 6.567298372259038 1.9837841250669241
Si 6.088896583220487 6.065679438357607 7.610631078543784
Si 3.3285435994236034 8.022062787388524 7.426269805762969
Si 8.38184230935671 0.22613896715990614 3.20082244155775
Si 7.41819714822777 1.969660302893015 1.8149355925873596
Si 6.259815083501123 3.273605687484003 5.284507770370114
Si 5.555346262093382 3.539259697801934 2.398758236875537
Si 3.7649095291013137 9.01366319506736 1.8641514434910482
Si 2.7040309499774327 4.221307517329746 3.9575582004746197
Si 7.65303693492423 8.75461271469465 3.740333414038824
Si 10.000695185508905 7.665577363270568 4.5853162820282565
Si 8.32054960596589 2.45867620616363 4.10858630819991
Si 3.1120773627623324 2.183065695536722 2.2468262132954036
Si 7.9334621796736124 4.206593375970703 2.2981276393463568
Si 0.09961558301370044 4.416515743697819 1.3615554656312816
Si 7.074636595799714 6.442738668000969 4.409734248548859
Si 6.6081522149155045 0.6682659457128949 4.6639522128767785
Si 7.891836232477516 4.850815658719916 6.231183078679055
Si 9.343909635983964 6.740398723080637 6.740728302472133
Si 0.9274986562254235 2.7212334866549344 2.9664769787776115
Si 4.917390509246316 5.567450184893288 3.7480696117509447
Si 5.9129210238264625 7.461524479313503 2.2452136621138647
Si 6.588388423136948 1.485273171345734 6.907824069079125
Si 9.244040898727675 5.362557763242338 4.004733882363253
Si 9.901493247347467 3.5417716574141016 5.553936399160897
Si 5.128906994377561 9.554338961564346 7.537563958510702
Si 6.259099500454235 8.369925792446347 5.790580488145048
Si 4.398392043092737 5.060456834948226 6.190531934994062
Si 2.0209385753406335 8.032416419076087 3.3133535493318935
Si 4.640523043451165 8.672336709935408 4.044970944441574
Si 8.633192380760198 9.187229002589865 6.046302429832785
Si 8.569713123667096 2.6847032330457945 7.663421059638183
Si 6.648835008338084 3.866156361923781 8.547423324220382
Si 4.926763385322844 7.454260105381723 9.244332491305766
Si 1.1601797478562346 5.495976026282545 5.3875432083210315
Si 6.203546820605326 5.466015787419182 10.188083296177105
Si 7.5915803071643815 7.99625444127318 7.891166379250269
Si 6.402400678268637 9.332965914682479 9.553915711552502
Si 4.017662870557385 4.746222012347469 9.687897475987425
