5
Energy = -20.3720158 eV
Si 2.5795310535543425 3.179579336845793 4.395374607576833
Si 1.9342392963846475 4.391898324001321 2.531658519115507
Si 4.149353014282101 5.021528957314097 2.922782578412603
Si 3.6973405388243696 1.168213866343485 4.137665219521766
Si 4.172872863828022 2.7531380706893196 2.549035089463556
