51
Energy = -244.45352038 eV
Si 6.323437704094703 4.617649962356681 8.583501954501692
Si 2.055425424064566 5.706579623600486 3.5443744439519027
Si 8.013936488088795 10.743509349292086 5.136607023806683
Si 7.6624426476576595 6.078748046104553 0.9994069974507515
Si 9.434806129982269 7.713892485418242 4.486066209895399
Si 2.9987295113198127 5.425330744791582 6.989239366742847
Si 1.5981468512717294 4.226542610777805 5.435318680963706
Si 9.949898191605998 5.917189067089828 7.570352853602458
Si 5.333134522000263 7.516607914703839 8.166045882639402
Si 7.82842733223027 3.08028731579803 9.973518475976565
Si 5.0887529336210395 9.660932413226234 5.462964451840398
Si 7.863387587943695 8.539094157361765 6.152947830629136
Si 3.3034530191121823 2.741931739584674 4.595814798792168
Si 5.992409880414967 3.857402093575578 5.481341796543842
Si 9.766002239676872 9.081925475986347 7.589269146092603
Si 3.9106404844120264 3.916863537945283 8.61699737522783
Si 8.33241122548795 2.9844434592618123 5.813400304957484
Si 3.4927239629595244 9.267312124608129 9.135644132391937
Si 3.009335328390871 7.791360119108612 3.967121312890116
Si 4.341276090137061 8.279490804824855 2.0489556928333164
Si 9.683788770148519 3.8707403863389644 4.112279038441814
Si 6.0284009784034955 11.424451268286568 4.07720662414263
Si 6.778420842385148 1.4068081182206467 4.981508780887062
Si 6.309647774227022 9.538773896140496 2.6899880748682783
Si 6.74483527532489 8.82754470455702 9.878660937924204
Si 2.6724939390597733 9.43234833837733 5.594995349592967
Si 4.784334039419598 1.95561738429893 6.238229994730377
Si 5.630398445855022 7.564137778092229 4.194348681306585
Si 7.737988600418619 7.665056698541363 2.8034294198318106
Si 3.126461626638526 7.799427479883586 7.269739066074431
Si 10.213092094432378 9.81223360431171 5.302191025355017
Si 8.679941423731433 3.9232840310409474 7.9186993312113065
Si 5.668811070327826 9.87764393197755 7.915599591938662
Si 4.764005763776746 7.790845385155309 10.525810665224961
Si 4.183020225845427 5.643124228388827 4.923769150903282
Si 7.780092931215828 4.523676744158761 2.7996967194614784
Si 5.101402058785958 5.509040648042908 10.744139707237489
Si 3.983780641628006 2.3042447666099806 2.321987581819545
Si 7.96221382763897 5.4856458586523615 5.087600000122111
Si 7.417068722204988 5.3406076188989875 10.719439570450415
Si 6.186620154315296 2.8293261566545964 3.2090384170107744
Si 7.4792142624600535 6.373174420507028 7.344974820651981
Si 5.53322439556413 6.239854550214909 1.9902988685282688
Si 5.533548674468049 2.4277070792690325 9.75866143903156
Si 3.880612850008588 1.482674158999461 8.327354211293434
Si 7.972705996838857 10.651811469776353 7.4725761424228025
Si 8.398620091828983 7.158923884477882 9.501597517678265
Si 10.545637944646282 5.796071531691352 5.254411604959624
Si 10.742231286931998 7.5309332071008654 9.176700552246057
Si 3.7884839145911497 3.6150841009583194 11.013503912255
Si 3.9462478263471548 4.608217528900487 2.658785669331448
