54
Energy = -257.80321077 eV
Si 2.12021981781552 4.1326301561272 1.6960919633050378
Si 7.221138067220037 9.44450615499337 1.3412372443417828
Si 7.152385990049273 7.088371928392167 1.7966371549120954
Si 5.319043195038299 8.785922486040032 2.7247968488749357
Si 2.935334637442879 8.37854100042102 2.5371090341590614
Si 3.2359056183975907 6.050820681470104 2.3111161301074232
Si 3.7643573700716506 2.767395631508618 2.782993375491127
Si 5.911043622745785 3.64561878094962 3.6405057299482806
Si 8.475946997112198 5.893330163328649 3.389117272869006
Si 5.443048557559296 5.895924474203247 3.0356890615506393
Si 8.29905931545064 3.3585998256758063 3.261166231048317
Si 1.8746567453625567 3.847457483252881 4.120419192485218
Si 9.867635623228304 7.453530279164005 4.491179012801196
Si 8.148660153148528 8.778545723338866 3.4811371223664493
Si 2.682785377564585 1.623400825186319 4.561447130194596
Si 6.280586640345775 8.693491604753914 4.844373716383987
Si 11.876316237977964 8.424301958226632 5.297794176967483
Si 11.273268863082357 3.9317637558716316 6.202000839989294
Si 2.714449574708476 5.519308945450298 5.664366139846314
Si 2.841632457689922 7.757192563808334 4.815393109319658
Si 7.261581899974604 5.137571828568114 5.2419663163873995
Si 5.045825586583373 6.7456462416951 5.220982209579499
Si 8.994499146628877 3.500357886772976 5.565732845013464
Si 8.228023100538095 11.003382122879177 6.67347867082811
Si 11.571094226149768 6.305040790020961 6.4761183732369805
Si 5.995107345834201 9.738773600795465 6.907273826513973
Si 4.217377979154507 3.2779661609302773 5.352060870891026
Si 3.246663367648654 9.166820790565074 6.662265732510805
Si 4.200338111169377 11.311853555278212 6.907735364402637
Si 5.6661738196736815 5.597957012206005 7.244972340025488
Si 9.685293657544817 11.00182813641552 8.729818915228911
Si 9.848557225015993 9.269694775384256 6.537227239463213
Si 8.242255226365275 3.0058293556078617 7.730923369048387
Si 5.381448311269316 7.816266129091465 8.307551108980839
Si 4.927023501469111 3.3282316338640725 7.630093054201569
Si 9.246142662118235 6.916197666415355 6.888440124957597
Si 1.7877494436718087 5.709436912597814 7.873018292624563
Si 10.2843364808 3.8762261328469516 8.334858984468314
Si 7.870107694757927 5.448046459854829 8.158746095489654
Si 7.397620070450494 10.217423719711064 8.95656340115606
Si 3.6627727873547906 4.800643500229084 8.850312574308061
Si 6.4619473470830116 2.00747608639679 8.897337533188114
Si 2.835399718913885 7.780592841672634 8.417229252299318
Si 11.207717577620166 6.573306673710695 8.757323348804555
Si 4.977798778373637 10.65533980452315 9.080115385704621
Si 9.984937490730044 8.5471029379241 8.837727769263788
Si 4.04525500414153 8.758358522747388 10.188562032774984
Si 7.796021782431663 7.983138291160256 9.636774919800288
Si 6.548377902198151 4.010894113916262 10.170679184419459
Si 10.673027567428955 4.948559003147415 10.365362818238859
Si 8.334527772408913 5.506692190056007 10.613415759991275
Si 5.610291516862497 7.1264222643989354 10.89392471982909
Si 4.620668415702671 5.0177235061706185 10.959855602924735
Si 7.708659709283745 7.440642019646489 11.93907856584589
