50
Energy = -229.4070334 eV
Si 8.445882003320285 5.581571749571542 7.99339000807488
Si 6.220071918854212 9.294939865149798 13.903448777829427
Si 9.052348801053554 8.071881195249379 10.612945912023239
Si 12.194130302428931 9.322999317482553 11.874998301281117
Si 10.276220979449468 5.807892530112374 9.66442160023771
Si 8.909846446214303 3.848436508677009 9.694869060754964
Si 9.390271228952377 7.674157757564081 7.293124863147521
Si 7.635985456160305 6.138608154978369 10.277937961553658
Si 13.210602191358872 12.434597548603557 14.604050982207752
Si 7.015742922226845 13.039616955967249 8.162029015989408
Si 4.486825255366143 7.847288328539137 8.869995665765032
Si 8.416167002403617 10.144677280587556 14.069679153648725
Si 7.597548635748349 9.542150517970056 11.8662246495373
Si 14.166286060435556 9.44534921042181 8.100458538836458
Si 9.960244215037164 9.322202343372082 8.858668617971382
Si 5.590317899626501 11.129375231590554 7.5621206667966705
Si 7.686394024179918 11.453186741570157 5.595059077886028
Si 14.070246830206306 6.978660254512804 7.961296727219953
Si 12.372803023119891 6.890586175772999 9.669072951723441
Si 5.6182676905252595 8.12418770419569 11.95747545244998
Si 2.4801930262741476 8.863217848812393 7.02194697512486
Si 6.244495013929483 13.37367674629882 10.413159130161317
Si 12.866863496402111 6.975800017290909 12.041755608195137
Si 15.33956524541581 15.9225200610055 10.127927539931706
Si 12.194254212530158 9.277782864452421 9.503206489433232
Si 14.77040543380145 14.12702946933232 14.116038936322214
Si 8.924794308018614 9.727614719634847 4.583688109471839
Si 6.870095182393104 11.105106533740482 10.084874845489741
Si 3.7325852327129723 8.52861756407773 5.034929429371732
Si 10.022764457194778 8.856493022570609 12.804851625622824
Si 13.41121227060879 14.868616949200554 10.771241491662023
Si 2.2157077052941236 7.08030753057549 8.51963541561449
Si 15.52528362791578 5.44027930811415 6.913423447709499
Si 10.516793268180912 8.765869858957513 3.2783527855993446
Si 10.793941091126115 8.06048170928659 5.4527798993168455
Si 7.62249057190351 9.035956794527698 6.482269925793132
Si 4.532215366582454 11.8273543954414 9.59593769643761
Si 15.627819750800546 14.462872233049826 11.862773643316046
Si 4.695339227611453 9.666432557213088 10.396212562272105
Si 8.277913988884555 10.833779439291638 8.054867296963973
Si 9.060639367049886 12.882178823052033 6.992700357872321
Si 13.64344758527604 10.865677075936699 12.907069760024742
Si 9.020956433142969 4.837542175341747 11.876595339767633
Si 13.696885294254667 13.03213663956775 12.213621564019382
Si 14.280925461848721 6.764808440007488 5.535945247940345
Si 5.2889287877561895 8.873336671076194 6.785298932279835
Si 5.27308819928991 6.254786705939184 10.550078426043664
Si 12.957961085151096 8.485788933192968 6.308909145494717
Si 10.549687655221875 6.654354799763291 12.121512741723162
Si 3.6804092605628353 6.735614470909311 6.649542973125586
