53
Energy = -252.51906198 eV
Si 3.998015851247386 1.733272353333216 1.1424501290576123
Si 5.511864297660033 3.772379376388123 1.5190485112217869
Si 7.767825767677427 4.44276220363143 1.0834677274641713
Si 6.80615652554898 6.607515571856308 1.7324651296511413
Si 7.846944040789977 3.9057319227479135 3.4876105181374637
Si 7.34029108723755 1.5139218319671246 3.813570761756217
Si 3.3983510935442762 4.16094220016363 0.6362174053711254
Si 4.4981205575345555 7.2657317924861236 1.1552163156632496
Si 2.2923321303052986 2.6959286296187788 2.5675619663074545
Si 10.119905326267618 7.447173679045316 4.306758164726464
Si 8.251965718762285 0.8886893486805973 6.075627777506451
Si 0.9751195180304317 4.801986304497655 2.086596244089348
Si 7.240344486349344 9.023137222269073 2.0222931948863927
Si 5.012987398550863 2.015434069921769 3.3591095519812986
Si 9.730587339467338 4.8515525956508 4.719252993303566
Si 5.530325434056521 4.310571509239438 3.9177395034232116
Si 0.5090311792868959 5.19080439628741 4.389926720336923
Si 4.9673254859935065 9.042764443062977 2.7233277853941327
Si 4.688711676993331 6.527736532583458 3.5015681050722605
Si 8.37039200863322 3.3081512723654156 6.453419880948927
Si 5.9234414498169725 1.8462643500234852 5.951487826857443
Si 9.292016081331651 6.675958617576682 6.439197830174037
Si 1.4805569806344612 1.1414300403480147 4.357072786525437
Si 2.4821973082840376 6.714239347460076 2.365565786451986
Si 2.8753752287774175 4.650308747123592 3.760208393800768
Si 7.866688801886573 6.519850414787754 3.9588716323636137
Si 3.3160401760109166 10.116902262344368 4.052784744955446
Si 3.3982400017797247 1.9166873582407742 5.612254278562285
Si 6.037016658767604 4.231289766062 6.340058096442951
Si 0.6666487806521659 7.1143997399834555 5.77918155085663
Si 2.174879323909853 1.1156883223022651 7.684448590573309
Si 6.202114531627287 8.16366449452508 4.737634508872798
Si 10.378659699928306 4.647748945993179 7.110628835934254
Si 6.701191998054272 0.7432863869229274 8.10962763690489
Si 0.8067893026916324 3.140852950198745 5.438963371980866
Si 3.3770447281019105 4.265015683300066 6.1148424793213705
Si 2.614635537883457 7.8765046247939265 4.550993975804735
Si 7.122140694185306 3.072722659745308 8.57778808531738
Si 8.408063228699959 9.07416056251961 4.200939782954504
Si 4.432458807724704 1.690697254082497 8.06221133827338
Si 1.9307750218500606 5.797317421412087 7.356600009623397
Si 4.908089314164063 4.006478701697594 8.488751504975735
Si 6.878019223934672 6.438834080877921 6.609855281753172
Si 4.4536082747627574 7.312199167659354 6.236223645309299
Si 1.4642985295003215 3.4788285351991814 7.653958572548264
Si 8.718820662452876 4.764359805567212 8.941930726093904
Si 4.814159281255137 9.773300410467868 5.9003251119651114
Si 4.902511311987066 5.75849674508949 10.115161259807518
Si 3.6895854648917203 6.916353592546685 8.48961625940272
Si 7.253698209834379 10.089143389474852 6.176568347457425
Si 6.988579306772885 6.402325775569529 9.05336931493031
Si 6.723100106065575 8.511289329247411 7.9605211707706385
Si 4.453788992920355 9.166305388224425 8.185019920529616
