54
Energy = -258.46725607 eV
Si 4.8411679077038885 6.666448141956248 1.653930493161736
Si 7.984107836297286 1.8483972534710862 3.225633266419889
Si 5.012215816302701 10.637811300166591 2.8717100696894344
Si 6.009503493292148 8.429860216315904 2.6967693196591043
Si 8.350529738173687 7.830386635899247 2.4385072708194895
Si 8.125372664669865 3.9564045612770755 1.9736881254265737
Si 6.1222708888322055 5.033872966060759 2.814762457291406
Si 5.829571195460065 2.8398394605147472 3.6519612664275054
Si 3.2902573896900065 6.928846145126078 3.3893590960352284
Si 8.859008072415126 5.654817226845683 3.376416103093243
Si 1.310958817556676 8.210402829552807 3.4140401920922345
Si 3.242334476163747 9.514738810627003 4.066495225070232
Si 10.705400179038037 5.604371477359182 5.07957479055108
Si 6.631736487566109 6.011729219865922 4.9554483539775225
Si 9.348099880462314 9.004737488427153 4.182623052555045
Si 7.873819685906402 2.992389011999114 5.259827351791678
Si 5.969990334597311 10.697483376404675 5.091962484211817
Si 7.0732045253089195 8.36651611652152 4.915991493782424
Si 8.529032376730195 5.24542028081972 6.152566094953047
Si 3.093343289710793 5.303811010034204 5.102277079553767
Si 3.2886032693878464 10.134667014846057 6.336101807086459
Si 5.34590041859919 2.4707889244255807 5.980547445677483
Si 1.3600477429397682 7.195525009874869 5.610766899664136
Si 8.291199782200097 10.629256691495279 5.449945728211703
Si 10.322845376044908 7.788173734914665 5.896707006959166
Si 4.927564338108878 11.655160935597278 7.024396258899209
Si 5.036872968309396 4.884475671078474 6.401910031997822
Si 4.106293455236725 7.7659214558599965 5.76470882400195
Si 8.343447188721198 7.410086264954849 7.69850130508372
Si 2.303045329469835 8.335302981418614 7.388790556323951
Si 9.334532355169403 9.814320314420083 7.44438810045918
Si 11.546509923457474 8.876904656473123 7.575027043350654
Si 1.0393369171926643 4.90622031345265 6.175667922399247
Si 6.034614246147973 8.019073271700213 7.234411343793434
Si 10.69969744948 4.934520260731986 7.438881482317636
Si 8.528918934618744 3.2729835316254006 7.680873074085146
Si 7.193986321270804 1.2765071305548286 6.952252276467567
Si 10.555322920971994 6.939786133811708 8.719676685702902
Si 2.794448932310315 5.0272490399544525 7.843288793773063
Si 6.34371904979745 2.766873961339927 8.757748789147511
Si 7.976633843258044 9.684690811189414 9.282217931986388
Si 4.051573051441257 2.9086507804025157 7.984655798042201
Si 5.731398525064183 9.964711392744237 8.532545097109526
Si 5.110617893498101 6.060713465874999 8.477303224825997
Si 7.411332211843559 5.153562772108543 8.92085884105888
Si 10.612956754437258 2.888849036893558 8.710558524468405
Si 2.747500438239091 6.992077403218598 9.301205405561847
Si 4.824343595011515 8.174559977963913 9.748323305233864
Si 9.365768699961592 4.48129321574367 10.122432127609034
Si 8.291368460472947 7.5774895309666155 10.306636031915914
Si 10.2977704763474 6.498020391431427 11.055701506008674
Si 7.22599997027982 3.4099830365791877 10.872234491196373
Si 5.58010032828408 5.100186581734283 10.626826747152252
Si 6.203348410105145 7.252675408929768 11.39991063942022
