54
Energy = -260.03889825 eV
Si 8.404955902402158 4.393323342128815 1.677077778329006
Si 5.957188039307342 8.814467002761914 1.9983749060788476
Si 8.37050876548739 8.822096145881535 1.9413824464413916
Si 4.87329072796215 6.761451682982217 1.2651482688730322
Si 6.206330579972543 4.986060740407363 2.2907755724813477
Si 8.74009107070733 6.570125478489465 2.5074279531761876
Si 4.895498395119615 3.020700688971872 2.9168134636926344
Si 8.851649875344783 3.8774218229111943 3.9811248303908493
Si 6.290008264346152 7.095276175629682 3.609993360548715
Si 10.184523029533244 6.448193191295832 4.3444119732434485
Si 5.366370223034905 10.021679219501657 3.9166081670617574
Si 7.896381725886746 2.4234282321823755 5.639857450793389
Si 3.1743692052235204 6.534704185571911 2.87680016207723
Si 8.391482889327412 9.4684482337202 4.269071221968617
Si 6.374361464588601 4.362427943216447 4.743780021842517
Si 5.575499378833179 2.0499078819552263 5.104882439864556
Si 11.090349310750172 4.308960649215093 4.634858149191642
Si 3.31054130092083 4.459544146619037 3.919385967063901
Si 7.1143160104994365 11.456815955981078 4.710640271397079
Si 2.354449462838317 7.907359456675238 4.599002556537526
Si 3.151453070268123 10.210083197864506 4.769206661818706
Si 10.17230337393715 8.480262949024526 5.478674810957972
Si 4.405525413228398 6.493442640462925 5.074080537707795
Si 8.00659478727842 7.228941030190731 5.233608394907152
Si 10.380526358544675 4.317548136723869 6.882410217068936
Si 5.623514380550009 5.369632353412087 6.85945788299293
Si 1.9370736399257613 3.939657536399933 5.742943901357102
Si 2.2686921280861574 6.256036128016278 6.308948359540615
Si 3.753482535575078 10.842811249114742 7.061319956411824
Si 4.703496977767476 8.70622169141085 6.090667027241741
Si 4.039407871684086 3.2546723112536413 6.560941712783151
Si 6.145086281676503 10.504245468609698 6.671858614577289
Si 7.875594044847022 4.219229599945068 7.2862610705565665
Si 9.438490125133509 2.200596513099579 7.6446700138833386
Si 7.080469761935071 7.190738574722669 7.430687626801507
Si 1.658185527264533 7.277161013836869 8.338040868682546
Si 9.131546541246273 6.157578955815756 8.128471894957062
Si 10.58398509894524 8.019377112367021 7.7647912944798785
Si 11.595719172317066 5.783265292628497 8.449525307811378
Si 3.558674257777863 8.704904468750227 8.195084355527966
Si 4.468280914993923 4.099367922210736 8.682722327213963
Si 7.157287471416874 9.335758462732398 8.486036390279711
Si 3.3445821696855504 6.057366420124792 9.341515668918674
Si 8.554093885466177 3.4452615248816323 9.47998013111759
Si 6.4071972531203265 4.099043622121283 10.018754535771114
Si 6.470426609694801 6.465818450012472 9.910533022508504
Si 5.292493460670603 8.683979527342238 9.827192556925551
Si 9.339099526310687 9.239849344247475 9.441219870898234
Si 9.981273922010603 5.29663685764898 10.255361912894445
Si 8.71262956517738 7.293561282148797 10.673270333426538
Si 4.350586861122838 6.677184847462353 11.374337663427681
Si 5.959924642537953 5.180937122317232 12.1388388881063
Si 7.010862545119271 7.332211224883137 12.256307870260105
Si 5.019274202598155 8.854224992118057 12.194861357131144
