52
Energy = -249.19485716 eV
Si 7.483766174455761 7.831223626659276 2.8778153578244914
Si 5.065373987877693 10.49841403061274 2.940730439886464
Si 7.229810735310143 8.20130072227155 0.5361048360381029
Si 7.98070862896174 4.634632279674341 1.7422284851294019
Si 6.3069298997337215 6.033246616514234 4.168526887393197
Si 4.641321909435844 8.206512413744688 3.929634382051901
Si 6.737581230438161 5.913553852681347 0.30744676794203774
Si 6.9046151398111135 9.586767971115023 4.3995334543951845
Si 1.4916783522187311 9.13716348365495 1.6305347704872137
Si 2.841189188987092 9.870295173840717 3.5248220097329006
Si 8.263189309135745 4.295085914865796 7.4343843670630765
Si 3.4604363493652133 5.063607542779584 5.160715437994066
Si 2.645876708527384 5.590490469930507 10.26713841740719
Si 1.364834398450337 7.37433773272608 3.171328614356181
Si 3.354045745246326 6.824353708747772 6.784224625842408
Si 7.06593426854471 2.1776190226294068 4.077509139540896
Si 4.845360602023224 4.682267695475104 10.595042256967892
Si 7.532088816729662 2.3753225729318355 1.7008744027231026
Si 5.57337469912352 4.324049442065939 6.001656054598455
Si 2.3027859431599973 8.248702565199537 5.1379915565769005
Si 0.6404656588918272 5.151900015465329 3.10443161964522
Si 1.4709588823220172 1.4271047799917667 7.85609992592778
Si 3.073885156278281 7.3959024401627245 1.098976068231955
Si 2.1549545614357384 5.333524525167688 8.279123912749164
Si 3.0521252585340863 1.8274295593494811 9.635652880781935
Si 1.9311724081835868 4.240982945196256 1.3646993209557707
Si 5.239346328829011 7.7566261741630385 7.918885934083879
Si 0.715431019331333 3.704252226341515 7.317028310571564
Si 6.10352121593461 7.8089142078652864 5.757575130677206
Si 1.4798129083066731 1.6646380704414945 4.189255693843286
Si 5.119632551954423 8.492685497484866 1.5601393583023533
Si 5.868505011848768 4.742775185625119 10.267138417407192
Si 2.6421377876547907 2.1918352719443273 2.234851904816021
Si 3.723179431234872 4.141350362107218 9.587625911828049
Si 3.211081579485091 5.628363346520104 2.8757671147536255
Si 1.381168592108547 3.872709479455161 5.0035652635585794
Si 3.129136672469262 3.1876871522335257 7.40951384197257
Si 5.00884936891436 2.536500199475478 3.0028716975044687
Si 6.073135211553812 5.500727350742544 8.035352274271721
Si 3.017184613826693 1.2508876606033994 5.905877866380182
Si 5.436451777138627 4.76977455164732 2.2314263493372786
Si 5.574806033581449 2.1365661994146126 6.807793903381211
Si 4.315125819165186 0.7517082311768362 1.5033573282044046
Si 8.852911177646444 5.895757336743788 3.5457950983186985
Si 5.496590988912405 2.4811198386551467 0.4646826586984566
Si 6.381761009693959 2.6719308087987153 9.299678780776022
Si 7.983637563504833 1.8489518262521358 7.62381954233183
Si 5.036677803481956 0.6706786619420629 8.775860007552964
Si 7.157682442920118 0.48427021165396245 5.764379161385517
Si 7.89470363245166 4.2134287059443825 5.035204832896697
Si 4.821573643058157 10.576148042320986 6.512312522285151
Si 7.334100615974611 0.6179724476133326 9.705976899947862
