52
Energy = -248.56882174 eV
Si 3.730827358588738 5.41002596864257 8.84026341616509
Si 4.966505101651959 1.7612545187731283 9.71223650705608
Si 5.251058232430292 10.063037914203356 0.21130205791766704
Si 3.085596995281169 3.1750784692157934 9.49699602229665
Si 0.9952632940580601 10.37455481676657 10.446831046557772
Si 5.69296501357295 5.178542380339576 10.19653486825577
Si 9.522192149759324 3.645384529089618 10.457767951483426
Si 6.811128116127861 3.144539348886493 10.247147229028181
Si 0.5526065424188452 5.340363557488675 0.7455816805127813
Si 2.4318445293958755 6.7047366349729565 0.028014524519651134
Si 2.9383692891270647 4.503555208833366 1.0223796200202055
Si 9.573093332317896 3.0546231205125136 2.3433710639462833
Si 4.20935480737981 1.5013836307331159 1.5194644947514897
Si 3.0316627781549905 9.725349651323178 0.9498798945093935
Si 9.1464267067599 3.4280597546639524 3.1701866450722287
Si 1.0123540728773854 2.274681269316407 10.134360806380734
Si 6.35700133007984 0.2565568039206521 2.2879117227865913
Si 5.969375151498582 6.435309172705805 1.6520785950051902
Si 5.277668666450237 3.83061414355809 1.7438950956901265
Si 0.6810792117384198 6.438132706249036 2.7646145541372578
Si 0.6209015164384057 10.257481356866347 2.355775247349894
Si 7.425550883900509 2.4014347642228406 1.9460009891064545
Si 3.5472231270923507 6.733840335714336 2.18774073360915
Si 1.2921196029765982 3.9186148021037606 2.8698038948816462
Si 3.1983532675462447 7.907964526154487 4.3210298000469365
Si 4.280628744377311 3.621259198210355 4.594305272641658
Si 9.60155119643616 4.799723005964957 4.020043404338256
Si 1.8647372073527448 1.6571217542818635 1.7954655911330375
Si 6.331495468338021 0.8808379441167296 5.897326828020273
Si 2.172092571849541 8.422605200889333 2.7515188644587507
Si 9.714733236108424 7.1732612616731535 4.44845306516618
Si 2.293608640438975 2.591765884723022 5.388588041656729
Si 9.1464267067599 0.8373124802784753 3.2053540038426744
Si 4.868995097900765 1.3501343501608853 3.9114387323873836
Si 7.471085612782038 2.5708525408674725 4.703812514722152
Si 3.4500449188565883 9.875076011295654 4.085739068528652
Si 0.020983835814264745 3.427120392691577 5.757603793717701
Si 2.7324040414696866 5.390573904324165 4.128499494627093
Si 7.180730917076502 4.961723047059661 3.0185641678115434
Si 3.1502159327235626 5.227566018160997 7.74493924836647
Si 6.388078910252614 4.570480505195721 5.159038460217064
Si 5.903386886312856 9.482129384363109 4.347954458976626
Si 1.536236943231186 3.5365870979794503 7.511013800726715
Si 2.01466029636895 0.25689381231355635 5.77176370705997
Si 10.431832854704382 1.1773111383292008 5.102850544322421
Si 4.760907862238061 2.4222071370841967 6.899276831759856
Si 2.72507070711522 1.4360191763903587 7.693647972908842
Si 1.3995061349602946 6.788257627697437 5.573458888789749
Si 4.221042944653461 7.336714821355776 6.361446570248056
Si 5.65968308697078 5.685861981425324 7.029268284985507
Si 2.3073520591431445 7.43435429770954 7.746548309108812
Si 5.050833124697298 4.105669016905253 8.67114135524221
