55
Energy = -265.05171144 eV
Si 5.354639173731989 4.71937403318361 1.383575642304928
Si 3.6850522800146654 3.0260278474146007 1.6801055275073773
Si 7.354456338990705 4.5917248851373715 2.7792512270575918
Si 4.087195848645309 6.58198150874466 2.1588828029122262
Si 7.899327550934897 8.44345759238913 2.671098783077272
Si 7.875059498510802 2.2949197727218955 3.023331885872975
Si 5.512835571855768 2.7068242703372243 3.10868332105433
Si 8.659500236752073 6.43747154999228 3.723846786870046
Si 10.934903540551097 5.742750879255142 3.6073778947077875
Si 5.606333216390166 8.149018906838386 3.0585645359896514
Si 5.331543398628409 5.3095697113944365 4.015687773332485
Si 2.841365674699731 5.647592947880501 3.950908276321426
Si 8.224959329607161 9.918956830635365 4.48802883717953
Si 1.897200449817652 3.5228526835659144 3.3866902542982706
Si 6.580461805526482 4.534780253480236 6.3432039876168105
Si 3.8602837650379875 3.33967171432048 4.667327296668902
Si 9.951617448088484 4.7299815420348486 5.522111011003156
Si 11.194164187311173 7.68070221572762 4.9470471365824675
Si 6.377927320390982 11.496198027087788 4.777155742588999
Si 4.692516287847803 9.821442409230608 4.354272929750562
Si 8.0011046159157 6.473275485309184 6.172416321571282
Si 10.692158369777356 10.107321808888628 4.708105221358941
Si 5.678259564713863 7.344229209837089 5.381965909552526
Si 9.389000970557198 8.684087370650225 6.271708641649365
Si 3.1029570299030147 7.312070430187326 5.702870488089106
Si 2.5546633738617173 9.665594410193581 5.477731566116316
Si 8.212751742833307 3.0873586333913936 5.2306759530259574
Si 5.716642084655318 11.716280858347009 7.178891478675409
Si 6.398948545317521 9.497873153796407 6.258096908974706
Si 4.098855262208108 9.910773836708467 7.2849447143989075
Si 4.70528127652372 3.135289732661025 6.9183242404458944
Si 11.210635786493206 10.298389839112007 7.104702322089738
Si 5.185449777588647 7.163449893178535 7.72594265571308
Si 7.4592877826185395 2.285822322192247 7.3124299582488135
Si 11.594672905837957 7.94554873356035 7.218106557565
Si 2.8289666273301557 6.555235038512903 7.944784135580666
Si 9.81691890813126 5.439886017455577 7.708216122553027
Si 3.458157743478217 4.321652367757501 8.528227478030207
Si 5.467965460490874 1.1341877575569805 7.982270857475816
Si 7.492668113446448 7.940395925504573 8.130080098058395
Si 7.101385156112416 10.439158102077414 8.622078026030238
Si 9.328012794013942 9.816681948719664 8.500703982362673
Si 4.254273842792327 8.751123284877764 9.341260008888625
Si 8.024752801917536 4.197933123871706 8.548417109569879
Si 5.823468629037154 5.188557225457374 9.077315908653295
Si 11.40410868917493 6.473775255413303 9.12783686742817
Si 2.3702369513555084 7.523573190593616 10.121585570382313
Si 5.204023810578788 2.736523667289557 9.762180392223858
Si 3.023091845304515 3.386007497655309 10.66451096864633
Si 9.487431009203751 7.810424553122253 9.74008065648794
Si 6.10739494733356 9.652856689409413 10.588045319965193
Si 7.321008036951951 7.606438033982977 10.579640400603505
Si 3.847073296417816 5.681977793698068 10.725424986002412
Si 7.104434693796311 3.7553724637129617 10.718827439457787
Si 6.1214569945031805 5.774417127454657 11.503291444937648
