55
Energy = -263.33535647 eV
Si 9.144281800382245 6.377107151336279 2.6701139357668393
Si 6.583801293797233 3.4468278124776695 2.2997622521276835
Si 6.966565916942309 7.165957406432535 2.7498308914987564
Si 8.815544501770157 4.0357043597975775 2.902905149636542
Si 3.1255672876061187 5.606594706779952 2.959001444003863
Si 5.441154283415905 5.38043362448057 2.893708737199367
Si 7.83384430199978 11.095513920264077 3.5721911026134445
Si 10.958779241137211 7.778382434723296 3.3084030955024413
Si 6.382632032224765 9.435329059032108 2.7314271634720857
Si 10.247090943556776 2.239628647293082 3.608843182695731
Si 6.137139677339377 1.800546189524818 3.983670321511271
Si 3.5519701780417057 7.397378653333663 4.434941632589965
Si 4.374595103612265 9.529654659783576 3.8838350999759537
Si 9.041035047758724 9.086612905567273 4.085929354461062
Si 7.7302844633450425 6.552322359549865 5.005851797744567
Si 7.031253143727288 4.224726947645985 4.649268615091977
Si 4.085875428120149 2.11380016259032 5.338025378308072
Si 3.0970599099790252 4.167837959079982 4.881948217894557
Si 8.280432555811458 2.0831878835135695 4.9914061861511065
Si 10.191904564658225 6.284129689533601 5.103652237910033
Si 10.272677287209731 3.8923153824520575 5.284274821206736
Si 6.440440712479784 12.339935176782387 5.317329535133016
Si 4.116049074745524 11.74332598571723 4.69971663243333
Si 2.263673845409253 7.309498137979776 6.390269681018155
Si 5.198287334534141 4.366064788493263 6.06258429213758
Si 6.205535746696221 9.94323837273939 5.378913909775335
Si 4.863589317940381 6.886930256715943 6.387379399935913
Si 8.016478954080986 8.621901949947361 6.125037234150361
Si 3.555845743647765 11.302736238777438 7.019108581352648
Si 8.236059134954582 1.195086500253511 7.156791977300309
Si 2.874979052325333 5.16375921986002 7.0273073819686305
Si 6.251135780498137 1.0356277710407105 8.365828734637478
Si 5.882315896247528 11.339823563810763 7.614625619434754
Si 10.101720659591747 6.950584199521809 7.409026537043106
Si 4.7125574195178865 2.673587182842281 7.607050611692046
Si 1.7728912787257844 11.381031657674699 8.527014002191965
Si 2.4291207314243244 9.160970975836054 7.850303137683985
Si 9.350385256142186 9.103830329675159 8.00021859856757
Si 4.903375628154137 9.075955376127121 7.570013416996801
Si 6.367860066777431 6.529174504649954 8.212890499724228
Si 8.456981451650908 5.210916946046687 8.00136314336401
Si 9.999878038574668 3.420417593494763 7.585073675646404
Si 7.905101394423277 2.2662204894092906 9.395696662285054
Si 10.003719650835068 1.3283789127263128 8.740377810776913
Si 10.884028349632237 5.290405570747016 8.945664990757342
Si 3.1780288219982857 3.884105639320159 9.051066432975817
Si 7.889557891265395 7.93921819889278 9.510584326663658
Si 5.115938175217434 5.198135524269703 9.827769209880131
Si 5.625845160356564 10.439265883985767 9.808671190294573
Si 3.4232890680641983 11.089325445703272 10.38022844997399
Si 3.622809617411883 8.803286941246043 9.803413396830216
Si 9.029962000359035 5.963915838110359 10.35935654063285
Si 7.315868006597199 4.411579288649719 10.13016925904524
Si 5.346897321028733 7.406155047392594 10.547571789545792
Si 6.873871960555926 9.039186080668228 11.360160225086602
