51
Energy = -240.66921195 eV
Si 9.02772487549761 5.099797788470323 2.8815523255479625
Si 8.248149913960319 7.455230572621131 3.226333585586998
Si 6.248798674534324 8.77991264040951 3.2753688466601663
Si 5.552758649115989 5.712787280857124 1.369187507446003
Si 4.027040508633908 9.14863991947825 2.236393550613417
Si 3.5012758211891977 6.833636357315602 2.0532578083496453
Si 9.301836212688237 7.6768989081098695 5.43455431578218
Si 4.749178294979819 3.6459645803842196 2.166823180817998
Si 9.26298701116945 5.193647831233523 5.281560036866197
Si 8.732270436480754 2.6068681861111456 3.3726026947496393
Si 10.825559595208054 6.418100825742707 7.012314434060887
Si 6.021304426097817 2.329693644554761 3.6890709456750943
Si 7.567459252000346 0.5801717481641911 2.9143965816640116
Si 1.764858869393201 7.02193185476734 0.3545146559274653
Si 6.053987179443252 8.72689120012435 5.603476486034934
Si 9.060956753867178 2.4591846554567685 5.70202966840658
Si 7.084161537562511 4.435022663571859 4.297593125848419
Si 8.846421151659113 0.11613138717393269 4.968588533951868
Si 5.863674774381464 6.547792848436405 4.034189698497062
Si 3.4220035745717516 5.274305156667369 0.08667614450877212
Si 2.808216073494185 8.542375718908238 4.17840285226512
Si 7.262286295050378 6.522260467755532 6.144260773766386
Si 3.204180585050244 4.750692131203705 3.5966336630492037
Si 7.874126543069038 8.912204376659032 7.12206113407902
Si 9.92759443270471 4.040797881749603 7.2870593136994035
Si 1.3807968911395134 5.337882730833751 1.9725714697362082
Si 6.703507253959253 2.9506642754247867 6.19241132918182
Si 2.544044455542222 3.2532022980109505 1.367647559199048
Si 4.3073789943454255 10.03434518025496 5.127258636127792
Si 8.722126659401294 6.909611535930638 8.35115043306253
Si 3.869805780621044 6.065467706542921 5.570960898435464
Si 5.208119336335312 6.125299828370027 7.651214333300928
Si 6.216691617390372 7.965981037834746 8.748319959032527
Si 3.869792813541389 8.923856124799634 6.4880419950039725
Si 1.7049417194073544 9.706972163379364 5.882837856998166
Si 3.827568916140615 2.017976746982952 4.819241983728782
Si 7.676360230737844 4.727345636562957 7.820670797182181
Si 1.4938504663123582 6.80429237254438 5.221953122495333
Si 6.527627805178601 0.6116278595833543 5.3996023631933525
Si 0.7642430943148998 4.659855463079471 4.325547190382441
Si 1.7297193304263154 2.4906748000844425 3.7737120757276617
Si 4.484198238588117 2.9866944488473623 7.1098209762876605
Si 3.46968795394965 0.8679413012187249 6.985488136875246
Si 3.3427482297313986 5.7408638672478505 9.315314952192947
Si 7.1606768185263165 6.0512815625822745 9.96711228749958
Si 2.5979023303006747 7.315007465451175 7.662003280788687
Si 2.6721629268487703 4.552959610629984 7.2910417736800595
Si 0.4165277348284221 7.950960684561631 7.018605520124311
Si 0.4247020607104919 4.147528057662454 6.741623939634289
Si 1.6182583055859021 2.1790372879461057 6.183249299577729
Si 5.520897905851191 4.266629157406276 9.099244528114326
