53
Energy = -251.46715924 eV
Si 6.007539952663935 4.0128298218331455 4.11609489319553
Si 3.4422236926110945 2.9163626889134453 1.9247321606051568
Si 7.09469223240519 1.8066640462830907 9.14046462148393
Si 2.592576034756345 4.039555598904027 10.372168240448504
Si 4.2979458901531675 5.646554179520235 9.956450600738565
Si 2.99337657483796 5.701941148280397 5.075726746114022
Si 4.748214946575709 6.076683373891136 7.861540149577984
Si 5.3794662289190835 6.790573904004233 1.8661221548802125
Si 8.491951478078404 0.8311413164177354 7.429560093861561
Si 7.843188050923696 4.395905357695616 7.203428875564006
Si 3.020243791228466 8.273052195695788 6.448461893935929
Si 9.332144724153453 5.309485774285707 4.526711649054251
Si 0.07388099960877433 7.328228423946835 3.8019206306497675
Si 1.2204483920971412 2.3126185423439103 4.88906591031151
Si 2.4446509944481436 8.369731574722207 3.252407808801132
Si 3.3480152057350168 0.4277875649002651 7.664485487471127
Si 3.36354686689398 1.5413570159426697 5.539515203202191
Si 2.7380941157789973 4.765222354090067 7.217472829784667
Si 3.2136637713209346 1.675973141672564 10.218074243416826
Si 1.0720437768121631 6.848616470952272 6.046916562247863
Si 8.524084259922153 2.5627058361442727 5.843885781416991
Si 5.716781876962025 4.339231244399183 1.097656515465783
Si 7.99145528560413 4.847571611538551 0.24529595295790252
Si 2.690720722856042 6.995150186668316 8.549701329978523
Si 3.8661142299987077 7.84013784871871 0.2739172652909694
Si 5.840096500703148 3.919580721189457 8.513339341704526
Si 4.440184167925379 7.452111355796961 4.281696327022916
Si 7.709593917042724 2.825198749926155 1.4392418834866392
Si 5.022236729396277 1.6282348150753 3.806068379856436
Si 0.7496299867132783 4.88746523736328 1.1899812644539682
Si 5.497333291293206 2.345461938227523 10.042997013929103
Si 4.097360995123534 4.979926260280432 3.0060252075209335
Si 1.1071415737010797 4.719692647114457 3.9157929477435602
Si 2.4888350690945944 6.494823256685368 1.6923612732397195
Si 8.321369065788568 3.4323972001621037 3.6294756834117408
Si 6.926917359325952 5.911315854912213 5.583476432074513
Si 7.785720153829139 6.921169219231257 1.5282176176014823
Si 5.761960516409308 0.5325206538089231 7.638954660547804
Si 7.978029947660445 5.738863789840249 3.5422605082957066
Si 9.377437276988095 2.965328482043971 3.7081178003397905
Si 0.6201028103171748 5.568206711017461 8.05386618293585
Si 9.573127813219768 1.7841109090347362 5.782152841933699
Si 6.773016626199957 0.8516103105622033 5.357975100199485
Si 3.8305832433501643 2.755968708192634 7.62502291855809
Si 6.950356990306898 0.7664924613283884 0.4922651652610255
Si 1.1030049533393682 9.123349677737878 5.113016139596127
Si 1.0271774956872035 2.7588526084118024 2.4397323001237337
Si 5.9502752604346565 2.9902006959491043 6.259181877919097
Si 5.729615764103191 7.764645997433308 6.3741840944624135
Si 10.401746144636084 3.9874201140242493 6.20465598296837
Si 6.19067703878161 4.442148102757564 9.14046462148393
Si 7.221053030701592 9.385805731820778 6.652199283419734
Si 4.779749960431972 0.755556636248738 1.6595165639404512
