53
Energy = -250.91292822 eV
Si 5.890951031628353 2.5111820055883816 2.3271972157564345
Si 5.167529381665911 4.125111938331462 11.883149709173264
Si 8.53370289096929 4.803465209572513 3.113110738609102
Si 7.604826920211413 3.80629214446435 11.531352766729619
Si 7.035110825748164 4.357897943031106 1.2587219824009275
Si 6.581894858463253 6.122473178406895 11.89026501048574
Si 5.1811649655399465 5.831959347415704 2.1553184068604168
Si 5.156100708041102 5.912357378848289 9.916141502879835
Si 3.998862495968393 3.863660033414181 2.861062817912114
Si 3.7701943172185435 3.7752430322718333 9.907456129134184
Si 5.632916454454948 2.404134890235593 4.705090980547649
Si 8.690766607361546 7.105486681208865 3.525042887270521
Si 9.596449950754973 4.116925686446919 8.510160233060121
Si 8.287841061227578 9.387013032899347 2.853916086265496
Si 7.873016965448832 7.737652354151587 9.015059713693296
Si 5.963263488631909 10.157293861945353 2.8439523358821788
Si 6.59619444172847 9.17190524538621 10.463933029750603
Si 5.0764289099780315 7.977712864497601 3.323446802755992
Si 4.844131109790348 8.195025965237841 9.16987297856433
Si 3.543003935528262 4.835115568449089 5.299255192379447
Si 3.5295676128973286 4.946231405974576 7.8202186751945035
Si 9.551555164116458 3.7123479441628207 4.99388387046729
Si 8.573905357728535 2.5256457655643745 6.909339269972213
Si 3.1956581836240905 2.4756862252471974 4.657307616881916
Si 3.9571969289295073 2.288482049224065 7.997753094105467
Si 6.158544271678398 2.7733333727848013 7.170660846720311
Si 6.243397217038589 3.565619493904695 9.495712244099419
Si 10.636908368772096 8.097720110087401 4.382959432794697
Si 11.464227526460672 7.088569779596451 6.397704034266115
Si 9.91575901995505 10.450633623581345 4.366087705993569
Si 10.145718241384158 7.817556918159799 8.369161701832331
Si 7.385553752348939 10.111318391385371 5.084219199280046
Si 8.021098475414412 10.205394962285618 8.378362706113764
Si 5.432505683258886 11.530826943173178 4.798049394321489
Si 6.086038893962596 11.214070601026451 9.135051918879693
Si 2.922457138307582 8.608683567349175 4.124095496481889
Si 2.83036035049018 9.118819453459313 8.121393727468503
Si 2.00181732554111 6.619164684205627 5.154833381579912
Si 2.0939106798645892 6.906952254532241 7.530291383118454
Si 10.976860641035465 4.713131203891548 6.618072272002087
Si 2.1157124933730005 3.2352864717171603 6.668339378523304
Si 11.880446031880066 9.18102020928467 7.697027520289492
Si 9.673489894580808 9.720122009192274 6.71478838377652
Si 5.885060361955398 9.799149491427803 7.131469379614607
Si 3.663909481859483 10.157222612942883 5.980175502061665
Si 7.705235026350216 5.469652360189931 9.720616321516507
Si 8.98786237567004 7.366320763219714 6.208350125719247
Si 3.9599894759286363 7.746104350914503 6.177536396070517
Si 6.32794294416185 4.616157053248241 3.877679519027741
Si 6.838996537066272 7.81013109244403 4.923446552976942
Si 8.422163115649763 5.044172060865721 6.64954221058262
Si 5.711524736111001 5.0254672114341545 6.413223788862114
Si 6.139809880261359 7.326767340311818 7.242660427007796
