54
Energy = -253.85134219 eV
Si 11.338683385718008 10.544140080156511 7.097614051683319
Si 2.792404667731451 10.549001673077969 7.0593026967798505
Si 11.165093973010755 9.781221433906124 4.72673243974279
Si 3.6724398407860965 9.680778473399018 4.713710039904969
Si 11.09605489895506 7.553114086574496 5.640809548737457
Si 2.3399870158628406 8.149210814300638 6.129035741772429
Si 11.784390384099344 8.152773070984441 8.038788004654233
Si 3.029883618447825 7.545214353179196 8.50359113454627
Si 10.423048372600059 9.664777017864056 9.425235201910924
Si 3.0065611639213268 9.766303460767997 9.44236050414574
Si 9.220632189083751 10.825719652328482 6.0853225737485115
Si 8.985658392665787 8.49905753376311 4.3504619594935425
Si 5.140666717606072 7.8549585057749916 3.731310696643238
Si 9.784223069579571 5.6355418528308165 5.1467321081260735
Si 3.733642476459314 6.317069150760566 5.1570166207681165
Si 10.994780519460564 4.606102850772972 7.20326708663206
Si 3.162298485708975 4.601888030821913 6.941877924065453
Si 10.41030431110577 6.276960133180632 8.99486951019642
Si 4.387748964872917 5.659257421957564 8.977721990135247
Si 8.980334755688842 7.813648695157155 10.397126942367999
Si 5.161922962466366 8.475101296081368 9.751162270751909
Si 9.25847943987603 10.843744475865996 3.6599524101940997
Si 5.872740901006434 10.714198872008502 4.912588450468412
Si 8.240046956063837 10.745789455362699 9.214888784366583
Si 4.93889746098741 10.843933229724623 10.45603224251498
Si 7.069898675634116 10.421899218780972 7.05679583220666
Si 4.921382650682573 10.83773187104696 8.032038979045296
Si 8.489372945658863 6.584158475138224 3.0374932988799253
Si 6.093581760210648 5.986807455014339 2.3509655579407944
Si 9.400229592154579 4.355878380348053 2.965920777523404
Si 4.706769342526295 4.467927410394354 3.705646082872313
Si 10.476794723433612 3.2945599487892405 4.8655067893022155
Si 4.922105016575763 3.3979376888415542 5.892764422802624
Si 9.225809817616629 3.4300804669065648 8.264573415795521
Si 3.681979464825379 3.2926109986507903 9.206394281893298
Si 9.427627463833119 4.451017887452544 10.469134909524714
Si 4.7030325314797805 4.367077395514034 11.13405449171741
Si 8.011986085581922 5.987691563940999 11.796531124093136
Si 5.638558979853286 6.588829411522795 11.108092252156716
Si 6.928651136568446 9.53376108741157 3.141771754420586
Si 7.198876005485826 9.536657319344934 10.97539973958386
Si 7.0316450171093035 3.5900747923638034 2.8003260617072234
Si 8.050115777907386 3.3071567650855576 4.913607171670407
Si 7.080215126998361 3.7187374228713184 7.064941762755697
Si 6.105731128273195 3.2951148033869213 9.212507671313931
Si 7.085543812511181 3.583673311976157 11.339505481551184
Si 4.695676510081504 8.528741688739053 6.8950476088482615
Si 6.898519718913125 5.614617227013853 4.692464404264176
Si 7.246450275130851 5.6018641902146875 9.441116438238346
Si 9.441801190595726 8.515901620811027 7.233297527730676
Si 8.687140324363122 5.77894789959592 7.35784722208359
Si 6.776122636241287 8.364896860241632 5.449005829459089
Si 7.378175074811411 8.385448768965894 8.676000376869984
Si 5.461666760175548 5.75877625512324 6.760583749394476
