5
Energy = -19.24038751 eV
Si 7.649344414039513 6.541757294926833 6.4457282730566146
Si 5.688965922810085 7.289665361467297 7.417606106533122
Si 5.97058803646573 8.878796501767214 9.060194176508796
Si 7.913113094445205 8.181560712584595 8.04695774652392
Si 8.852017444625911 5.197793878393273 5.11951655720243
