54
Energy = -258.46197371 eV
Si 6.112391147991314 5.3205346822667465 0.8584897037980147
Si 8.478989816144669 5.433090607126647 0.9179439423671533
Si 5.220022960255429 7.464118952147745 0.9599366213589572
Si 4.794822380438229 3.300267931204438 0.9211593613418625
Si 2.9596610331868485 7.1059311086756445 1.5238326597136833
Si 3.083597851216928 4.771425329216515 1.7238501880008097
Si 8.839107801281592 7.58600254808335 2.0430431587409306
Si 6.734993155055172 8.519118521754695 2.486760897863279
Si 5.606734461578657 3.8526139472153007 3.0875956555865467
Si 7.906572686746079 4.448720160359728 3.017563227781518
Si 4.970852807170201 6.3096564840093405 3.146516009770764
Si 1.6425026333950803 7.933254377677571 3.3111750385203353
Si 2.535229477830933 5.73053932227119 3.788118280788759
Si 5.466943175808301 10.168687416639042 3.573373854566465
Si 9.599360706182654 3.4584536035202844 4.344004837671853
Si 9.835327502327852 7.4243565110783205 4.174651192241925
Si 3.8918113696976007 8.375831053807577 4.051594951523142
Si 7.51418256980864 6.598850479512194 3.9114717847340112
Si 10.855867757760219 5.354699611287404 4.8514649150941445
Si 10.131029207097434 9.253109137450421 5.675938187910732
Si 4.793766677996683 2.9704296535857266 5.155917917801465
Si 6.017514422782319 10.032054814013197 5.846344177872822
Si 3.5160758944308816 4.876935216276515 5.851549879008929
Si 8.73025572821047 4.874627286596538 6.153044465047443
Si 8.020529055372469 9.199208804686801 6.75536857528028
Si 8.925066897619915 2.1458819636199675 6.256473257081491
Si 6.794485533091099 3.3223458655733435 6.339703395025264
Si 3.69967739081391 8.486071989658273 6.41371343375498
Si 4.136585588091354 10.763988774585533 7.0126465157685
Si 10.965316300808468 5.613049179746816 7.215325633297549
Si 10.569299558136034 7.93172045876989 7.559604354309104
Si 2.1758132362097444 4.830524696838024 7.90677140669645
Si 7.236401528727329 6.973403937360092 6.232764115525937
Si 5.002983414492138 6.481686760292819 6.75892670181488
Si 9.49422930072182 3.6006924128049156 8.098577124800002
Si 2.2684483137908997 7.246593961183823 7.932868450329676
Si 4.915023054781757 9.800943467180657 8.99212797048167
Si 8.447000725932194 9.029765095983981 9.111922491149487
Si 7.205449284828214 3.992468088858741 8.58848632345865
Si 10.656953861739897 8.55503230372582 9.852145620422757
Si 11.355779810077097 4.491585772830021 9.256909436228296
Si 4.186368902521813 5.762517788797132 8.8568887953222
Si 9.749456945735345 6.288412384671405 9.787482350815806
Si 3.487321167584845 8.09012042490818 9.744780005251803
Si 7.67735910558807 6.404587723453549 8.570947952198413
Si 6.807541835145056 10.390871607935777 10.300796965686272
Si 6.268398099427834 7.937275378171845 9.843216600147283
Si 6.853195453451695 3.1772852667267992 10.784860404036873
Si 5.294157550343874 4.956854703184583 10.863886184751605
Si 4.213574960269537 7.720330887892439 11.89518876587191
Si 6.169871190366349 9.015889936471531 12.177564960232335
Si 8.029887530835161 5.2701769251985775 11.174890827380533
Si 6.605876276969368 6.678908761389132 12.333770971249567
Si 4.5503349021326684 5.678495921724081 13.006049502524842
