50
Energy = -235.65593414 eV
Si 8.592456087685335 0.7012581134951547 3.929871660544886
Si 6.675506641926836 9.559296033127895 4.084165721268892
Si 7.132060599231673 0.5739152195370365 5.99859392724438
Si 8.873038933613227 3.0745644424166976 4.673012137851394
Si 6.461091247699095 0.6687691500598563 2.2285310608049533
Si 7.822815846098448 4.479716867590084 6.279019415022187
Si 8.193029097755167 2.603505428978023 2.203513626783846
Si 4.983873014214648 9.952236996932658 5.7951580109443395
Si 6.476367141019263 2.5094369723221037 4.145678054129204
Si 4.394339079501147 10.006544554203247 3.298798752102188
Si 5.126771083914317 1.8359778301939216 6.268047464467357
Si 8.44612420694678 5.987202897476026 4.601980587904238
Si 9.776416490254292 4.623787220769116 3.0120990181870755
Si 6.1166209058345755 5.035245190405028 4.330199766775522
Si 6.846932915303411 3.8125735065528725 0.4613274571552298
Si 1.1507002094686556 0.7803632743194829 7.845163302841713
Si 4.484572157068545 1.997824873569218 2.7735194091337974
Si 3.031960849559356 2.096602861128212 7.630467761850604
Si 3.382680315083687 1.0824946730133516 4.726005005080054
Si 5.0635214176177366 7.349062160954409 7.692003672255731
Si 7.5417892894454654 5.258866267682764 2.3164715139839096
Si 5.114612898304287 5.186371768084411 8.756170203592795
Si 4.687361738922779 3.9610112846923187 1.413539919006368
Si 7.179158917043927 8.047371299338776 4.312288595841602
Si 1.1888814987503658 1.8454791553866676 5.6566862594068885
Si 3.0420405001442354 4.114842321621643 5.830093966340354
Si 7.442368423250174 7.695517623949313 1.6894706819153287
Si 2.9341713392824134 6.717356629765423 8.53552239746962
Si 5.396244159013202 4.2203363813131505 6.585466876331405
Si 2.7776185348853257 4.2747595701929715 8.517814554727567
Si 2.3232130287703328 4.2494179771303155 1.192751840972793
Si 0.7748729590456316 3.032003266494312 8.819213191609881
Si 0.29287444334839113 2.9771528694892115 1.124567205273194
Si 5.095755364351283 7.1668665646402046 5.113517557774806
Si 6.011963479191536 6.179497500405673 0.4920555565508267
Si 2.3923367589813775 3.5610892932468943 3.574337576825327
Si 0.741246548806959 4.104200481135625 6.652495277433921
Si 4.330156060647383 6.152039721029065 2.664554957045329
Si 0.1749172474128353 2.678927759847544 3.5999308901657248
Si 6.195338273342124 9.559296033127895 2.6392780923492114
Si 2.9696113650929497 6.509196841790226 6.178922060972903
Si 10.196793023351729 6.142470019026189 6.066468276304826
Si 2.012181897317462 6.012438113858565 3.224836875359633
Si 1.7389124664008833 6.65617999308973 0.8574692225501952
Si 10.582027999539623 5.258761617663135 1.7521539342663945
Si 4.799471811184172 8.105257119746213 1.1818059673390893
Si 10.402037712834266 4.9445661730810215 4.07689195015906
Si 4.042699151920991 8.582702561647018 3.4946710390602993
Si 1.239355001832358 7.550725608464827 4.999838699485885
Si 1.6742743212206725 8.499881875321377 2.8230008124034613
