54
Energy = -257.090378 eV
Si 3.9651182966575225 3.3829597684576704 9.926890686170868
Si 2.4446179387519287 2.3518414602528503 0.22046529107717994
Si 4.148121867600133 1.2774772418846079 1.4371241745731673
Si 3.57326135920043 5.5222464819939185 11.11759124364518
Si 7.21756031448048 6.144844738155548 11.149782906520763
Si 5.685862235396605 2.1975349526903005 11.173364878578571
Si 0.2569602801719425 3.1715413756998734 0.5074414575055801
Si 8.025565350256663 2.1602470346832816 0.3506213100821315
Si 4.2304655336280845 3.7235473089840267 1.2568634576556998
Si 1.595921459901394 5.04490614668208 1.0094475946193588
Si 10.699493174307257 0.8483817205237193 3.8893604453073873
Si 7.995098898907432 6.615690070189449 2.0488219869241036
Si 5.221675016201568 6.8052904161695045 0.9705805800709733
Si 5.2252537904129746 1.413419967066124 3.601639868022205
Si 4.851232188560672 8.826388927038932 2.3305782210233668
Si 6.902952072650378 4.101923837145515 1.1301959821156187
Si 7.356289764966608 1.9079068375419939 2.6330656635270158
Si 10.539615242656753 4.77222521780514 3.523234104942731
Si 9.336829115656728 7.9880633243172925 3.5092486690344806
Si 0.40050240110755375 2.70632992159904 2.8345452812910015
Si 8.508784173388108 5.114387919379806 3.705572224499719
Si 9.336829115656728 2.810220740958924 4.240430452714931
Si 2.568794680601786 5.638625415188875 3.429124641382734
Si 5.604497664817755 3.880180277745396 3.228050883209284
Si 0.39652943387381573 6.534802330763098 2.3839483797947016
Si 0.07864279506398611 2.0896144620801187 5.869285226069182
Si 6.94413148421296 8.430028332681758 3.423561115413179
Si 6.966843979368168 4.070006416353692 5.2836533210179955
Si 10.92099732533386 4.652151702969999 5.827754163082112
Si 8.629547911395187 6.564131815818614 5.550041049094967
Si 3.7357020905560763 7.964478913815674 4.332047106538864
Si 9.384096459812586 3.11485299076244 6.702529706336421
Si 3.868841366352108 0.5257284182512009 5.584852399803393
Si 1.725459328484705 3.6036382704949093 4.6196043762453645
Si 1.3587445131862017 7.6796153456595775 4.265489528189906
Si 8.419846028664868 2.4604982608106134 6.453186860234002
Si 6.351400981917399 7.316382568776146 5.45960508109959
Si 4.424424010395408 8.142887312968996 6.656463618266245
Si 5.319397519516644 6.3801945360861385 3.3436501323266676
Si 8.994821316529807 2.7911962113283466 4.137171342664486
Si 5.8707607984112755 5.459130549320933 6.887145071399188
Si 2.056098448027891 1.3452392630861705 6.989148774299919
Si 1.6363880639401458 5.888079130494969 5.831421605586024
Si 3.604480193918003 3.1519445665836074 6.025963777314705
Si 2.936381430186305 3.079204171825663 8.343538832067734
Si 3.510380694423399 5.847440643320752 7.257474784580256
Si 8.53582387670346 4.782055774081966 7.214445271953299
Si 7.276334005175966 5.996003599155865 8.810632653597349
Si 5.807507306845265 2.041323981839459 6.0599550390059935
Si 5.517180998784565 0.053013990981114575 7.378488426697224
Si 3.162674064239572 5.157150414414673 9.548029694820736
Si 5.483285132558812 4.489897998171238 9.176465083030342
Si 3.4567040344473785 0.6063385440422095 8.886231677989878
Si 5.207954505474929 2.2680308153375144 8.470568010863115
