5
Energy = -17.73377633 eV
Si 7.989173336851214 9.219661137117956 7.728530563363795
Si 6.696341318284422 7.52481057819698 6.932993122409647
Si 5.718567982447092 9.034574757441222 8.34106736307329
Si 6.630475595071041 5.415560879882146 6.264950046555575
Si 7.881830626568182 3.72184619838659 5.648886957610718
