50
Energy = -241.7155222 eV
Si 9.610299497538938 2.465853312746273 7.546113716254688
Si 7.699790490348044 5.494185147662264 7.020335405882449
Si 6.23337190329185 3.2244958681809597 6.30071017371185
Si 10.434286425768093 4.056885107901447 3.900743070574627
Si 7.145133591566798 10.611471147311539 3.680451774193486
Si 10.590253189551719 6.739075473400452 6.947919777892892
Si 5.772312402223876 10.344298383656678 5.623834614972973
Si 7.57761809374635 3.380700455680794 8.43444697823959
Si 6.8349064186197115 4.5618756022283815 10.40116367884459
Si 5.563551676146707 5.618869208983421 8.392495431988879
Si 2.463395545354952 8.754359274675968 3.7149801610826505
Si 6.454431189138012 5.398767522212864 3.5319917643800696
Si 6.528646966175859 11.023773253728416 7.8118524593984295
Si 8.947500923737726 2.1257570713742444 3.356415666679293
Si 6.729199334600095 7.0233233876678485 5.326118956035544
Si 6.1199508557174545 0.7474505161662134 5.94107243041259
Si 2.074386392106317 6.0094693659437235 6.718196357900086
Si 1.8383357782012728 7.396939684171098 8.676781625383175
Si 9.12475723297903 5.926596079056008 3.279971580801435
Si 4.312006788918779 7.192959123747816 4.5500791928800695
Si 8.618584949876247 7.463669076014072 8.238768005151579
Si 4.187999667334296 5.740699983660156 2.3875573856629257
Si 7.010399037354466 6.917044906632024 9.859831334738958
Si 5.106212272952162 2.246285250970301 4.33236459611912
Si 9.924433466356142 4.506122611400981 6.339219802712802
Si 6.6290385470939475 8.5813381350533 7.2157051363551306
Si 6.061194937913577 4.7526288598729725 1.1679823623183574
Si 4.277275579615482 8.12061695019033 2.194829220952607
Si 4.479176893699483 4.968748081872432 6.093399325505172
Si 8.277720535460926 1.7532833648408739 5.661627998156644
Si 5.786541607362906 1.6573041018136778 8.197307942223944
Si 6.738043594642998 3.0546513561538604 2.8369338524236625
Si 7.549306204267202 6.67561685487176 1.694313687535916
Si 3.2595544646123447 3.6811468552104487 4.470789706971049
Si 8.109975867499148 4.062963221871141 4.7523380757818
Si 4.381508859931703 4.437902996514895 10.209810629625643
Si 2.9270695974913377 9.478887636060959 7.949705922696288
Si 5.344533409327805 8.253125798388831 10.974675426542877
Si 9.277974803142653 7.35664666730169 5.0760549158247645
Si 1.958121542844246 6.513766738218565 4.4372249849343355
Si 3.6664109123033772 9.348908817683137 5.687168048394148
Si 2.043305595501092 4.768452602651577 2.78226784145474
Si 8.727928159602978 9.931144845062274 7.667506884856617
Si 2.2932708799956445 3.6313551056412128 6.688206690045028
Si 8.380807641148987 9.481849149372342 5.341109703448144
Si 4.098431817896476 7.364531602753801 7.316697702725605
Si 4.145035167135694 3.345170507249224 8.094607416670826
Si 3.8417169371118884 6.722311576970171 9.85995649850438
Si 5.1173619105963315 9.440937682353685 8.916489911402698
Si 6.444112005142549 8.362965237797154 3.117055733699289
