54
Energy = -259.50327575 eV
Si 4.778275246022702 7.065133134080421 1.2076080558002489
Si 8.633409378244032 8.069053451580317 2.3799023428432715
Si 6.822383695398158 6.44678016927499 2.2613538713311123
Si 5.771754676971366 2.832679403328264 3.636009608553479
Si 7.4555807171680675 4.2275441230822945 2.697592163433471
Si 5.066324413281072 8.894542854582818 2.660008113809919
Si 9.739453676983599 3.717842795225435 3.282393670417931
Si 3.729776660664324 10.044904439511882 4.207662265800725
Si 7.201415638357202 10.006543823488053 2.689386751418604
Si 4.059203079129538 6.288432250170398 3.3608599797351633
Si 2.0426200678325186 5.115453943130574 3.796413064026664
Si 9.330757415034377 7.526968452126175 4.590370541477665
Si 6.779211850124149 1.1372393792819042 4.958834184417419
Si 9.669580757062429 5.279945048545524 5.094125842619556
Si 6.970136954681529 8.095692247968731 4.310197683852457
Si 3.8779928572875386 3.83822728035807 4.623728187122506
Si 8.900638750802466 2.1747759614041775 4.885187362738705
Si 6.016520212543219 5.2336219063005025 4.458968784698372
Si 4.938001195775557 11.71530456885838 5.439839816142
Si 6.955384663602271 10.610311043035843 4.970009431535426
Si 4.541756214939657 7.887762769373066 5.102871653649315
Si 7.6074913087738425 5.057519120316565 6.186380799406514
Si 2.2412490015260134 8.919206597314847 5.628053976936283
Si 8.898602520856873 11.145595064289354 6.227271450302378
Si 9.98560945198275 9.008876709906414 6.31458228902461
Si 2.1516295061132045 6.5638263567590664 5.669442846701261
Si 9.412788365733205 1.4041498549353555 7.081381499408156
Si 4.524921624391885 10.40474766877693 7.344409004682311
Si 7.335431896485539 2.7209496875416157 6.780451799172135
Si 2.259907366067349 9.975044315183547 7.767582060061006
Si 7.651128387050339 9.118654904303353 6.883747646309478
Si 5.487608219004765 7.999600371161748 7.401415864368739
Si 1.3533998089273342 6.280142589468749 7.904747791982994
Si 8.452919064311006 10.923866518625 8.603104678983824
Si 9.075827792148788 3.75653516203171 8.239475079810472
Si 4.127334869887703 3.70420549689635 6.986730226798311
Si 3.8179834612727883 6.042360757796541 7.550778520800596
Si 10.848571700948112 4.960521519701777 7.165447594018534
Si 9.640982640036643 8.849137653069386 8.651233677326463
Si 2.796915169102847 7.960199037926482 8.826627042163588
Si 11.247003518932297 2.757032265670576 8.141071356166712
Si 6.969336791848563 6.219245783593689 8.139909042731933
Si 6.272866678350083 10.130732508461806 8.929518609986404
Si 5.540304754616044 2.3422935496268384 8.256997029078875
Si 2.434672487101379 4.301134443289289 8.657486493868154
Si 10.582572075213916 5.775010621748794 9.33118479654125
Si 5.942218095653934 8.052576125711013 9.981354997317913
Si 5.99679844390748 4.374217866242745 9.372926061141937
Si 10.51660849644013 3.606723592237349 10.387591691779328
Si 4.022204460249322 5.388774495866517 10.04612246214908
Si 10.364727286833773 7.810571659082083 10.573623758471486
Si 8.14413553107753 7.058448590012118 10.046668853214841
Si 3.8120814351508567 7.5803431143213365 10.95448248306856
Si 8.203989668101245 4.598996953428733 10.354875140807344
