54
Energy = -261.14910391 eV
Si 4.286374250897982 3.289554670130897 8.552905582493134
Si 2.9082651010371947 6.690135287010133 9.265178219220413
Si 10.614376814934671 6.453939948313398 8.124611774383215
Si 6.221607491609243 4.966549540303634 3.430865537363428
Si 5.72268630649111 8.407157712132566 2.9333034988755147
Si 0.5374260767393048 4.203366501366277 4.537701765529996
Si 3.559265115386684 1.8535781235345652 3.125587410972696
Si 4.094356256999798 8.843198780612008 6.477823041974897
Si 4.491270006209171 3.5664655026150003 4.791837264265493
Si 11.132795530531236 7.14492824256754 4.214360559389771
Si 7.270780864657557 10.132376578616244 9.693962521857188
Si 1.1344059202089414 5.592597335807094 8.171940274902923
Si 7.7248918066515815 5.0906123937281444 1.4775389003135524
Si 5.1736869354712125 9.114771231064353 9.94985515613094
Si 9.693433281668307 8.471642334507782 2.728318511641946
Si 5.02028085420972 7.354269466600714 8.141972495862198
Si 7.359515319720459 2.01897657942976 5.770607151311434
Si 5.308324373430618 6.647592600152533 4.886265868301338
Si 5.597298730184842 3.7786363320542473 10.44295795021389
Si 8.0826682652692 7.399228701238782 7.299776548837962
Si 1.8432634020834426 2.9828248105181414 6.116904476634424
Si 8.64329054050583 9.802200891775463 4.378814266067794
Si 5.499237739047762 7.751357678214482 11.91622778443175
Si 6.420044894591998 10.539612823976972 3.7945032511378307
Si 5.779831873324577 2.535373049017962 2.8406585730145784
Si 3.953312546596653 5.658762784149036 2.349779758832251
Si 1.8416681185526487 3.287230418493956 8.420573389371087
Si 7.638355103405239 9.818740831532395 7.356241417848296
Si 7.152861514612328 4.345315081071573 8.757375924578277
Si 6.404886176718284 5.744217551641602 6.863494299561484
Si 5.59241744166193 10.715808897609168 6.120244661297201
Si 6.613358335271771 8.651329035877925 5.354913285075388
Si 4.910355357734663 6.060386712839311 10.40291214664178
Si 7.7156495155404325 7.2569610591521325 2.3439722894719326
Si 3.4739685700811633 5.137578949282821 7.325759979244746
Si 7.34307108418571 7.8767119889574255 10.44286901170645
Si 5.177877671929326 2.20328270636417 6.617994650405292
Si 1.7746051409402634 5.809412571370233 5.796031767533069
Si 8.660917383319743 2.7934519956933315 7.635074684985485
Si 7.853846057146086 4.382218177474816 5.675086953947147
Si 3.344979937972028 1.3099263470900055 5.452192955468686
Si 8.515684560270131 3.7354661881066735 3.318537447800988
Si 10.044159014699256 4.557990838471351 6.8110074554847655
Si 3.4292615272017426 7.9972883282109875 2.344652816175495
Si 10.228503345499233 8.04776054668314 6.3013444439664585
Si 9.752193306305369 10.422359674526795 6.352991581351468
Si 8.627218588644206 7.126492414064645 4.6177555816858415
Si 3.1069315979773715 7.5015927050793785 4.74619980989564
Si 7.853763725258772 1.4193046402416458 3.436666149486648
Si 5.498090630497087 4.263764237696832 1.1605167381598585
Si 8.55835235283016 6.196685708621892 9.352860523461175
Si 10.090432859002796 4.997945548509262 4.514269670841359
Si 3.1343114992247 9.019172556978505 8.720124747251601
Si 2.5972010357186024 4.039506139579325 3.3516892239990344
