55
Energy = -266.27283469 eV
Si 2.081817984456424 3.086518898717925 7.986239391003772
Si 6.039508068606252 1.6609192020147425 4.669753794591219
Si 1.4529149544042907 4.015123633734536 5.791912580759478
Si 3.7774268437852614 4.329382199821595 6.558092359696241
Si 4.888827910095892 7.508140726279397 9.69314110410838
Si 1.4038990561218414 7.116090461861111 7.983433223943963
Si 3.7146219800035927 9.06460861865234 4.328296207654992
Si 1.9131839565996753 7.523643393771594 3.7937351831933612
Si 4.539684428758796 6.48807168689805 5.24757954922508
Si 6.41290741467831 2.9174148252865533 6.735721505260735
Si 2.668762924946967 5.262120875234806 8.833900622956348
Si 2.167093484815972 6.340865438315392 5.879885763971949
Si 3.9517473450684872 10.716220709531385 7.970291785551151
Si 6.952769000778294 6.508121927331317 5.736559420816796
Si 7.958649969599622 4.704884362260898 6.9230280590117355
Si 5.611417038179607 9.090731242624182 2.8957073944398215
Si 5.166767545891644 4.079309676193343 4.438292394417645
Si 3.3502424208528483 8.44332485912576 8.205615192453942
Si 7.045784807915734 5.4484879211023864 3.42580912145783
Si 7.22408347176057 8.18520739031771 7.421376882348699
Si 3.947259520184237 0.6418659448311969 5.347644830544596
Si 8.566700241146945 3.4460717282395086 3.1400114903091336
Si 4.988543897427534 9.042431579235851 6.427113885873469
Si 5.030444913305167 5.656743984944245 8.179170967199717
Si 3.0892310376329215 2.7354678642321684 4.547800842636957
Si 6.3424693189314985 10.380311304132958 8.23630321421245
Si 7.285324515354526 10.77897404363786 3.1528079004976384
Si 7.056459249546135 8.82636728948557 4.799581267019215
Si 10.394729230762602 4.205845916872247 6.733021134384904
Si 4.16121734554243 5.469720143487984 10.697247316883718
Si 7.970153808226266 1.8427607986163594 8.216447647882308
Si 7.798651746310472 11.872857317576893 7.08569068561406
Si 8.446036452642932 7.2623635531006485 9.2736487341009
Si 5.920596928596208 4.141171110709988 9.747686493878222
Si 5.614582708377198 6.939444902481257 2.103102346514235
Si 9.763154711300976 6.417393286340134 6.087082451292907
Si 9.828909416284267 3.3041572155187753 8.986361722540016
Si 9.074155197696367 2.9546711903927414 5.311998446822613
Si 4.172264688443869 2.0033791820705567 7.33090406356779
Si 3.6393112820362443 6.07679959810743 2.992968388066587
Si 3.927565392940349 11.150847459023892 5.546030313445055
Si 5.852211512873419 3.620299029436235 1.9631102165486807
Si 9.03898442445648 7.098218424468573 3.9559792424290756
Si 8.101935097581599 4.935464755923076 9.273027017475542
Si 6.971028143284096 5.495561553272643 0.8268237035168928
Si 9.311722816940039 9.478927109619866 4.006539274689994
Si 7.073338069067411 1.6968862842556112 2.463075244239561
Si 3.544974251871189 3.7892667077072386 2.4396898701370393
Si 8.769274412566007 9.782192185787148 6.368324651378222
Si 6.316645308217202 11.170032788300695 5.359466826218067
Si 9.944342744761155 8.140781201734361 7.658428151886607
Si 5.780810828303999 1.8664057589572918 9.136375581239577
Si 7.9989719723339014 0.9756949681683131 6.019179865216111
Si 9.137233136891258 5.49361930213978 2.0503866549967706
Si 6.822742320336083 8.82190371760915 10.022685269371335
