50
Energy = -233.98947001 eV
Si 11.271540634770272 6.971789645143729 7.779151587998472
Si 9.186812260925258 7.0610157174622685 11.69923448745887
Si 9.301257444279521 6.8904395550008495 9.30094857882344
Si 7.852808036634251 8.576537565035505 7.99190228971669
Si 9.45054140130176 11.643502969838552 7.635673883663301
Si 9.650556570730549 9.846397088518518 9.481134488764168
Si 10.136966568066525 9.26583239501075 7.197216264551582
Si 9.643672413226694 10.733784028567452 5.290395126772047
Si 5.642745359077244 9.130343736113996 5.911947436251793
Si 5.01174334472092 9.525082721755599 3.6196368748130507
Si 7.166422577057704 10.629943084298086 4.279612272590215
Si 4.050639970246995 11.507344835475267 4.93784722581237
Si 7.239592583474535 10.747517433353263 6.799711969017446
Si 7.428269394585479 10.716435021591602 9.252736529566652
Si 5.668803486009887 8.187764659192487 9.139515822823956
Si 4.6971125739286235 11.048473892806145 7.227204482168033
Si 3.116267667757131 9.400583006151289 5.464321550995277
Si 5.674239715439213 9.937150488824766 10.837710094233126
Si 5.1141434111860455 6.812833282349481 11.2874390697276
Si 7.368248365214685 5.648492840303238 11.260780049843836
Si 7.161714157613924 8.204182072424786 11.332190156744794
Si 3.6006214913830754 5.073525383787715 7.8487570061800795
Si 3.689456967828863 8.848208813146826 7.8545835599534115
Si 2.016564290389552 7.000331191167723 7.5524259297088285
Si 4.289232419939838 6.960703257673304 6.455251069138814
Si 7.818754551209135 5.341565537173736 7.926012243149742
Si 7.006709468238567 6.981032220999671 6.006794604915251
Si 9.632307148567588 3.2776778346418505 5.257385568599985
Si 7.139606972696845 3.2797005555775263 4.3040017204860455
Si 3.1269613777220115 4.524395846677612 5.460532042744933
Si 5.01460412485104 4.468891871730444 3.6206839214902207
Si 10.417320781690217 8.58040127775012 4.386467447003644
Si 7.960977325522076 5.5838568623839 4.2286413148354045
Si 9.511999254058816 7.019326963632107 6.125305805989746
Si 4.488450590740826 7.017052593372241 4.017930793634095
Si 7.994548265698197 8.337163978286709 4.1883498065017735
Si 4.109871348956196 2.428467965897764 4.925123518949825
Si 4.673255424198147 2.8709300212305764 7.229888099983683
Si 7.215648798121819 3.1596684148187704 6.835046814512784
Si 2.2480502591204434 6.981205775342269 5.046503841153704
Si 10.138595868101081 4.742989170121095 7.191444386494378
Si 10.413678664273691 5.416349597067613 4.4245812540627485
Si 9.285639344229661 6.911009129109657 2.638788631204103
Si 11.97085105205104 6.98772282821411 5.314999169413001
Si 5.634199923998016 5.738408700747097 9.026460176240038
Si 5.534073245157114 4.227716861485 10.948103338533956
Si 5.635430418420298 4.789702151999655 5.932142737587231
Si 7.299724275362536 3.2940368748287328 9.32355306842874
Si 9.531146163619153 2.367858967786728 7.535605766913285
Si 9.58100339828814 4.118033888158293 9.481706886097312
