51
Energy = -243.23857718 eV
Si 8.644680850707415 4.836418490233096 1.9611668293644389
Si 9.17030088218992 6.533057975057159 3.641260410658825
Si 8.7104713059297 8.590028748208598 2.465080807088404
Si 9.285735353234251 3.342117559422125 5.541477955103795
Si 8.496840567764144 2.850250438023587 3.2878646627281567
Si 7.785997046552448 0.9720357104658296 1.9960372879404966
Si 7.9164585533646195 6.895972969319055 0.9151826792577863
Si 7.167560650263952 6.430597904056051 7.151298843884273
Si 5.732122061431622 4.435489883104345 9.72998985985935
Si 7.530813221421629 4.873783629393247 4.298191965991041
Si 9.250002513088774 5.748573959315595 5.963361552485905
Si 6.751503003925655 0.008561344326936875 3.934695093599722
Si 7.22209066064188 2.662069392909858 6.4703507782634855
Si 6.890333626060729 7.630333811665414 3.566170831740971
Si 5.849596746335562 2.3060082189524076 2.4676062112208466
Si 5.140332242514958 6.618045134612571 2.4394993386356925
Si 5.862424644814666 4.171272438840466 7.654141158912057
Si 5.5281213677450465 1.9743911889096335 4.868989045563397
Si 6.24754827498041 4.67825807745142 1.6105822798040728
Si 6.306397468331607 5.8273071208394605 9.334127045670579
Si 5.689878460339368 6.725372754766241 0.07336036454123801
Si 4.8371736899975355 10.06436612662067 5.3621081708718705
Si 5.5805565609032435 5.228372977803542 5.501446951083699
Si 3.551462651698432 4.0956758226606915 0.17392037040816263
Si 6.927238477847055 0.31582781666157883 6.263849725879623
Si 3.405913201981627 4.815249471142334 4.65936979810735
Si 5.933652283279696 7.743414892398533 5.699202956268257
Si 3.198349649444922 3.751110245016638 2.6126862264170274
Si 1.4985721985782625 4.643301992383482 9.614766992296671
Si 4.007476301289365 6.388288085578434 8.774015669935226
Si 3.2413872291505106 1.4269991929164874 5.577416406413049
Si 3.8541885731623537 2.9269093893305307 7.716033369404343
Si 3.8007703924756466 8.826593952837746 5.614565744483267
Si 3.6376491279672214 1.6910858987809083 1.3563977872762016
Si 2.2615264093330567 1.5709886068516408 3.3747167671118996
Si 3.1370611617386364 7.114092307905605 3.854420632457985
Si 2.487584828882688 4.541060359587277 9.174912230530195
Si 3.5313044792529826 6.559708217324472 6.455693697532686
Si 2.1114845699976326 4.398465514400974 6.713506459322992
Si 1.410449668341796 2.5832121687685934 0.38380172523836986
Si 0.279143280290334 6.698167183070861 4.600513905449346
Si 2.659154993296222 8.365063540057752 7.856919094035112
Si 0.4450756093599598 4.42234844806775 4.740741992739117
Si 1.508348704479437 5.224939008221587 1.4887371445187103
Si 1.6848808268190991 1.7392196159561912 7.371694442302102
Si 0.7004079773344766 3.224813036650915 2.72380364399181
Si 1.215677860527402 7.445145487039878 2.5087783132002097
Si 2.757181002809848 2.1320249407914638 9.614766992296675
Si 0.2910727910028753 5.124420196676961 8.360930200138105
Si 1.101731740661261 6.806014916132911 6.800599500763635
Si 10.3763751467621 3.2682528127242083 6.76809922194047
