55
Energy = -263.65913255 eV
Si 5.579493349609586 8.655893734826426 2.941581360556671
Si 4.86326524757961 6.704794512168536 1.7823023913221352
Si 6.93793575154695 5.842027958741608 2.6134011107805746
Si 7.7364769126221065 3.695847154661061 3.0259327096823987
Si 7.826679762772792 8.026593284195293 3.035926912660657
Si 3.2203624526026804 5.927609264560277 3.2983699078908097
Si 6.440584633370763 1.6517430745191481 3.127740668328833
Si 9.816495545251131 9.25751784368982 3.6732531924928766
Si 4.735280033959396 10.779028811456547 3.62375692512262
Si 2.5633502438962705 3.7671379321743066 4.080982865274501
Si 1.7570222139281457 7.5668652495469715 4.305955458638274
Si 4.498331105463895 2.370413592011605 4.293330027428235
Si 9.925242122222622 3.1933819103231658 3.8379317333303087
Si 6.716770258521509 7.825109379093316 5.25186858962667
Si 11.299119598701898 7.4561569533103444 4.473665433884814
Si 3.1730584101699413 9.412559943282803 4.859888696091953
Si 6.831679229772915 2.7945294430724017 5.160296728587899
Si 6.753168097610943 5.252978785577457 4.967374796592846
Si 9.145163660687004 7.6519875187878155 5.690051784602438
Si 10.17287393550425 5.367558714536104 4.736180765025002
Si 4.477873530840575 4.7051825554608895 5.348249358423719
Si 8.541423581798355 10.093388297558137 5.514392810136934
Si 4.265233606904634 7.235140022423794 5.036364007733964
Si 6.181360795496506 10.237230249907185 5.488929709329157
Si 4.909997647692845 2.0738130556729284 6.625344894573038
Si 1.533424206346675 4.061765401622729 6.320236187804153
Si 12.109878030776382 7.280477266294169 6.812057480561545
Si 9.247801012808832 2.791726631424563 6.196955922266951
Si 8.535794196191475 5.0466903927960365 6.588792417812632
Si 1.9680147048330168 6.396248881307827 6.378975815594348
Si 2.9987508579236257 9.594512732174943 7.217561609566158
Si 11.094550479339965 5.123343121411557 6.944899053282311
Si 9.251599939544633 10.150875032355485 7.735466068635598
Si 4.126470959707913 7.4935953464591245 7.504791720393982
Si 7.245613114773871 1.6006261171188927 7.342453559847277
Si 11.105081524008595 2.925417927582247 7.876297751992507
Si 3.658239286535039 3.938759746044562 7.44360696287448
Si 5.816552512281051 11.022522393138868 7.742546853924078
Si 1.7161369162959998 7.841648166374691 8.199419785501043
Si 5.726258353774838 5.470633139598518 8.22607202716779
Si 7.802203156544315 6.844294481884296 7.96307561219974
Si 7.033300004055133 9.05210229479713 8.135848252529861
Si 10.184573973535633 7.996414747845321 7.9625181628953925
Si 3.741131700543697 11.052617081781483 8.92484630861594
Si 7.271435857021569 3.6169815688802096 8.659699638407535
Si 7.737896404416698 11.16452348966896 9.278410219272413
Si 3.3667892019005534 7.137012936513252 9.821955098917273
Si 4.818936387792801 9.046102232038178 9.63543909930303
Si 9.533058696617484 4.4582427576238475 8.880447684064045
Si 3.8470094677458597 4.76224732908327 9.716895129645522
Si 9.403043668161693 6.675376073039928 9.845997485243528
Si 6.942160750198378 6.382124750190886 10.354356880039214
Si 6.0257935337361435 4.196568432124275 10.61041983337085
Si 7.013402814921284 9.207273522145963 10.547091476733577
Si 8.276856559135846 7.624786765118008 11.839793063416376
