54
Energy = -257.28712938 eV
Si 3.43184837261009 3.4342652684232595 2.909287892252954
Si 6.0988876442892535 4.611646256764665 4.631786578761633
Si 7.805489808126262 8.284894514211537 10.267358419542502
Si 4.031028601375494 10.497663751320628 6.091854761089824
Si 3.240830032709071 1.7888096000413878 6.436262305178561
Si 3.5359925299087043 6.724727256431519 7.035256345854168
Si 9.624881802316613 4.201593199165722 9.549524328629818
Si 5.6422313617272115 4.993287092589285 10.305044179892962
Si 7.474736537094866 10.16958247314143 2.6817610974604085
Si 9.997298753132181 4.441763382729113 4.047166518468737
Si 8.580874913628753 8.094125059788604 5.529425014520881
Si 5.658417164188524 7.263758256831206 9.537279271364326
Si 3.541186719388569 9.206304474645938 4.13897428251873
Si 9.684154345678456 5.887020980219628 5.936853530737033
Si 0.9712715914664884 5.097423612374894 5.15468669378315
Si 8.497407511250804 8.027677894279833 3.0756563554892313
Si 7.7397951185953255 6.266011279356387 1.5206146598880768
Si 6.756028907780281 9.172307852227432 8.228879700155842
Si 5.736031979052888 2.5957462049720794 3.4058486753192043
Si 6.329052423547497 2.2497994969609105 7.634372452383473
Si 8.01250456766122 4.212471841400583 2.755464409075158
Si 8.950269310181431 6.496049845411311 8.775379065825723
Si 8.506143301623132 1.7208071261150673 6.700834524920728
Si 2.251021374208897 5.651132640003563 8.632682493670519
Si 7.527799559096866 5.725802158032183 7.02486274947037
Si 3.2417731149540603 7.727726415969369 9.478467043620174
Si 3.8117069675964204 5.729401111350281 2.6415260333356505
Si 11.279577387886093 2.5321967944784336 4.8837793734243595
Si 2.8435510568907585 9.034452215096799 7.547135273816232
Si 4.119014399509818 1.6728522523417013 8.697178712726203
Si 5.809556564568295 7.227356042140623 7.062875013254526
Si 9.12414770448521 8.817779691169452 7.993041741508744
Si 1.2229981118820445 8.506374009444109 3.9837690365409633
Si 4.805308534472091 3.873869835840899 6.588874431107922
Si 5.408780318567537 6.964329056365724 1.4172428322084265
Si 6.291679201129075 11.141845396871146 6.88029307956292
Si 11.116240248783855 5.5090206237819626 7.8666147583700505
Si 6.4989254466573225 6.731159566536164 3.638558729070369
Si 1.2258679013614542 7.898171104659876 6.316946831786771
Si 9.044778684959072 1.8575737402498638 4.299107264047465
Si 5.532531342527457 8.866833523591053 2.8762067970744836
Si 3.121864815303075 6.840080463257957 4.707211349325527
Si 7.770268023010744 10.282207920974608 5.100988236330114
Si 8.145885955913217 3.8512276434070767 5.592651369713535
Si 4.030915967748133 4.065558445113896 8.87701429800031
Si 5.367743575016661 1.559058549011309 5.541767341131814
Si 7.73189134953272 1.9067291546025569 2.2101270407053044
Si 7.323173515545418 4.190795601049493 8.829122910299704
Si 10.236376165517573 3.4272514184471974 7.035066137791837
Si 2.8230970823915564 3.69472037106867 5.164821714796791
Si 1.4812450525435985 6.302466302121814 2.929074490264661
Si 5.875524122428951 8.882858152410451 5.408181284721561
Si 0.1970143851935024 5.9891621596935565 7.2624921615699245
Si 0.7907792625062785 3.999671411038977 3.0601488971619735
