52
Energy = -247.28612979 eV
Si 6.094311606959177 7.740647876004765 1.4530902939885912
Si 5.50687488949494 5.801849691911813 0.22182599850236268
Si 3.9207708029694017 9.110037338850887 1.832101619823007
Si 4.157020659143624 2.4134293875423003 0.8009970354816394
Si 2.1531892779877153 3.6049223447580765 0.4350309802773309
Si 6.320063137134374 1.6364263660594345 0.21133385639056798
Si 6.374087102068961 3.775753379431318 1.2702269499588936
Si 4.069551776730088 0.9382446956326786 2.623731851028898
Si 3.355175821477633 5.521184061806194 1.042848507376773
Si 7.755687741242064 6.519061734164699 2.7308554155208267
Si 7.529130914391971 9.686709428117428 1.586230998464017
Si 2.4931598806983843 7.286667464229543 2.3274224098707856
Si 1.7229214824948975 0.669229809412844 3.2299836323863245
Si 8.69433096806394 4.271622855502759 2.9089449745521803
Si 4.949728174983606 7.80662453662688 3.707847234162971
Si 6.421480771539321 0.6492503188970185 2.422577714485311
Si 4.169168463245414 5.484852783268557 3.420350894284433
Si 4.296293195212584 10.289148735833276 3.9348592737862482
Si 0.11336247691119997 4.316380424027541 3.8967449292126393
Si 8.812554535042644 8.59335593318417 3.274461651585346
Si 1.5834274426684163 3.0052229655481493 2.627300738056917
Si 4.913971942320274 3.1591333760907214 3.155309341847596
Si 7.2597873055364905 2.4352520901931207 3.7663721541308415
Si 3.1615833345839217 1.722460290036633 4.994386752745485
Si 1.7429762516192406 6.0191974882287305 4.162737291993811
Si 6.938696147499341 5.026003125711567 4.477997667965146
Si 0.6797702996486957 3.021134826120228 5.785062718856958
Si 6.619190999342487 9.694278690910219 3.7985224844311243
Si 3.856067872519236 8.754279425268836 5.7274213392912054
Si 9.413191765182185 5.445552005998189 5.046567069887464
Si 4.776394876397929 8.698110331544022 7.96479761449101
Si 8.392353607691415 9.494603170070611 5.458011242851348
Si 4.607375604120188 0.13122537146789404 6.2702608186518125
Si 3.7004984597735042 5.824350275357504 5.784368434966066
Si 7.685370876394968 7.214338263057446 5.259320414547326
Si 0.8104427239949122 0.6160856760427887 5.546949271901887
Si 5.875705774846945 3.1481289065716744 5.774921842236257
Si 6.273060427815942 1.2422215818231963 7.604728008172672
Si 5.693416236880673 6.8261747684612235 6.792257756382779
Si 2.9320770727503844 3.7366389811725838 6.4544022980352755
Si 0.9373846157060115 3.528886918566533 8.05069795472458
Si 1.857887705637759 7.521643655640964 6.032227010534591
Si 8.018986428256913 1.827431352903427 5.994569269651857
Si 3.1485475357379697 6.919052767063323 7.962352902716711
Si 8.266824509132679 4.098713386681143 6.5882270173616435
Si 2.5041815465252584 0.3782990312236206 7.271435462149712
Si 6.263487259585762 4.657956937348309 7.6727133540790815
Si 2.748997201289753 4.785460957729231 8.890742845983553
Si 4.021754333393138 2.343552930719245 7.935935226704901
Si 1.955649966032014 1.6458516340009521 9.19306940446226
Si 5.966465029923772 2.980018538942474 9.382926552937645
Si 3.617969173831244 3.1156991186758094 10.37429952054332
