55
Energy = -262.50234679 eV
Si 8.411197960327474 9.560463776892068 0.8517155560703862
Si 4.632748212401842 8.113782314681188 1.2268050122779652
Si 7.041100313927243 7.677291050470557 1.5631200888446106
Si 9.249052788633636 3.970072184041804 2.5036770428123987
Si 7.422695731497034 9.877483666647011 3.006939976279641
Si 5.4125755804528 8.683292367699545 3.3721539281128217
Si 8.545620886707091 6.250965389924489 2.7824856838835323
Si 5.096806119381716 4.575191505488752 3.1064597254587785
Si 3.7167335043417804 6.377711666643726 2.544048549298718
Si 7.208086247272198 3.729168694297984 3.648961542053632
Si 1.492154099966392 6.403534023560852 3.4248516271742098
Si 9.54379696246628 8.407589058376848 2.6610034657672865
Si 8.815736082953975 9.097070466365944 4.797320590953554
Si 6.666106439065051 1.8167057028263316 4.990092889259865
Si 9.987040159015947 3.728485193958766 4.82935028840883
Si 4.224139127189668 9.147675150618348 5.487531418305995
Si 8.004337341973986 6.8451403085008335 5.062557648480708
Si 3.889849228647316 3.441208004687907 4.788907621509452
Si 5.506239356661649 6.528405189571684 4.566773437882704
Si 3.0044322014812543 7.1783877824057045 5.090510338640946
Si 11.046999807694743 1.9112053283632002 5.893062413440304
Si 2.015785508731884 4.818819595965326 5.183733355485343
Si 4.367951214754841 1.1752626231242151 5.481223803597393
Si 7.6256967268165265 4.017246594220541 5.986085296866728
Si 11.686962348247313 6.947659444822311 7.0962643799352945
Si 9.937064806854474 5.770559292338302 5.994692024283103
Si 9.656074265624198 10.585309643193815 6.458009518646749
Si 2.53313351378184 6.032126436638806 7.1603948309908905
Si 9.871693885708305 8.462005848882114 7.527957350992819
Si 8.663198851442864 1.8054189271969108 6.320892040155477
Si 5.22413888057071 2.8831389523244386 6.841114360526375
Si 6.649248613692801 5.0143995043572325 7.889547450567031
Si 5.8090102526879015 8.790710260890771 7.267317641474762
Si 7.633852828254433 7.196645779355937 7.476594862363693
Si 3.211531199340705 10.188371293665282 7.376382688548694
Si 10.3105808020321 3.1440072482481907 7.842235472651823
Si 4.652905186923741 5.323540614807511 6.440775005313051
Si 7.697945804318048 10.183586311380317 7.739928814664283
Si 10.446674997708488 5.396988326221896 8.397326333192257
Si 3.687207025711528 12.235670367448552 8.446508221122338
Si 1.9096584711993014 6.363951637042457 9.434261421262754
Si 2.743182494079157 8.575449209634522 9.088787692397817
Si 5.125665342895038 8.528126612128466 9.544724795377794
Si 7.306437223062935 3.4633783614909226 9.693237332505262
Si 5.762449200837357 11.077174007477772 8.78214968872025
Si 8.678543891550643 1.7725570582645545 8.737854036901695
Si 5.019488593350966 3.470488658701621 9.14734777552656
Si 4.202641407277221 5.711631188929106 9.590685825188773
Si 8.466433438992798 5.990658236301642 9.563137643513619
Si 8.352540746878736 8.464172133769603 9.48407642063608
Si 3.416171987589322 10.555236156134523 10.175707726063205
Si 5.829340515574984 6.293691803424368 11.113581068199228
Si 7.716118450510317 4.9235331182097894 11.529123525023891
Si 6.77586262094182 8.466651918240046 11.374836620424183
Si 5.597360749998628 10.551004009145753 11.115176131965784
