55
Energy = -263.98933403 eV
Si 3.2829636366687187 5.512573004556757 2.046322697197192
Si 7.233752668389296 7.827026673856426 2.7542252897124357
Si 3.1913022076286266 7.843844652032828 2.5539425849755126
Si 5.171421882652912 4.496152972629049 3.0435124872903536
Si 7.139506749132243 5.644639069806092 3.5307880407988654
Si 1.2265844829386552 4.563257375853187 2.6688689757802107
Si 9.071154551173903 4.616792152070995 4.2369202748088695
Si 5.224940545032709 8.90487758086211 3.2964570976689216
Si 8.97187355117914 9.242721292525149 3.365321139057405
Si 4.757544798889993 2.3477281820853686 3.9287694697539703
Si 8.208303320833155 11.535064028418883 3.3658998090698913
Si 11.15148190571704 8.36531456018521 3.952328142910825
Si 2.886905185308913 3.8214407475865397 4.131078494528246
Si 5.7566297309527625 11.216780937180745 3.398574001570874
Si 4.030268510023108 6.390180353793712 4.4062075106692005
Si 10.468324850208246 6.338074249620828 5.120777975386879
Si 1.7847207482433896 7.662321375447048 4.444306067330044
Si 8.211139761844926 3.1313946472779626 5.79935565614036
Si 6.933213908151894 5.277028083661392 5.927362960503211
Si 0.17434761813719854 5.93854222733894 4.511658689861147
Si 10.134747510056242 9.164247684958807 5.949509064126899
Si 8.696527172680783 6.925030203016977 6.716042152452845
Si 5.859704983904629 3.08903850402784 5.945331695248884
Si 4.740806474998561 10.5157785358423 5.430847354166312
Si 2.188299570718257 5.4087061866458725 5.720720620508338
Si 5.055909627948279 8.009571219232722 5.853140782824464
Si 8.27565767110742 10.607380513822385 5.525139186912977
Si 7.366334846759351 8.250631635370514 5.211799682480348
Si 11.622301103601261 5.202336661982195 6.892879152917235
Si 6.961188697919089 4.854691625305743 8.790012517868952
Si 2.8078257517925573 11.307517659613035 6.463933516142733
Si 3.27346325188413 5.631550677870448 7.840049331312541
Si 5.498983151819144 6.642194731209081 7.806565130872707
Si 2.6968453639399113 8.909972686832182 6.28235316985945
Si 2.085632750850917 7.70062901616819 8.218952573039266
Si 12.246673213828837 2.988067855223223 7.569028666332273
Si 9.883979424297914 2.752425710595999 7.380494019337444
Si 6.653026163615377 10.08512907421234 7.140961885974187
Si 9.426737775579053 5.1207621850189655 8.229438661230654
Si 5.327580245001006 3.049553220888641 8.295710118469538
Si 10.106203335313566 8.70203488264183 8.196194667413492
Si 11.347983436719586 6.71621391228002 8.631276927163626
Si 7.698058782742497 8.344468768243749 8.461849334157352
Si 4.60384439664587 10.856315451746399 8.06806164812383
Si 3.211851177308119 3.716228153905912 9.29815548693904
Si 9.337663113847947 1.3744371153628525 9.295245227743164
Si 7.309598668599484 2.598433905302111 9.559733306079648
Si 3.985505261813239 8.722420654213106 8.98854765260823
Si 5.354576465612213 7.376451376857734 10.234773831295495
Si 10.786682150766262 3.2683592787607028 9.579014338615906
Si 10.545815783063293 5.434545471969559 10.44432113255302
Si 4.919920806475153 5.04939047726903 10.32908894093295
Si 8.254827240845325 6.030173698955311 10.582644130647271
Si 7.4677212574342855 8.238328998331564 10.83478787730044
Si 6.90523820420552 4.1953235463339 11.2648142981365
