52
Energy = -248.12204101 eV
Si 2.3357673922703692 4.99663393394424 4.451675975388448
Si 0.5069474737136769 1.5877193770635443 5.430418590902966
Si 6.47212317557222 2.3266951488768632 6.341070265969717
Si 5.420477356799634 1.9518531940668968 8.521660425372483
Si 2.4692496474447583 1.1903399100348315 1.2149909726946053
Si 3.177305367776302 2.3279440644528893 7.683155703049528
Si 7.60559173311932 4.462810109812339 6.072053282396648
Si 6.95022980431479 7.806721270017548 5.9401642561875985
Si 2.9936309480210066 1.4491243012790973 5.138369456448991
Si 8.766649990613745 6.423134037023521 4.961892497595134
Si 1.706419599957916 0.3841471865532085 3.3057542662745454
Si 2.7872090283592037 4.426982439463892 8.864435580998014
Si 1.6188629899186053 5.611846101944227 7.150853400724675
Si 0.1893370708687067 5.939555245294539 0.7072963190639211
Si 3.2289031463761466 7.36353842158142 10.477876455405024
Si 3.9591893187962 5.269210567880147 6.776055151019955
Si 8.048436976312397 6.137411458282921 2.5660549410933404
Si 5.5639573970453595 7.915813029457167 10.397022781975732
Si 10.568368543178629 5.377511105577667 4.290249968930565
Si 4.1068560508398155 10.484796664302882 6.732209527320066
Si 10.599906679028855 2.506731227027016 2.0946893745168835
Si 5.439601523850629 1.6372210159548921 2.9195366890311263
Si 0.9683731317091377 7.180092990252985 5.392932163536526
Si 6.404687639053596 5.626313829748587 4.375034546807482
Si 2.9191215701502773 7.264445689525614 3.9793850880525468
Si 2.4231000688766144 8.836159117876718 6.668304743101932
Si 10.108720550604417 0.6506144344472963 3.5613397077900144
Si 0.5784605083268836 1.9663408235895048 10.594324898914024
Si 2.148432238210187 6.93578124312159 1.7745497752370205
Si 4.594077045754559 0.08574677899319719 1.2987386276652542
Si 6.9863934086836865 4.048955307633533 2.1878019825929633
Si 1.702814724761546 0.489303940100691 7.146839609003647
Si 5.588964407726607 3.702920706887487 0.2965778356981352
Si 5.209257151925874 9.532250868509717 3.3575494050660772
Si 1.637810313835779 4.2043256988620445 10.458664124498494
Si 4.336162460294877 5.793323880483288 1.593536316424177
Si 6.451571536212974 1.4147469534437278 0.6167788828647727
Si 5.25723607438471 7.731080090637772 4.199949950752881
Si 4.430149405852082 3.2948296470137555 5.5768744801560235
Si 3.0570133426582036 9.54059593095031 4.458266255523139
Si 6.0812967982168775 7.326383690547873 2.002418389244694
Si 4.954319703238479 5.638988762898325 9.84493327864871
Si 2.765980405379022 5.650350616181574 8.864435580998018
Si 4.688722736723346 3.9223174157511798 3.235484871298868
Si 6.20335647160372 5.901106895369402 7.250496450505891
Si 5.638295758144383 0.49322304061720174 5.066083947713079
Si 1.2919073245079116 4.4668029993252105 2.3116516113084176
Si 9.521813143100635 4.690964484103995 2.2691376101092096
Si 5.153133996705841 4.436267269407483 8.84079174978592
Si 0.6694937335256526 3.8836557195628725 5.868713318465402
Si 7.813778194369235 1.8063407429138982 2.565366598386185
Si 3.36102098836843 3.3685166684343173 1.2328151935024525
