5
Energy = -21.08971606 eV
Si 6.128058699268848 8.036426466780366 7.299020936823456
Si 5.221570049441353 5.615546925946984 5.649964737594012
Si 6.830470464792643 7.2312242175557655 5.243861636811307
Si 6.173450567825751 5.765873508924526 7.755859127449488
Si 8.15065782590683 5.855136488027785 6.555501168557162
