55
Energy = -262.51325819 eV
Si 4.326250912339398 4.916883236051147 1.6929597511653594
Si 8.586614692971288 4.398779070618968 2.0316833883193137
Si 5.870481309312981 6.987940841242461 1.9413749676586234
Si 10.0240118749341 8.442928669310081 2.8628522884469705
Si 8.249035860303689 6.756368112230384 2.5047964097172457
Si 4.817852329660953 2.9834694457888062 3.0545864397904405
Si 3.2688951147919414 4.8917790400187275 3.850600771443515
Si 5.732876293233476 5.305615792980826 3.761245310580048
Si 7.117916461218482 3.426223583760066 3.672743484531796
Si 6.530321292242912 12.69429784150535 3.3763448246485073
Si 10.202931506431355 4.630875434167091 3.749249302843971
Si 4.707376337073598 8.618452694141617 3.322788828044241
Si 10.882773591084078 6.775139056496658 4.342795128503081
Si 3.1785673159111916 2.722081886460062 5.155995155331812
Si 5.135643735333977 10.888867809877881 3.9905281881816195
Si 4.272310659312611 5.964343464823993 5.805597930748913
Si 3.6215690290884868 8.165579577342838 5.451705910205041
Si 8.708668938639217 9.160848881172955 4.754650506962262
Si 6.817945926247581 7.820583315534904 4.204654062406425
Si 7.392020489087002 11.080928236225104 4.932886238942766
Si 7.718939817273351 13.418886231644837 5.397681506421291
Si 7.807354296289183 2.5310982975612926 5.763159535419433
Si 9.11130983682527 5.630585752518938 5.6951795887914365
Si 10.07912638656647 3.2882425861163136 5.660236555365987
Si 10.897330875616914 7.048148114157446 6.737608701064182
Si 6.782780279084432 6.27358566664825 6.001193765381143
Si 2.6011053226648326 4.538294352283726 6.788170718405447
Si 1.8370725806438792 6.912792255090248 6.530634491858007
Si 6.546273608105799 4.124873697851777 7.041099796878713
Si 6.941970036137665 11.976467564043142 7.13975219879922
Si 4.938090289484988 10.016817974628479 6.1881309799111115
Si 4.919090132963245 2.2107602980475054 6.777796428293189
Si 6.7771111259192915 0.596059828377287 6.692215055575726
Si 10.35273460593844 4.591099160564713 7.58938000228951
Si 4.594565289817646 4.9174641042085945 8.320291507892703
Si 6.56169279447927 8.462410945846363 7.097523476357485
Si 4.679105172161686 11.586884117237716 7.924161345489323
Si 9.064251834086608 8.529747165582659 7.083098944026148
Si 11.552002840873794 6.2200340755277965 8.89835902325177
Si 8.10880435484989 10.304249320271444 8.307295766201062
Si 8.252634611472347 4.652660257370504 8.654501713972255
Si 2.938317816817388 6.969582252844693 8.696547640008575
Si 9.15407635742217 6.825774114900213 9.084144627859033
Si 2.1881143293226626 4.784314558753431 9.175570297663944
Si 5.499673797547203 7.181263435794612 8.842695393995992
Si 6.419778498962006 1.6991344136891195 8.80747992799793
Si 4.110682912164966 1.3883149837177198 8.91941928221114
Si 3.838680806378066 3.3767938237744564 10.129647711714076
Si 5.508209021668236 9.876145431613324 9.360521370603363
Si 7.697035606492962 7.907741369096273 10.524937412419582
Si 3.9798015567847878 8.326197648570243 10.4242850070683
Si 5.751365454700501 4.525175564326855 10.633442089151089
Si 7.6288854429722806 3.138146981598369 10.32696895450966
Si 7.495466703133715 10.21424432722736 10.602273962684896
Si 5.722501935163619 6.824023338767156 11.224556331997926
