54
Energy = -257.80828202 eV
Si 5.7299281142495015 7.919607755351873 1.6645182603579123
Si 7.007400680951208 6.096209843460965 0.8779419887517868
Si 3.538493826526109 8.772628755991509 1.509461384699455
Si 6.856247753351283 9.750303156856175 2.6736801056206616
Si 3.8368559048643274 4.59447891903499 2.8871502278685472
Si 6.068706240728172 4.00522000559785 1.7982162838386595
Si 6.089319129388833 5.9935413733400855 3.280432457673048
Si 4.513260045459628 10.257889648472347 3.206973206286275
Si 3.769908227406938 6.995479233909922 3.085684716574434
Si 8.480689558299348 6.528017969235951 2.716629523496661
Si 8.654368437840397 8.607899238662547 3.8190509901617014
Si 3.3796722170530296 12.198425258814652 4.024157962026358
Si 9.904596743111881 4.829901250412537 3.4545585867813453
Si 7.7350527789927535 3.9029470792835723 3.616101618873244
Si 7.783966017624817 1.8924095314217941 5.263819276675642
Si 4.262192522691919 4.193489792677728 5.199257965411892
Si 6.074236375565857 8.872210590573175 4.831158520116548
Si 2.404815691177713 10.36690190995116 5.314024803761418
Si 3.68375096618806 8.408050988534502 4.941208458970362
Si 7.459733809706432 6.992667193312109 5.527376822866627
Si 5.389342314403719 2.0616089733909915 5.635141288235351
Si 9.376334436146447 8.834052442969199 6.040990334164888
Si 4.522571424859327 11.704808697473757 6.014619003157587
Si 9.536056413249856 5.668613801510648 5.665658404549902
Si 8.990471099626006 3.607567027818812 6.823998093420076
Si 6.514551721930248 10.512270921367195 6.495220528277296
Si 0.875817165998638 10.17563570520932 7.174728805130401
Si 6.735983851331056 4.137228280687761 5.80008597014011
Si 10.31242386323013 2.2025638931125027 8.266648118176894
Si 3.0221734125418034 11.10146056790158 7.66205344563681
Si 5.18574947437933 5.673009981909124 6.992793487037943
Si 8.81521487142144 10.913657084955924 6.98136025662759
Si 4.085366903114416 7.879738568702935 7.1852045842911725
Si 10.971692396370186 7.25540121721261 6.812603877659242
Si 7.704106658347206 1.657881163611585 7.783456679111529
Si 5.580752369586106 3.014662929517017 7.818013752103149
Si 7.53657438963317 7.268978660870434 7.947198510536329
Si 8.317025436579648 4.891904182021649 8.804275278492478
Si 6.039974338709715 9.12069208192996 8.34025113874509
Si 3.385303971618668 3.9776370449864795 7.489504085939693
Si 10.555073531630166 4.11007224567625 9.856030538686618
Si 2.0285406422344128 8.113076525329687 8.406022952571657
Si 8.970440313535791 0.5387798970340455 9.414647601338778
Si 3.8581888349482534 9.441039366358005 9.146240098612738
Si 8.372165052070976 9.627161419831804 8.950881734670888
Si 9.721564245737586 7.722697056302054 8.870777915557092
Si 3.3921038427276873 6.0962451875669785 8.74695827034848
Si 6.43723561221558 3.851967896420698 9.944709108724064
Si 5.77558791105324 6.164024174613794 9.372555552348691
Si 9.353636275200921 6.116329046407815 10.617683724573116
Si 8.572944490972219 2.6992590117633632 10.394835095926483
Si 9.615531084872297 4.109172976718782 12.153471412173024
Si 7.132873620047461 5.911331962074297 11.403733380752799
Si 7.083432988494166 3.6611905118439236 12.29624381146763
