55
Energy = -263.02256864 eV
Si 7.8002934348311035 6.787752453984083 0.32910980053352673
Si 10.014577934145539 5.856960805953078 0.9523640656229684
Si 7.2243539434125115 5.499329744525281 2.2549745557841607
Si 7.572640309372242 8.042769698667039 2.3132217277564755
Si 9.294329438397172 4.4900717843213 2.753539141819186
Si 10.767924139761334 6.6516005257586786 3.0410965432342953
Si 9.517549844722106 8.635106696332803 3.5078229246736
Si 4.587437526785277 2.3743568406842432 3.580879252108794
Si 5.471485637411106 4.587351307099487 3.658263864429745
Si 1.3922086218493874 5.0209872777848155 4.0432777842022904
Si 3.4795172684370734 5.879034248147683 3.4877709172238998
Si 5.7988819156944835 9.106614993085486 3.4987358420411336
Si 8.376200333062071 6.5394338129087926 4.270633638989164
Si 3.6680474186072702 8.14785829666729 3.691991683454432
Si 10.437959774696038 2.9730374065962217 4.179722848316766
Si 5.405154935605593 11.368579670482582 4.3693376739799445
Si 3.0943360936407336 3.61324281141305 5.0113000080858106
Si 10.508609392589863 5.243667235978592 4.96675145811853
Si 1.836733298519148 9.122180133231533 4.794448781157717
Si 8.695165168633478 9.210463414308421 5.643038143415241
Si 6.194813659152749 2.293931697348464 5.285523238436282
Si 6.651355612093258 5.41974341812969 5.560490131350055
Si 2.2202227973757465 6.828176641198691 5.487326743664335
Si 8.535177891614586 2.3062165993827275 5.51604024347019
Si 5.740701526167315 8.94704033113925 5.826672216317684
Si 7.187607867058398 11.02478852045079 5.95604490110092
Si 3.7419190051310096 10.286782449389236 5.780963526997429
Si 8.129710377338847 4.187571567065541 6.92098213009688
Si 6.075165122150494 1.2167779998050368 7.399594671641313
Si 5.261927793635342 6.7230971496942225 6.865702174311858
Si 9.817845605708074 5.90168883263025 7.155225148089347
Si 8.473427079087461 0.6799808453299234 7.383671428409283
Si 2.85811437633879 3.519873716349972 7.318556375075077
Si 8.025772726407512 7.5293565049748405 7.187288089842384
Si 6.749864416117412 9.666671710476217 8.059284166682987
Si 3.1421713164559906 5.846730952195726 7.4328399741617845
Si 4.9260474395752665 3.0264830708440775 8.234786385612185
Si 4.314859157424944 10.36941961684976 8.048343675158922
Si 8.018679795112119 11.747114652494881 8.146811552641577
Si 7.870720777543544 2.4992943109245505 8.719030910569638
Si 9.50088966360375 9.769504247390337 7.863678234261587
Si 5.107160258799468 8.00970762477685 8.894257047009402
Si 6.650340298638622 5.900068359717085 8.830641198408744
Si 9.227222204695792 7.903509291243859 9.327971639100488
Si 5.865877122506516 11.506654028613621 9.538981026244505
Si 10.726021080126312 6.021592348957294 9.419603289741815
Si 8.662158931198675 4.83142463489394 9.505712553823802
Si 2.9789426970214463 6.854792620366053 9.613978384833516
Si 3.2695465379278867 9.27537237725349 9.851704498571026
Si 7.108193926181178 7.7136501178306585 10.453064418043017
Si 5.67396097229964 4.0598753476845335 10.20084884486152
Si 7.725882846586238 3.1354093875955193 10.97412553508908
Si 4.823855417156147 6.164965567482294 10.907169547683923
Si 5.362521152647892 9.51183860559711 10.976495456325347
Si 5.937916118948598 7.67049569599253 12.508309987422638
