54
Energy = -254.78805392 eV
Si 8.939612473802637 5.064560324190525 6.23481614961839
Si 5.9658302570225805 8.242042107040337 1.7202388507495652
Si 4.865420083726362 0.8915912708355467 2.1046074368183354
Si 3.857151188698816 9.151517412275451 2.6535478458663304
Si 0.5940081666448859 2.657899616506019 3.8486698140913194
Si 4.820103225027061 6.102453261694079 1.777478174807304
Si 5.612631680819698 3.8581937503216306 5.012846906151766
Si 7.049048137245964 8.226981260639631 7.994673448525429
Si 5.600155478240194 1.5208769978663417 5.690274664526713
Si 0.18103610147529686 4.563931188815135 5.483708959645549
Si 0.8736019525215606 2.411331737670678 6.400209554185011
Si 0.17667865200119728 0.42314708662538125 5.068547060528083
Si 9.336173733279919 8.09203141199812 3.75917879965436
Si 1.9968503180298385 7.6536553748048295 3.3465967152731
Si 4.8702035388023015 10.009912016625547 4.7322320165638425
Si 2.435851484825476 0.3833992780714377 6.08707552925625
Si 2.916706093455444 2.1111258665190777 1.3743594121377305
Si 7.096009766450961 2.318798936461032 7.550407764207431
Si 5.392566902475165 6.135507270078547 9.395775835400306
Si 3.5555632223359295 4.922487793467327 5.454391345486411
Si 6.130197073454868 6.451856464008416 3.8640661274135453
Si 0.509547027905671 5.659295952271716 3.3200213736879194
Si 1.806265403378272 0.6525220021756014 3.1519043230197314
Si 3.275500202142209 7.114167977956595 8.509685085084206
Si 4.021480054861288 0.24209377791552472 4.276257021128695
Si 4.9026153943859185 6.609052355406957 6.834843636093071
Si 4.484767645603626 3.8790608708421894 9.298295666119508
Si 9.60412963522578 7.848022063494257 8.088456584841742
Si 7.674786998132039 1.6452790082260014 4.420777374087721
Si 9.099817870753919 2.6145524142263907 6.225838176180071
Si 4.679882489937326 3.2874134635936545 2.740523438821146
Si 7.9366752740441955 5.866162188516736 8.295653973749667
Si 8.514978292612625 8.914281995509052 6.054147474468937
Si 4.125704207691054 1.4578520195208113 7.601936090516916
Si 6.263185220221744 4.1754060257686145 0.9779130249564681
Si 10.22565067535582 7.068734690234826 5.813211603184401
Si 4.083390834627794 7.612591928596977 4.6884359149546135
Si 1.3954745513901852 4.176448936177855 1.6062371838686351
Si 2.876327514377647 3.543159932541767 7.534235681997393
Si 4.088628876394465 3.840374601535384 0.19331783847688777
Si 6.854978013389762 8.777564713358753 3.9661973917854954
Si 2.771980182041958 5.822777003569833 0.4227253774536131
Si 8.282937552611095 6.005400297328543 2.884168091124238
Si 1.8051305901632129 7.890698877683777 5.733207939868026
Si 3.7068520814768933 8.925130129747401 6.815142626096699
Si 6.001010786984467 4.443122822902171 7.488657601276991
Si 2.871969199776202 2.493267413511167 4.778931292969214
Si 6.925339322205991 2.0662745852545985 2.0965828989299693
Si 1.8247297496586432 5.751560553739863 6.896876497959752
Si 7.180292712295607 6.787324019237218 6.029661980384629
Si 2.9405290295129314 5.322714671757101 3.144916681707105
Si 5.68209614043502 1.7494867734827837 9.461151666849897
Si 7.857889724213079 4.14057883449519 4.325404323979019
Si 7.350218337054096 6.314487794103101 0.6611428746689683
