54
Energy = -257.91698701 eV
Si 5.22942718790957 9.853790326586266 1.3177927475190967
Si 2.724015273633712 6.236268482277715 1.222111273548971
Si 9.211753246784761 8.460150456244303 1.899919212970539
Si 4.7548262277886515 7.508576278204222 1.7098961487571869
Si 10.099329886283984 6.27329703613077 1.938707603729422
Si 7.2134151362731735 9.552883006742631 2.6150314301981656
Si 8.169483531863955 5.205869575931559 2.869394602772271
Si 10.606952291661019 9.898861989679574 3.1714977809015985
Si 4.128196810363667 9.400557333772605 3.3671230772383027
Si 6.27866544833379 6.519556418265616 3.1724680124123954
Si 2.584973639597759 7.697852933904311 3.0681403711840756
Si 3.0307902154064137 5.111031423441619 3.3832100353878882
Si 10.564914865503933 7.640436935474766 3.8059050896389537
Si 7.155099319634204 3.3515047913386393 3.9099637360754973
Si 5.206323325312113 4.773491334099436 4.273156060590871
Si 8.53287808592888 10.292633413686067 4.368325899896302
Si 8.295695406544727 1.317459082606457 4.752874548053881
Si 8.31054871755615 4.838147270739843 5.486346083228225
Si 7.032021078684255 8.152807609474896 4.658882785138363
Si 5.022429535164099 9.071343944648241 5.571450924951913
Si 1.2428651640346604 4.477820397426141 4.87433250759438
Si 8.976592183300868 7.03813183160908 5.416076593730046
Si 1.9520763438567408 6.693772867443105 5.100920238120713
Si 9.460990241203781 2.9136261969386017 6.175108651147242
Si 6.151189344237729 10.374982053298403 7.16399615076593
Si 8.153665513751376 11.490826932675327 6.402362605515763
Si 4.815596987261003 5.183996409204814 6.549241494921336
Si 7.393290417890371 1.7906792792831634 6.980311047915852
Si 6.861659075912377 4.055295090562091 7.192545338450992
Si 3.641219272696048 7.40716053933085 6.5761966228825335
Si 7.162652524153123 8.464304294723805 8.195897249795179
Si 9.307239610779723 7.644383027731111 7.612594390404166
Si 2.5768196508099166 4.45114046736164 6.871943580451239
Si 5.550247770479284 6.71096235712063 8.387102247935434
Si 9.154337557039561 10.188748205900728 8.159255696269781
Si 11.07113031992251 8.812314373686274 8.62990793740481
Si 3.1646614547813723 7.330205513221534 8.910972494594045
Si 11.014522283429638 3.5392097062559995 8.07720808322214
Si 7.522601028275305 10.305851779488117 9.880313163694721
Si 9.624098867184655 1.4172586835138505 8.148832188966589
Si 5.225577751570675 10.89257100665819 9.352554692310168
Si 9.433929530980874 5.24680422979875 8.84873394216099
Si 7.479873403741499 1.67445815842291 9.492097078101743
Si 7.403704712606888 4.152004441343358 9.519033587409238
Si 2.6284425500234363 3.1689142201968665 8.843041824610749
Si 3.597170496025545 4.794907142055344 10.155130825964807
Si 5.786287230452288 5.617855125745666 10.44876894824982
Si 1.5673484379024554 5.499497645477727 8.857450853081824
Si 9.74766748353843 7.296206125553553 10.009131407855476
Si 4.786306146059909 8.591919402585754 10.047554857314767
Si 7.630154138882771 8.178266105730891 10.718011712758216
Si 9.58657204177017 2.922144260636648 10.083841999107035
Si 5.757712727436384 7.465455895295406 11.968025855323985
Si 1.4200585077791914 4.051806590473358 10.789306707773271
