51
Energy = -247.01715213 eV
Si 5.300187303722426 1.4935401193348423 7.856371150339697
Si 7.115029654701268 2.975497956014735 8.294999604749156
Si 8.818958332246716 2.3958713757408705 6.764936592279457
Si 4.653936001426386 2.158033899029207 5.579918163993726
Si 5.959665332748251 1.2572205112449975 3.768698205261258
Si 7.86760217317974 2.3693651006734195 4.620046512786766
Si 3.59165183534863 4.39446403915403 2.300821354884061
Si 5.791538766519625 3.4277097345394956 2.738591259135973
Si 8.14425818755723 5.764228743770381 9.046828551108844
Si 10.348893436333668 5.6883123906337945 8.19879592287489
Si 7.424978989599356 3.9648475507334155 10.434607055351448
Si 10.576370344738967 3.9299850341364486 6.596288388310454
Si 9.329816761111053 3.4699528631650574 3.063026683040043
Si 10.179944021819603 5.047073979056098 4.570399082158151
Si 4.600424733544685 6.676656015250271 9.401472329960875
Si 5.7623017937676115 8.710586701898057 9.997375534417753
Si 5.241037514815085 4.471928916096599 9.701260705153206
Si 8.076409824297343 8.087712377125788 9.613365860508956
Si 9.181350614667945 9.18985940303748 7.717550194058297
Si 4.999117389390314 9.657168009329972 7.965757101343246
Si 5.768378540900168 11.529810463875402 6.764744137880357
Si 7.753323560918824 10.342283702615406 6.30184682295105
Si 10.0944042146965 7.37952234695611 6.547926982963281
Si 2.439376092185632 3.525835577685862 7.424121855470897
Si 0.9357819186428169 5.453770976612536 7.547551659819139
Si 3.7126772180019962 2.699548959829055 9.25908548666406
Si 2.6351188124872236 7.050516657143488 8.166166987325123
Si 2.6265884913334987 9.391115484504775 7.655977870190178
Si 2.3143621552152527 4.085997491581675 4.308896431067393
Si 2.2583731611555415 2.068712793277199 5.5509191075040585
Si 2.707660183646929 9.663546116052212 5.201914592401513
Si 2.322177040675984 7.483812337687229 4.384089098451967
Si 0.7345828570044088 5.825126932576098 5.0341091246172045
Si 5.025228529687736 10.210902353816627 4.9382261940723575
Si 6.072577941747057 10.343520974973796 2.826224051487968
Si 11.341232389724961 7.140411077189373 4.497537441796648
Si 9.17905343488118 7.761462168038942 3.8292247787266134
Si 8.001044563562369 9.764308277002588 4.0863926044522705
Si 7.6706243063594455 4.4198617366044655 1.5265642794188041
Si 7.573768983748285 6.546807520098287 2.625893801375874
Si 3.911718662199647 6.635815268221642 2.8853157877530022
Si 5.749520673749286 8.004813891650615 2.6508447509525372
Si 5.731345034057273 6.810103646341338 4.756974873051442
Si 7.678523567054526 7.869366838289262 5.9199430137930085
Si 4.776012950885658 4.55852886388382 4.6449258391493915
Si 8.310207970896151 4.88887076389714 6.661242963981289
Si 7.454732337015941 4.750704884349426 4.251500514613302
Si 6.337191823920931 7.403768158805614 7.938934021043779
Si 4.130946693606285 7.90621121536906 6.220333673186604
Si 3.0298774797290613 5.621458909221978 6.182486042511542
Si 4.941942314400448 3.915295807510279 7.360801875237828
