51
Energy = -242.09221458 eV
Si 2.345686915149506 4.412053108318567 1.541571561848983
Si 4.512493190226658 5.755408596384627 0.953315938192905
Si 5.879499416209097 3.7889161202892745 0.951695562361136
Si 2.3313116390664272 6.3594684763824345 0.16817248896974346
Si 1.911864243030338 4.442758779460708 3.854260690947083
Si 3.7186099949598717 2.4878629505518797 1.9111531234877857
Si 4.357969530493576 9.018661921096664 2.0330697584831796
Si 3.7920359169109283 5.847146257281974 3.310001007962701
Si 0.9498918606926935 6.301836247683027 4.985797744690806
Si 6.095632039023774 7.565248057060702 1.067767586190151
Si 2.4795457040522115 7.577116014528139 2.2864563750359466
Si 5.388524399743852 1.382619991847704 0.6755995025253015
Si 5.403574460839196 1.4532274970168626 5.08864677602099
Si 6.3996058067512855 1.264448096390082 2.903914441489299
Si 3.4016336083755236 2.5115609498960594 4.297867030339231
Si 8.192008096962562 4.428563078923341 0.9541371315857394
Si 0.9775611201778782 8.455561748051334 3.966885098890148
Si 2.122367175109639 2.8903392774135104 6.662509303939556
Si 4.966988224714705 6.8572938894913396 5.168531344620057
Si 4.6555720022178955 9.917864740238677 4.192855590246309
Si 5.410162942540007 3.6808921273293356 3.3717002705464805
Si 6.157694315953406 8.051425684976046 3.530246234600864
Si 0.4238964772757723 6.353590501724701 7.374373159481802
Si 7.68618845546741 6.2608031845619685 2.5119443233346046
Si 2.466002816399206 5.247537248356331 6.569406988144608
Si 7.994929816119095 2.960862409105841 2.83670080758259
Si 2.9989159034801167 8.427594045534182 5.233372019713487
Si 6.972592154826949 5.1918503530603255 4.6062308365765015
Si 2.4249318407394655 7.7334952316272165 7.520737222121485
Si 7.002150835339169 10.162921114816092 4.791699810173495
Si 8.626086379920721 8.078578255811825 3.906496423649124
Si 1.397862982310148 4.408306409593671 8.568054673460107
Si 7.108920943549356 2.9524630994321814 5.812227917523611
Si 4.037077645006569 2.6068316778921896 8.026070168897121
Si 4.4579380740308245 6.14257041433736 7.471139907047102
Si 9.083271379380271 3.84590477451713 4.721337052373044
Si 5.303504032558408 0.5752223385520846 7.405326796922853
Si 5.819392656629844 7.999221607976707 8.704982064964526
Si 9.491814148763595 2.2533551416789286 6.554661928920688
Si 6.413845950783441 8.49136582099009 6.443673928254868
Si 8.107762180389576 6.903740958470338 6.002079625614295
Si 3.674855987707725 7.36171341491466 9.524843906253308
Si 3.802477718941083 4.7684404724118306 9.358381191770755
Si 6.813144180172231 5.743554886730773 7.8802650297452805
Si 7.545514565396945 1.395816983176946 7.913517092833741
Si 7.551487632271839 6.8060931800503965 9.9239556373868
Si 6.2182149444793335 3.419973090773202 7.989148708807624
Si 9.04946801256472 3.887424179881821 8.231814058965572
Si 9.173580954086386 6.2506907578751605 8.095948316323963
Si 6.22925794316246 4.728272239297174 10.12812643500998
Si 7.815665517420996 2.7921556380670665 9.932856839295745
