52
Energy = -251.43134956 eV
Si 7.4829877183483395 6.896114098682679 8.57672369471951
Si 3.029566473120715 3.196508903944382 4.588802788443593
Si 4.210571406387854 9.79456919407152 2.6936392564160676
Si 3.776342526067149 5.508146531930192 2.191833580834826
Si 4.563787223797498 5.108452730771064 4.450044162449676
Si 3.740973226408978 5.220960972550154 8.29211420595802
Si 2.336077807921736 6.898950071664795 7.350537350178266
Si 2.3986993516067487 10.807309355909151 6.164994438746218
Si 4.747903128403004 6.580454466106939 6.384273405458576
Si 7.394659154022884 4.330796913617712 7.145488381367086
Si 7.314472128712514 6.616639116233699 6.219616083568985
Si 7.063894463212652 7.007821521701875 1.5267220032189845
Si 1.851813098043858 5.0354638378955086 3.5824571665435205
Si 9.713920149956214 6.8588724637034675 9.666663896141927
Si 3.092442594165704 1.7308577268796967 6.491293578980389
Si 6.6114420646342325 3.1876542775918786 4.873596448293854
Si 4.327325083048182 9.853549168804308 9.642030824731572
Si 8.480989193809798 1.632646352357106 4.047015564787956
Si 7.063937978122476 5.962600105330378 3.7944812275111843
Si 4.713088102721215 3.687451405296495 6.650786673825993
Si 4.982244660124127 8.163449514708411 4.506049008783475
Si 9.981804376180731 3.6287060819572927 7.482616352812424
Si 3.0927571594446297 9.133503876570897 7.697525523650446
Si 2.7103754584923436 9.106203756037393 4.484129076616682
Si 2.453116918765055 6.830225442817503 5.0139188125273675
Si 9.728773628604465 7.5069802357822395 7.343220434013098
Si 9.421299743229428 9.721013744711845 6.5546264053336225
Si 8.32926665422462 2.1875010469466543 6.4449969965022476
Si 9.64800187246594 5.620630680184574 3.7421258828006945
Si 7.831573343077303 8.733121681286434 5.064189480928872
Si 6.112777302650137 0.940539518208527 3.8304367493705986
Si 4.716497084169805 3.7160090816743434 0.9230566884848973
Si 4.8141977262160145 2.752779749872174 3.0769483343935597
Si 5.518988617931049 8.781443647958625 7.7115801547636655
Si 5.549078881468803 5.761697080031188 9.725742346264223
Si 8.737689790566103 7.717160373912494 3.052427370701466
Si 8.313814053343128 3.8225051706684003 3.097365741104336
Si 6.809603366816229 3.914477436280153 10.564659941578
Si 6.1082413223083964 10.278972122679193 4.302583508249104
Si 9.656043537090856 5.559536975710132 6.102283069072431
Si 8.646384641690018 4.748556265710962 9.209226561001147
Si 3.4571138052708084 2.8546071803337822 8.674975160851734
Si 5.927629774128144 2.7824053620903753 8.664502764641606
Si 6.9181944193687315 0.7790561300991476 7.793021117534908
Si 4.868891216897713 7.57860138041084 2.1902455152047153
Si 5.874661101853539 11.196553775205512 8.332308953876762
Si 7.751367457202036 9.711801046691855 8.23890357340263
Si 4.769114070757844 10.628843027363686 6.258252687793695
Si 5.745773627234216 8.01058401930606 10.167818388664326
Si 8.078933113348626 8.627383443755791 10.368166880050259
Si 5.403505579681722 1.2164455389534758 6.054776464488995
Si 6.749114050119704 4.694607624272003 1.615926549597891
