55
Energy = -263.7747105 eV
Si 3.0484497467722345 3.9122911881521962 1.2737365762926633
Si 9.367778088669072 7.975698066831537 2.0585467343722814
Si 7.524869279680901 4.085990684232439 2.083411737482779
Si 7.5079927385726615 6.46726659679759 2.3542125781441268
Si 6.5897396963074755 12.766997374531087 3.105899208978592
Si 5.28039560664355 7.1801389930914 2.1460792407078166
Si 3.771847651944555 2.5087167419955967 3.0752251344091515
Si 4.2151468490342605 5.236090504106789 3.0324750685699353
Si 1.7001937067248594 4.07137551097138 3.227627087835417
Si 8.344111440980948 8.835566061842774 4.064807302662651
Si 10.34637228662696 6.381371312168075 3.5407167060983507
Si 4.471202589339076 8.757236024975846 3.7144573018174483
Si 7.368407845709787 10.932259542544305 4.478642159516218
Si 5.794721579098862 3.5704417080508386 3.6570044654715645
Si 5.006672933089892 11.109009551824588 3.861279500565775
Si 9.190471350002555 4.347534401520556 3.700638103181533
Si 2.3058834776728987 8.191299516112528 4.574593331050153
Si 2.4915851605454833 5.806895456844993 4.593759263385328
Si 8.217151701688026 13.149406137238309 4.807277330851413
Si 2.1324052986241124 2.333099887229786 4.683390325325429
Si 6.401696223772169 7.497530064886748 4.407872167825845
Si 9.079241420737004 5.998970175502412 5.6737946322606465
Si 11.482027242414393 6.677235594114209 5.569552402827135
Si 9.127101796306318 8.403391566743537 6.222263243899439
Si 7.460094477222104 11.889593559515138 6.779938488825538
Si 9.291111444737238 3.539181591279174 5.895827629258488
Si 6.186405907167422 3.5747631071034927 5.985925725517638
Si 7.790478691849626 2.1628244540462207 7.028943175605655
Si 2.2896556045576584 4.772397449362137 6.734029507668036
Si 10.945214641871505 4.857374640921322 6.929846483219981
Si 11.276365461442488 8.487929723489207 7.225094481509481
Si 1.9631310581690806 2.426318810207649 7.092866822971804
Si 3.334131743801486 7.925541311632739 6.610565055422758
Si 4.436289275952181 5.735339026849751 7.565402694134391
Si 4.212246713523778 3.158041033760643 7.295614475186174
Si 5.3769962292553455 11.067855629111257 6.152815640667558
Si 7.40049214625171 9.483653812274715 7.487775798238189
Si 6.3888950293497775 5.98549350615722 6.238494455447784
Si 2.2731454148652914 6.631872816695584 8.296948883620246
Si 4.982724746638196 9.2634325276048 7.572972182950351
Si 10.112412037125262 6.625809070435538 8.335893756115055
Si 7.607265355552271 3.9294720610214826 8.648664820301926
Si 7.7011953228225005 6.2982853836281745 8.194972827273224
Si 5.302197695587185 4.0638794658776485 9.194148602932342
Si 7.02852873082217 8.394132771864053 9.648340342468886
Si 4.111253791254602 6.926857211820106 9.79383030932457
Si 8.49689651217979 4.128149638383296 10.930452896756602
Si 4.827918610869498 9.161647204158202 9.95376022735642
Si 10.406341522497502 4.713505529660452 12.297096049802846
Si 9.950581713455666 6.378111261026396 10.696624149732479
Si 4.842288426223592 5.191367281744439 11.234393470906655
Si 7.067349544036555 6.1307155932749255 10.713673523625946
Si 8.522281141719326 8.067147836826308 11.569667791290811
Si 6.749173556860017 4.31084255554517 12.645484569030206
Si 8.40147174138607 6.022651472419565 12.842673559311912
