53
Energy = -252.53802569 eV
Si 5.779229066561362 3.437678914155173 0.06086611519447828
Si 5.111177596958157 0.5492033247187353 2.4823319289283967
Si 6.866712030684267 1.6288183891459027 1.2915304758119974
Si 3.1986213684336886 0.9021476345501255 1.1448436631076455
Si 1.370835495985088 0.31019412654159784 2.566176763476953
Si 8.4672547890008 6.179363738851548 0.48844473395183363
Si 4.927974901416986 10.673351139431158 4.273635669915592
Si 3.4229873930995214 3.09443242188694 0.4169411388539639
Si 6.146036280166631 5.656448747533159 1.0379631379178194
Si 8.209249669075097 2.6787860671685504 2.9460531769205334
Si 6.091786653360309 3.6855753846072843 2.5939979802290387
Si 0.036903837402079094 2.2177956085208472 3.1934424588588954
Si 0.8428991102348176 4.297858416911326 2.34768842749184
Si 9.183616414668348 4.689701365207573 2.258283001985825
Si 2.5195032482557562 10.757796236433661 4.429283749501237
Si 1.8072369279460512 4.823881135100906 0.1224612002967297
Si 4.820558884047436 0.8899151939280149 5.668946750928467
Si 3.9147162728416927 2.714600189410058 2.8363871535629896
Si 9.033232204177741 4.949968063285104 5.599433040618603
Si 3.75150873954479 6.166076977515229 0.7475315318793371
Si 8.689242748183307 7.0968146308817674 2.7040895665258122
Si 1.1152840749728523 9.684703282527884 2.965137375522644
Si 7.606901841659734 3.112509394829577 5.201147725924192
Si 2.4128228523725364 1.7377935661515298 4.338256510164051
Si 6.592386826076109 5.301333134767329 5.1705021478667375
Si 3.0924468424916887 5.0066165725537 2.7178946612898747
Si 2.606844291453418 0.6661344314699901 6.440424380323853
Si 10.433579326437295 5.933924508221751 3.8705914023437784
Si 6.549194861174527 1.8199436201512365 6.903274981965012
Si 6.238317646952726 6.683441729275735 3.3127689808020024
Si 7.472289419386109 8.857976472380065 3.681914330742853
Si 1.74464873771284 8.699768905782275 3.692386888021016
Si 3.2217423194519266 8.31051917675959 1.697090533260965
Si 2.5254371661771566 4.846720347893173 5.21291641312629
Si 0.6342021630568695 3.1508468807357732 5.315905629985568
Si 2.7547849947643277 3.5240246466655885 7.290668322021056
Si 3.7454980533795386 7.206247295007571 3.9966532178352363
Si 7.697039549598529 6.195170867146922 7.176288713281885
Si 11.662363630190779 5.245646216470742 4.379123218797779
Si 0.8040337237635351 2.113545787722721 7.542262299132428
Si 4.586583622483214 5.355108530713951 6.409047236924993
Si 6.846696264857127 7.835725511936039 5.7364384421279135
Si 5.140072734538546 9.028286084670862 2.934062636116959
Si 5.078969634311359 3.421265192471224 7.8475742781246876
Si 1.2305274956763803 4.055231517213373 9.149631606717438
Si 3.739220700887169 9.684703282527884 4.743688696436619
Si 1.2671623255859579 6.933087111871606 5.426384461399793
Si 1.8413935289410484 5.8622292177497055 7.5502301362389606
Si 5.819882853095827 5.498828816085867 8.718422648993053
Si 3.614594798906356 3.946719298819654 9.801360759792658
Si 4.5618863939450085 8.048333124877153 6.225265957447216
Si 3.837219246969205 6.950621408328258 8.218436313214445
Si 4.3717829614019506 6.181464133267746 10.45557078748527
