51
Energy = -242.41501657 eV
Si 3.536943089820552 3.088342258196752 10.071939818248495
Si 3.6890131427245296 0.7071367394059799 10.067265814405374
Si 5.450450303965995 4.510841797814461 9.79055140542843
Si 5.904474465819161 1.2325687158220962 0.7610327563862547
Si 1.529641130032711 4.390329187069677 0.07950827395481559
Si 0.33116414552589774 1.2652168179487746 2.083755077116946
Si 7.783304345217725 4.434053302138141 0.595245732167219
Si 4.565288370797558 6.42897674516172 0.7907746783478493
Si 2.2499900814608216 6.372382504701183 1.1616599723141003
Si 9.798336253678563 3.433278540621661 1.2881915241341724
Si 2.9129480635748224 4.096718277502653 2.1836542460779707
Si 8.044967445073661 6.719298686591115 1.5611684204374991
Si 3.981022480160501 1.7823437251230971 2.2679675603795024
Si 5.12292287042479 9.657849644326038 2.695314642459588
Si 2.4659213216023885 10.007854473708267 2.16285688262569
Si 5.875611826385303 3.448138553483275 1.9131867883214397
Si 7.524382877339751 0.727399147899914 2.544562314148652
Si 9.444114264870139 4.974591580687889 3.0525533448973086
Si 1.097177724761327 3.2123501012166886 3.4194991683028917
Si 9.994122002279767 1.242824170929271 4.431800853402293
Si 6.021948263707274 8.256137324974576 1.2461120596231603
Si 5.035350968856687 8.764361776938607 3.527087650766684
Si 8.198676610682572 3.123802644008602 2.7189443344618627
Si 5.904147047049349 6.490700267897078 2.874713654614049
Si 1.5432007113564734 8.232689625439024 4.711318087637869
Si 6.622357204461364 7.710321440794727 4.959758228037767
Si 1.1868668028084177 6.438334388965955 3.249555798639436
Si 5.865441138361127 4.446363984157822 5.810782729370928
Si 8.07075294785989 6.134965069037606 3.880816286971752
Si 8.122685546164346 3.9742083036466664 5.020602695922217
Si 6.995134649408296 9.293127521743434 4.406324833141875
Si 8.198676610682572 5.2093446930651295 5.0971168555262665
Si 0.2812054106363158 6.144127225845043 5.70324673976813
Si 3.6332556429697487 6.898492853092575 4.489503194262091
Si 3.6156793875378637 2.541180212723143 4.778575734716394
Si 4.8028013496644135 0.23007765404133246 5.116905528786616
Si 6.304542988541672 2.2220784259062865 4.241006817590835
Si 9.733760771188804 3.4113700618981153 5.4605710389607065
Si 2.2009735581682612 0.5079792172279736 4.626134980976017
Si 3.052583551002987 9.32036075310947 6.600731916418847
Si 4.571067361682223 4.708095782402388 3.771852045647496
Si 5.262903814818895 6.6255091439120335 6.574135734954068
Si 0.9184045415785242 7.963506559123598 7.072699870195157
Si 6.963238760195262 0.9183957343578969 6.19307335224422
Si 0.8442116280834597 3.146906908423844 7.6206661480737345
Si 2.898880695538482 6.607300281295595 6.938941191981283
Si 4.968756568482229 0.5604027973270472 7.6251359248611985
Si 4.555652185132542 2.916091983587544 7.103599519562539
Si 2.477354943764098 1.5871835777815508 6.860577950334524
Si 2.01692515883149 4.391020641735939 5.68615842231818
Si 2.8692510889047877 4.448472184262716 7.983185304585969
