55
Energy = -264.53095215 eV
Si 7.3776260356275 4.9937414712883355 1.4353540994664549
Si 8.294332578216714 7.2594845534478925 1.2880654656690091
Si 3.4681141080420916 6.328189807382104 2.4974188962932953
Si 5.432919585984385 4.868416587045422 2.8268963690321516
Si 9.187057910809617 3.7010852830514263 2.5096553546071
Si 4.4641072504666655 8.445977514489725 2.7669057834349315
Si 6.743131247903749 8.667047926289271 2.3491216101476815
Si 9.84869976632273 7.584690014656572 3.0591289562508353
Si 8.281837666738019 5.8299820898688015 3.5298767760461085
Si 10.834736314347783 5.433284188518749 3.2783943654765393
Si 5.368212746763123 2.8305080999873633 4.02871051474202
Si 3.4919368359569267 10.296218458770873 3.8088156923082352
Si 2.6417539295957333 6.513985419673494 4.78332965342173
Si 5.117914441052624 6.535354751057695 4.435319029625925
Si 7.588131487137012 10.327624897858408 3.690297980871408
Si 7.728419451503282 2.9865048093976787 4.407375993693197
Si 9.91720944113088 9.679112338169997 4.29587561023263
Si 5.566748402901167 10.470568832889958 4.998954241275681
Si 2.7150528032937515 8.829920611149443 5.507753789630033
Si 2.1009086816000857 4.481031485354414 5.907653337255481
Si 5.6580589784793505 5.440438394494123 6.832162502846332
Si 4.3431878316181 3.589386268791045 6.083881076879431
Si 10.885631000214799 4.844670718869318 5.578422736883711
Si 7.750235218363702 5.045941379828701 5.743060317159545
Si 8.76829792444392 8.313480273688413 5.893028383766884
Si 6.609694620678667 8.309076870016469 4.850149140925207
Si 7.666203854446493 1.1069070559260092 6.083641994485616
Si 8.982864789439619 3.0798540310324487 6.618706457881967
Si 4.407838923828342 7.510740431286703 6.649896904489659
Si 9.50120178064603 6.267013548677203 6.79966151368594
Si 11.425074272844158 2.71790721611202 6.3114403881169405
Si 5.223338228577921 11.435430572871963 7.167076698906369
Si 7.979868365267642 9.203062023956385 7.921090800073925
Si 4.460926661548595 2.1779499102772686 8.070623417745809
Si 2.8644890480033864 5.625915383741516 7.802112995238069
Si 8.862092376655387 0.9913346959400844 8.166297808462804
Si 6.835397827285586 2.3137527530022455 8.12955909381208
Si 6.70674656091811 5.919227559224358 8.906288895417381
Si 1.4663187993217714 9.63490088748462 7.363842088699358
Si 4.401880836266499 4.308840672428052 9.02176370080999
Si 7.078059580296297 11.301442117343312 8.664689667822323
Si 5.642338861270063 9.198770696650831 8.02705972523855
Si 9.225443310165488 5.885723489222287 9.125227660580357
Si 10.394990180780239 2.8234407356786297 8.503741332267753
Si 3.385555284792179 10.643677490239595 8.382036796495212
Si 2.4208656827780626 7.780391510175196 8.455954913650308
Si 8.174005259409824 7.878351549732175 9.856756740624725
Si 7.688423027530801 3.8302687794439163 9.778454167760922
Si 5.729343915732048 4.780158042888998 10.92646337445411
Si 5.970660901099331 10.270937033888698 10.446803674114523
Si 9.962956773457979 4.090261372641309 10.505042892647584
Si 5.832676604670807 7.166764542581236 10.837595273267123
Si 4.101383295096259 8.516979861306188 9.92483025739886
Si 3.6269172002994434 10.681709133257009 10.8069608978963
Si 7.2981815383789925 8.75256385695446 11.86077219001445
