52
Energy = -246.93982651 eV
Si 2.0777699374760785 2.589025423337952 6.335958039637568
Si 2.02664138439533 10.53385629092328 3.466012263865423
Si 6.164392663127273 1.5241979437374003 2.247125313276427
Si 4.567130684093605 4.4817528186486655 7.54024171507626
Si 6.613491308815303 0.16220962876078746 4.801312835082099
Si 3.534851070881314 2.4969968291900857 8.434664461838176
Si 6.763811531763627 5.078783737255675 1.1427554256840606
Si 10.887087595575316 1.1702571781082411 3.197254166615977
Si 1.481510488549629 5.3760632877578525 1.4449744300839908
Si 2.5897739192770315 5.020966875798971 6.447958026702197
Si 0.22492758956263154 7.3145481648468405 2.350260442718943
Si 7.906647741237613 3.1290938529371957 1.8821277315118223
Si 4.06128527350001 0.11994240489492519 8.448279846895494
Si 9.428412086555626 5.129841231908234 1.8271847599674202
Si 0.09394199720466029 8.724818692679538 0.5336469905402998
Si 0.7546803313534518 11.606329611127787 1.782532872966257
Si 6.748545870593211 5.42855574910607 7.304907347169468
Si 4.461075257674107 4.5543354566735115 1.2296649088337699
Si 0.34863378448938875 2.8348793270183696 4.626904659132174
Si 1.8523384398707814 1.2870342287366014 3.5001783779329205
Si 10.67224456832895 4.710344671243971 3.931175470303639
Si 11.053246668375829 6.322785900188294 0.3200213872127403
Si 6.1736835693543695 6.036036396319304 5.036858407525916
Si 1.6187080131253884 4.813401224731475 3.7762020738309587
Si 6.062876648403154 10.813944402747266 6.997786956940055
Si 2.3709494998000173 1.6876756665750712 1.2535853234459777
Si 9.428412086555625 3.491111397468282 3.699944725498125
Si 7.438189974093698 2.314891872735817 4.3405968763344465
Si 4.113594650396534 3.5389428762197124 5.1076279419439885
Si 4.28749639465929 5.381675212133508 3.5543927489270812
Si 4.574108629835345 2.266243126645022 0.7180594603442634
Si 5.291365828540999 1.4689644520338934 6.87397334400537
Si 5.822265641597938 8.800335502418584 2.5946275854446053
Si 0.08021316418284284 6.744381843282255 4.604354792081999
Si 0.827392402864857 3.21347049296459 0.5060223293141661
Si 1.0255234587441784 5.041120732604215 10.731841155172306
Si 4.402875933063894 10.815589404269845 3.380431695273079
Si 3.1771473134537187 5.997228206127538 11.49698883954066
Si 7.429230244465494 7.276860670270467 1.703285111784786
Si 6.624776760938514 10.88175873576648 2.5879425487784875
Si 9.341677098623133 7.259876360851105 3.1199588735185215
Si 6.411136452003385 3.4024929406706614 6.150910781311177
Si 2.3201050235076393 7.77980057965043 1.133581562289282
Si 1.7271685804308847 9.71818576647986 5.690753086164231
Si 3.738510026217753 7.723640842295896 3.031059961286489
Si 2.4603760677450057 6.866961387212911 4.9302803153776935
Si 2.452262895858249 0.15258587628105114 6.5540214276480855
Si 10.656759093272328 3.126915806721493 1.835490066550117
Si 7.295574404940142 7.935230363658985 4.178238877295548
Si 4.106165457692305 10.21319784861834 5.635535706988526
Si 4.027939245350816 1.112249622759208 4.822195160995881
Si 7.787082899917377 5.316489917571474 3.4415116727336574
