55
Energy = -262.81193086 eV
Si 11.939960832161333 6.723169346470854 1.885358139346997
Si 9.629795650236986 6.299169030913767 1.6290099834941392
Si 6.859771008278511 8.937246784383992 2.35256276335679
Si 9.271961301084989 4.044326888346814 1.5275474841413048
Si 11.207000063466891 4.578055837918684 2.6253228765407655
Si 7.2346889165712875 2.8371459703542055 1.7232433350724514
Si 7.751433097019999 6.824335395759847 3.0022927998200237
Si 6.416379276638851 4.820028830551908 2.8451811009994237
Si 5.249252379344087 8.472214451644357 3.9795437985843356
Si 11.59803304139477 7.046864318178925 4.2330850601055445
Si 4.158163529342511 4.980143389510701 3.620099087298747
Si 2.3672428581637575 3.469984248055101 4.125623115746409
Si 7.529837434398864 10.178572300793725 4.302042651998867
Si 10.676355624650197 4.644417153194477 4.959279392236588
Si 3.314878726992052 7.173942923747964 3.7190583767977756
Si 9.083313840322445 6.50022737912713 4.947117096594905
Si 7.740344607451094 2.8464090494283134 4.021710526069718
Si 10.254540578460968 8.571510979440458 5.437632171645109
Si 5.351168905727294 10.42372966947234 5.222371809145074
Si 6.017996058196286 4.5384060356406035 5.357428210059662
Si 9.250240944312521 10.696942325880007 5.791399879466758
Si 3.9709958938142247 2.98152709323493 5.747905674782979
Si 2.624466296814587 7.054803659644862 5.976676363420387
Si 1.4196038744399724 4.917795112793488 5.841377298731061
Si 9.644105842508624 2.5785525003028287 5.388541863351195
Si 6.058668179869931 1.9923864955789774 5.465344377340929
Si 5.010456614479412 6.737807486823867 5.6357415421611305
Si 12.534305912866442 5.717340796775858 6.036947232025198
Si 2.539461492147085 5.368906619953425 7.819056606093212
Si 7.2272922969496625 9.67887885039537 6.724094414982179
Si 6.667377273303298 1.4070384974173236 7.65819977744938
Si 2.6105994188927375 8.963521518456755 7.422191808851705
Si 8.28374538559201 3.0291338982299876 7.232885669587208
Si 4.324168747679281 10.625524424465342 7.337343914235185
Si 4.947131061489028 5.1765309389987175 8.306463678288045
Si 4.798848777982822 2.8377523191735845 8.019076462356773
Si 10.876533961761737 7.048673059784635 7.068943402512095
Si 7.7851632086995615 5.626289269513261 6.815792316582116
Si 6.686378925944428 7.561583090109675 7.660348888780379
Si 6.837180292542639 11.302147277364563 8.391299370560679
Si 4.630489102744088 8.330025216646973 8.85001368220567
Si 1.1049459677827054 6.060645612777998 9.607586241106452
Si 4.776221119655542 12.486430038696772 8.709942615992023
Si 2.1869555165292005 8.18292422580734 9.539223281998654
Si 9.303234342939133 6.6942668442150355 8.776104271964625
Si 3.2777877802248954 5.4628483443149225 10.373477891203928
Si 8.526009536027704 4.492432711102934 9.02066369019301
Si 4.56373857095138 3.4828649233866686 10.327013222826665
Si 6.482250185997476 4.954105697826541 10.159287705101256
Si 5.096997137540205 10.450976434163595 10.001102994350523
Si 7.676468905912441 7.982331765886693 9.865015125389732
Si 4.579390124244169 7.307412631301151 11.040495089932309
Si 7.446723329853845 10.304728136629794 10.42055441695972
Si 3.317977959134785 9.356839281578765 11.28030119213481
Si 6.7819682884698675 6.738132917835183 11.674078258026942
