55
Energy = -262.9765081 eV
Si 7.531510913489844 5.881956489622328 1.24372082411844
Si 3.4138776467932885 6.1765742546440645 2.0855616382278703
Si 5.590969003889135 5.34097893774487 2.4240778042480753
Si 9.517093947593663 9.494387527183223 2.230693339305241
Si 7.6346155151129045 8.020108855723523 2.2956127665175248
Si 3.2902587344163674 8.437924797109753 2.8418095430109243
Si 8.41669654503861 4.643032787742682 3.050159759406453
Si 5.578639767242908 9.21046364442209 2.4971894610551417
Si 5.328314504718193 3.4017844593352695 3.706488998912095
Si 10.721629043060004 5.333547493262428 3.4296876495841992
Si 2.455721159505442 4.822464109624024 3.72998066786695
Si 10.313303922751393 7.7103803282725645 3.610704621227118
Si 4.894740426338811 6.986004481775606 4.029922787340258
Si 6.1851996151825555 10.801204903878592 4.107400900085274
Si 7.5109361025746395 2.4893608111369065 3.5037525158964904
Si 3.116326007407983 2.5042332635479476 3.8834668641449883
Si 8.44824314621209 10.135224555413338 4.268173850944052
Si 2.769411080378955 8.117470368889151 5.186135159842587
Si 8.65345321302997 6.328685363947262 4.7478328744626666
Si 1.2236179107561655 6.170585455550441 5.266599478540069
Si 6.788916226263056 8.35002659178703 4.726791118842257
Si 3.676002009783918 5.827218103899459 5.725989147319973
Si 8.043080210304145 2.5043590704769776 5.779747029983294
Si 10.99554891952955 5.433402384791382 5.78379127251486
Si 10.48741868120429 7.730366072163478 5.922661073002075
Si 9.075782829315031 10.703053550460872 6.461736443599993
Si 3.9461387298646877 3.418295730849417 5.9158721129221465
Si 1.9043215765296615 4.534918784726674 6.945758908916326
Si 3.6564832407250414 6.30873635451328 8.063808214501218
Si 9.37014552237082 2.0588093404436 7.689179924047425
Si 10.814340913641573 9.426121568397608 7.5324335225625925
Si 8.74924609930388 4.591277314497315 6.4899299528663015
Si 5.385949523465488 9.88040441278277 6.1401720880397015
Si 3.09606118390473 9.920579006642138 6.689779274479247
Si 8.323510525432969 8.385793506730444 7.170045726000676
Si 10.867431973313739 4.117689352736139 7.7747058027400895
Si 7.074599528498988 10.545505324871499 7.651477385094781
Si 4.9041631537337915 2.5479998786925666 7.932655261846601
Si 1.8902855013540303 4.926568252518166 9.269399200947682
Si 7.201813506672471 2.986826106038681 8.304934144027042
Si 1.3203081721474956 7.1574150315733025 8.57167866757831
Si 7.908802539455709 5.417462549085721 8.604489024760051
Si 3.148283347327824 8.606218195950909 8.708337416516548
Si 9.68205793431924 8.266598677872867 9.26704584972404
Si 7.2653750569015285 9.223194657071184 9.615489083792664
Si 10.175636403250534 5.927743009630473 9.234103776833534
Si 4.208280278254817 4.3222915258058485 9.342603179348826
Si 6.23169887408206 6.4711178099769775 9.843059966825502
Si 5.075946282223967 8.466160554002753 10.115019713832629
Si 7.281531124605261 3.713190647857344 10.54756146155425
Si 8.952607081083816 9.342274460523974 11.280967303065516
Si 8.915971033497177 5.287719350504849 11.065551117406164
Si 7.758078011157906 7.25914299396703 11.631718590649307
Si 5.310096311286536 4.737785608503996 11.363883525636112
Si 5.4195294897039314 7.097361330829114 12.198652213488614
