54
Energy = -257.74693075 eV
Si 7.898095233096225 10.194268609203695 1.210862088368828
Si 5.193949797116525 7.3635121205404515 1.1696375143733608
Si 3.766649104529144 9.280159204850474 1.447630461829932
Si 7.5981327328346815 7.805358050145609 1.0421603598860256
Si 5.68993779669867 10.56246235980569 1.916438474083152
Si 9.032868862969618 6.853508645896891 2.601589641085025
Si 8.004416290770866 10.963683128798339 3.51953886831619
Si 8.645326343420413 4.643285487996687 3.306850386288818
Si 4.815747356865827 6.061506566898588 3.099027037513964
Si 4.88211228600511 8.512760802000622 3.430286146165225
Si 6.100368928517122 12.379945488792846 3.4042031770905448
Si 10.745379307455323 7.956156334303938 3.9028491175042075
Si 7.2302959609760595 8.506095553554749 3.391113904689209
Si 10.26706185414932 4.021274256058119 4.954577906965306
Si 7.579646769280916 6.475157029873242 4.800620361710698
Si 6.395653594541631 4.443798532479565 3.768368406575091
Si 9.034801172526386 9.401710085464238 4.846993498647635
Si 3.5060206229444 5.553610174903869 5.013661625915732
Si 5.347649461784315 3.3095966704344977 5.58320437357282
Si 9.85337606212112 6.334710764525969 5.475403262203008
Si 5.923969722270977 11.094295910689377 5.331021958043173
Si 2.9536310923082794 3.211896332568028 5.278979304959231
Si 1.8986853706504898 9.546718734313425 6.2233552637666865
Si 8.760767081369442 3.1278555890954753 6.532283603036586
Si 2.3275993644166606 7.140648875541505 6.406807973488901
Si 5.846892369065662 5.575466482467178 6.221336029865875
Si 4.841292788081732 7.669029598478584 6.936513499459335
Si 7.027392704524173 11.533786049902682 7.383120534077
Si 2.953388894465142 4.418224149193622 7.302240521865954
Si 1.3721362653110072 5.928562999293345 8.229438655206758
Si 6.904126025193042 1.6782840065873363 6.463348799323029
Si 4.18852134818587 9.439494030854881 5.532655784600187
Si 8.374315240754676 9.524308758408106 7.1407543598456344
Si 3.0566667993737977 9.634652991676882 8.404656156545633
Si 10.003772155745374 6.608802090984026 7.861307955261229
Si 9.637303150701177 3.2958616886973435 8.679540025631265
Si 6.948922932980848 3.2489958429873522 8.362969530219821
Si 3.2623023052356297 7.309563205596859 8.816801633328776
Si 7.596104506351229 5.832634993069757 8.179111119694987
Si 5.333867837088179 10.016035859549682 8.08169555003125
Si 6.619758105923974 0.7494255994014257 8.726092288755448
Si 6.784342153810612 8.159984083487515 8.46394180593454
Si 10.378250295224781 8.932674697440296 8.359437697775448
Si 10.943021120699246 5.052415453647987 9.496058468212432
Si 4.853607499178389 4.325763207253828 8.713855071813335
Si 8.320961636973028 1.8687266813491437 9.967024862019084
Si 5.340459811455223 6.505409281723174 9.657413862653405
Si 8.775972857034459 7.8056435601085425 9.701144584209839
Si 8.720693905294599 5.438169048764831 10.29323882526419
Si 5.703354156281441 2.0443831647840778 10.648343893576651
Si 3.615935962859216 3.173601006119587 10.57022353787143
Si 7.386522187566891 3.99857452682757 11.652933314217453
Si 5.240110509721326 4.777211525931115 11.264691619366467
Si 7.50971245905433 1.7021902604324688 12.224495451049284
