50
Energy = -235.8876359 eV
Si 4.830423083349943 9.376329652676112 10.780405666797662
Si 4.966144762326536 4.144395569763294 2.0769186850491663
Si 8.37746505874693 10.22959400248218 7.751180374543349
Si 5.842055472090839 6.410401233054141 1.4558027470462334
Si 5.297508947438621 7.06848105585997 11.816093519878628
Si 5.597614468654394 9.421451188185932 8.487589179049749
Si 6.082019515360462 10.225742941709608 5.119826140179028
Si 6.8500421715961615 4.229149706897001 6.897447811539307
Si 8.294423794177714 6.604418317771398 2.0044766585110563
Si 4.506047418531033 6.603923764396702 3.622808750068981
Si 5.321062301735033 5.045214780765586 5.237216030861781
Si 10.940614718381234 7.398439641818985 7.111747241202501
Si 7.54835861249057 9.126535522762644 3.5819819558090416
Si 2.9696202425162763 4.837252893525112 3.2458338526234267
Si 5.821874061720461 4.184561845955911 9.129326512471374
Si 10.330200977998214 7.301138812303709 9.505377677388887
Si 3.4958793210366723 3.404606648499928 5.2084786701835135
Si 8.55688505795382 8.188225945560271 6.494175479917564
Si 8.27634852445533 8.561914466674475 9.491832412165492
Si 4.159417491843379 10.230010933524941 3.6244488419254566
Si 10.411996005915103 9.698600298238624 6.466779711287575
Si 8.382811207773834 3.008433471875877 3.974221597509034
Si 6.36299612965952 11.364201308491346 7.272415999143715
Si 2.2849043140438607 4.774145981379289 6.872395695791786
Si 4.16905521848011 7.255058980020092 9.554029695672144
Si 8.26795201925201 3.3705096609369334 8.739358064427995
Si 8.846464605896687 6.144136448369572 7.753926641590485
Si 6.4274321610657195 1.7420614756990442 9.063674909727153
Si 6.620148392827366 1.7704869979318592 6.452457309229911
Si 7.916272059228303 6.774921997360038 4.485617526035042
Si 5.504543724384101 8.568705050702045 2.467622597476214
Si 6.989564406214817 8.734516983439011 11.528172129335852
Si 1.929073436107956 7.013699273206163 6.161131915750329
Si 9.519615105368704 4.55975236963746 2.459996165253983
Si 9.099102010193583 4.919200118876207 5.579412366698833
Si 3.3906575453239287 4.893435637964421 9.018840416549398
Si 3.7151793937812374 8.41565655069822 5.095833555029958
Si 5.648371067277122 2.6996137031156073 4.201939170181858
Si 6.996050107976902 4.8605267261447755 3.2535894726104093
Si 6.818166398951003 6.123224185027001 10.24474506059435
Si 4.692474028675382 2.8220320956559046 7.4313531164674265
Si 4.211624022621591 6.316521935300613 7.11694585517377
Si 9.807217407057637 8.63289097692386 4.280577188086024
Si 8.900785807218407 2.628025113305796 6.45047075679752
Si 3.497445250511061 8.793405148796795 7.454196447393232
Si 10.47147748980845 6.183707626366047 4.110833078341467
Si 6.56358787697274 7.198560009364066 8.090592944307625
Si 1.8136468077887011 7.544810008626776 8.57223877474904
Si 9.070196975875433 5.269569834418279 10.066782054550957
Si 6.191554852958685 7.879511351359726 5.700112978745648
