52
Energy = -246.30200679 eV
Si 0.09790778739853592 4.5719109127232755 6.041716869641851
Si 5.291584824885866 4.278273108034549 3.7571595851374893
Si 9.017632582881951 6.55267202696957 1.5850716148283521
Si 4.9205618685581705 7.111072322327646 0.23085981690136761
Si 3.124874136318616 3.7776319863572256 2.544056903005329
Si 0.9339252941437612 0.7710657948427543 2.2918965382276455
Si 4.245452287640214 8.469212845591782 1.325535756755112
Si 4.000078255632356 5.633088795022771 6.6850791805429575
Si 7.824790740421945 4.777349213003066 4.284373858284799
Si 3.0556198355625295 5.732181597963156 1.1448968349369468
Si 7.344248176143246 3.406814713335489 2.4685497587716183
Si 5.229767031098109 0.5932764845838766 1.2201285576777108
Si 2.386840920940237 4.776680721391632 5.094155321570946
Si 7.202244009926135 6.831564003863852 1.033900657539311
Si 6.596088927526586 1.2771496812921672 3.0098349442753918
Si 5.78555932996188 3.955042802508548 9.034849369198094
Si 9.31785038342909 4.140043207738348 0.7950306714981865
Si 1.3650024865416681 7.257123896444831 1.7265910081383746
Si 3.655028752024271 8.024197610821767 2.077198219154491
Si 1.7530262329590232 0.7481587886955624 6.4610085592662
Si 8.781720297598754 5.665469240866509 4.033823919880205
Si 3.830477622172239 5.446907833033065 8.743984933286026
Si 0.15400460028453827 3.8775204008128825 8.30487201831359
Si 3.5641004466086508 9.717813304635241 7.64948701096142
Si 2.716625946182763 2.398014406663985 4.872939093048135
Si 6.986086357731975 0.2505935112043124 7.034455739882251
Si 5.35893826955604 1.0126284092872893 8.743984933286026
Si 5.62303762484457 4.902984921962432 1.3324984682506427
Si 3.4291200458009965 1.2434026108388736 2.846025962515652
Si 0.7203279694315491 4.716181811749999 2.6346175831277154
Si 4.992012282791556 9.654704747397851 5.7507337441023765
Si 6.888306260371608 6.799942593638771 3.4556615206017227
Si 4.459067771200715 6.718367050847669 3.951407630255082
Si 7.827491390715816 4.507703804811209 0.35764023195267897
Si 1.8408497488872095 9.764050149396756 4.286743101520274
Si 2.5526018856713817 0.042462423287070776 0.737641467915629
Si 2.4233381844014454 1.6040825333295443 8.902430232191236
Si 1.2860260571627729 2.755165400658337 0.840079781841215
Si 3.956278017970126 7.925820074695953 5.987644068496303
Si 6.266590938262798 7.306429037372198 5.697508270218486
Si 0.99244300446969 6.591740402174961 4.028486986506372
Si 2.42802658589387 4.102180189751662 7.602705910665567
Si 9.741250600822028 1.9746897320717445 6.788966411160261
Si 3.790053781670919 2.1625173678762817 7.211604582975057
Si 8.682962040350167 3.405644252142125 3.015554544271361
Si 3.9753225914282337 8.983155598236186 3.6772676474381454
Si 3.6887091979241657 3.355607071151479 0.18649918782945094
Si 5.216808167295485 1.833820974729118 4.870054549498404
Si 6.225953990526595 4.8049704314543416 6.071408214530786
Si 4.935148238995854 1.5880291605633448 9.074449276250771
Si 6.2100723939350315 2.53309367850564 6.894544236574126
Si 0.28340335560912194 2.645035891903335 4.543719513568147
