54
Energy = -258.72269147 eV
Si 2.7451023782412873 4.775816095416369 1.480578051007176
Si 6.592324955764178 3.930186656601949 2.330537733816778
Si 4.909510405956487 5.689820845514042 2.324737398434802
Si 8.558718329683169 7.075322109873726 2.248244772370442
Si 6.268477415667009 7.668624098331797 2.0944724442683595
Si 8.169299011692273 5.122716655562239 3.580805107048726
Si 3.1089085414446864 3.338461275385051 3.409877168038118
Si 1.7616165820346101 5.436623299469917 3.623866756976382
Si 6.0486746361836286 9.707981652810378 3.2420577852048935
Si 5.331511757807551 3.4227700135269825 4.185807437977942
Si 8.195030948495637 10.263770442443356 4.106492078653042
Si 4.676588151534392 5.196027583538748 5.938397972395792
Si 4.163202131523035 10.785898738171422 4.233556432396676
Si 9.759049847758531 8.587374998348697 3.660372647710443
Si 3.764763265048926 6.532559825357814 4.267197938291336
Si 7.430201806199441 7.87136362955783 4.331893395390076
Si 3.565186672667335 8.689421506574151 5.252974613755364
Si 12.513968665378393 4.805698734081204 4.886814901935917
Si 1.766241058914742 3.481266623051128 5.283475728887846
Si 9.917252040048709 4.5020648092987665 4.98895240016616
Si 1.2382307727246096 8.789002085562165 6.048100660312828
Si 11.966177293270352 5.611927341252209 5.236752468920938
Si 10.231428717588184 7.215193752828449 5.634253213775231
Si 7.61653031395004 9.297817032011451 6.633876900350078
Si 6.203136417386678 6.280285430389754 7.2970601687990655
Si 1.178448595964253 6.366402839441558 6.00303343881184
Si 7.980300845677352 11.661977075090478 6.065874252108819
Si 8.065426425189278 6.113913347899777 5.856233904834988
Si 5.679156281850887 11.036219025358658 6.044354661541028
Si 5.538201639999068 2.865332319808047 6.41134675292463
Si 3.372175796582682 3.422166882661507 7.136756764881708
Si 9.112066379872998 3.1932013901928706 6.780008156364541
Si 11.858641803376372 5.417426490861404 7.613509619666894
Si 5.348729463304051 8.44501528181134 7.002109127571434
Si 2.830307262058773 5.872989059866712 7.623570988662323
Si 10.910537228972128 3.3485869124006205 8.300914567575061
Si 2.8627895907051006 8.249194220969844 7.69211387048356
Si 10.346414316216357 7.471630541321225 8.050838698514758
Si 7.241986723301465 2.313753609021979 7.922095655100658
Si 9.217823750880003 5.221541119992746 8.298459010166326
Si 8.13319005504014 11.055593557924945 8.546580576070049
Si 12.513968665378389 7.257909762165216 9.016927876248493
Si 5.751956088667174 10.645092983447563 8.379094207398294
Si 8.455404677592378 8.668229555167187 8.803297023163301
Si 3.1883787498019887 4.365020622592697 9.38916120936218
Si 5.400327918578807 5.579863615270855 9.406769787667017
Si 7.37408210592076 4.204462259899482 9.512107929807181
Si 4.4363960440202135 8.94367182689544 9.258386585679862
Si 10.12154418177284 4.045191534559618 10.426243694832198
Si 10.919486381806943 6.200734551804177 10.457275490422358
Si 7.26925681922232 7.414247335695475 10.352140948338075
Si 8.20394435734861 3.9075012415900834 11.772129459940592
Si 5.022078387056806 7.404748095859647 10.985550894735457
Si 8.874238852569167 6.221075590617434 11.562646555391993
