50
Energy = -236.88133341 eV
Si 3.0926254000706543 4.334979595707376 0.4702348680119143
Si 2.9110582071759326 0.670174634771456 9.9276691552198
Si 4.48107353339473 2.459262714284909 10.436453152108145
Si 5.497994120744273 5.8233116437675525 0.825548709616189
Si 7.690118286636088 4.741726813450347 0.31751355867929054
Si 9.863398321590536 2.2081749701253623 0.8894123943406512
Si 1.5608043551600035 2.4227904774711653 0.13885397410141798
Si 4.517103441328068 8.02859394549038 0.4831839309924631
Si 4.118855958143548 3.124974039766915 2.332023829704113
Si 1.5835393297723326 5.924683657795831 1.6184417406563207
Si 6.873242819925257 2.3612083906776875 10.309880107824453
Si 6.956181382850614 0.8756855673129388 1.6932555069484594
Si 6.555982359074733 7.809511575721008 2.0908994202180944
Si 10.082556626713984 5.942663460701847 2.9853780713590736
Si 9.804799667444698 1.0419279778447559 3.012040435501584
Si 6.380860852242586 3.3696669473362273 1.8464373175552455
Si 8.451636266454013 4.415759290494605 2.7385631566629915
Si 1.2512840615268173 2.333933064822285 2.5080320917236634
Si 2.714582969269005 0.36763915165092764 1.6776836670005744
Si 4.5816402855498355 9.36915631442717 2.5936718047395537
Si 9.403662860244468 3.6918476048956226 2.680420903389085
Si 1.2998773606627179 0.15490005229246032 3.621754955186779
Si 3.3085038360503725 7.224977850119523 2.522850340133412
Si 4.767761704126058 0.8274046888350628 2.7222341987432284
Si 7.804269313094481 2.193244443029757 3.484899576139655
Si 5.678581922259338 2.9101106021878196 4.755857596260344
Si 2.128312089375309 1.56045624818997 5.538291305847793
Si 1.5169702658318924 4.445843875044513 3.479455858902305
Si 8.515852317797481 2.390547190432131 4.454377105525159
Si 5.244386868177687 5.842892501027364 3.208250126182667
Si 7.901490761104033 3.511543055552595 6.418105419428154
Si 5.630627996032994 7.941405198199922 4.452860497529212
Si 3.6778475640061 4.324917679579851 4.457271429013432
Si 0.12665740943763645 5.234826521671449 5.247608476436275
Si 3.0924835678198583 8.607092202530627 4.486127295118972
Si 7.028381086302617 4.970548684547531 4.704152288361415
Si 10.540662027704094 2.888341125361379 5.6784464366594465
Si 3.72963000845967 6.538066318186979 5.663673279484618
Si 4.4334146876425065 0.8089332243871336 5.0931030762970195
Si 2.8004045949362943 3.7424962539471505 6.765485011092284
Si 5.301064686447646 3.865670069831872 7.0909373518209025
Si 7.207469367154903 4.558412349773532 8.44030507263279
Si 8.515852317797481 1.3476894431064579 5.646114064265914
Si 2.0484015165497733 1.8266260438026942 7.94293926804324
Si 1.6822702822212083 5.852145728739285 6.9749985755008135
Si 5.994759458683752 6.221117177632374 6.535994570987824
Si 6.290212721795361 1.2670446186125035 6.5701918156751935
Si 0.4568445461471434 3.6611249884717516 7.925872622628606
Si 3.8535770473026876 3.108344032123903 8.993475689143825
Si 6.0999257682807615 2.2757602560829975 8.78359313077282
