53
Energy = -256.15357654 eV
Si 2.8121567088367803 9.140275697357229 3.9235177021944887
Si 3.528524525503795 5.407991990716537 2.997900733249822
Si 2.3365315090165653 5.09005387112027 8.869503994256307
Si 2.4528610733478917 1.9387464978767597 4.708968412274493
Si 4.075929735022461 1.9952312653748252 6.455823949499107
Si 5.0280071536092175 9.884992381958435 4.561304779007055
Si 5.565304715121573 6.325318808422364 11.239490314395724
Si 4.557339208822158 11.126466530742755 6.5073163763053765
Si 6.94927960320679 4.6609381881886165 10.239726366071261
Si 1.913918807628459 5.800476494593801 6.5923763199866965
Si 8.214584974163726 8.934328892666803 4.237004556679369
Si 9.618545060393002 8.24684491101674 7.52686158800765
Si 4.466040257380696 2.1720979298392233 3.4904353072699847
Si 7.158441893664135 6.157919025603259 1.648127126656397
Si 3.990302039573528 3.4300195725118114 8.288140880290008
Si 9.076179555605414 6.175328717849707 3.0266451859439663
Si 7.155013885603995 8.129507848459417 10.74719893781676
Si 6.706779846506515 3.8578308366989 1.0844071012306586
Si 3.878918562619674 6.863424189362183 9.50543257068203
Si 6.683480141352394 10.186729075215522 2.8748060580037604
Si 2.7028037761942123 4.300934600721177 4.910201588043723
Si 8.056531551540745 9.672877323476348 6.508907612026229
Si 5.8622683403085 2.639543363845291 9.598305022543517
Si 10.012813882444599 6.8242178864545995 5.678760302769007
Si 3.312498529820867 9.311108590496598 7.536718782735872
Si 7.331193088546866 2.128491359743278 7.740824941356867
Si 4.358594192501408 3.5904229793181486 1.6140560981322347
Si 3.427155993480447 9.191144583752846 9.890082870777176
Si 8.787760404059364 4.071115129821331 7.612115787567701
Si 7.616736051367068 3.0281230270021426 3.2620843255977436
Si 5.859085805253375 8.029777300821724 2.3230414321212676
Si 8.671736119521226 7.010339158409375 9.288552625806894
Si 5.756062285472257 9.391400194325698 9.301922420296762
Si 10.388268705205785 8.04574862286364 3.666466084895535
Si 2.112536859910466 8.059756146465581 5.951783115722395
Si 9.814753794163662 3.9327043174002916 3.5499935285423283
Si 6.4981738952081685 0.9394020069603741 3.9001449902063303
Si 6.078765716608048 0.5284320325745036 6.365270861766067
Si 6.618839691375906 11.127852776707948 7.85951466637195
Si 9.327912728306794 4.814980447755894 9.84773114318666
Si 3.5421219524323035 7.611378010034266 2.254254092976975
Si 10.428362953836462 4.481023391852201 5.88259152576166
Si 6.941954070393273 6.67895486108829 4.317417526984253
Si 6.404760133474297 4.472615581819669 7.8599166550748185
Si 5.728596308136771 8.906998324255445 6.8616705273682745
Si 6.217005284554166 6.814335716693672 8.861546240488202
Si 4.558069233818461 7.380348541877125 4.53108988173891
Si 5.829238301194 4.68736492314275 3.2937033158843345
Si 8.044276696054059 4.699981160429758 5.180128721108777
Si 6.309730956630992 2.8653479536006112 5.510212587036791
Si 7.599967662115922 7.060684962590196 6.7021574529770005
Si 4.110056098632531 6.850128523204661 6.942444655473697
Si 4.764999960922301 4.569713755383969 6.113170637302224
