5
Energy = -18.93844032 eV
Si 6.92103668070121 6.92103668070121 6.92103668070121
Si 6.92103668070121 8.063457299112631 8.942395999999999
Si 5.778616062289788 6.92103668070121 4.899677361402419
Si 8.063457299112631 6.92103668070121 4.899677361402419
Si 6.92103668070121 5.778616062289788 8.942395999999999
