51
Energy = -242.09836482 eV
Si 0.8756575161444842 8.74318266605681 3.661565772525876
Si 0.8933845511063532 7.312147376540398 6.789707838672882
Si 3.8824755909396456 0.5931956711592703 7.196230901246634
Si 1.6477830826283988 2.0104274672692344 4.2223005067015915
Si 3.2655806172045354 9.075915804369846 4.038331127129183
Si 7.781903699531244 6.998531791959747 5.537743015362974
Si 8.250024969170491 2.8940888865391132 6.403926533006075
Si 2.4528357545234782 4.2427337213979825 3.277313426466175
Si 7.167979568724443 6.629576205278344 1.6219247833915014
Si 5.785310842420576 5.468993450104903 4.671379757431265
Si 4.925515991662206 3.1651887980942526 8.485817498844671
Si 4.404117421674269 6.805113932771061 9.491578502821005
Si 1.5443983771360552 3.489602231430235 6.906842223188489
Si 6.376420276317474 5.426745284603622 10.044797063377281
Si 6.982762423393774 1.9486036464771397 4.565438436749482
Si 5.377960273551019 9.443749036069844 2.543034102880018
Si 8.089037973473824 5.640939327625724 3.543172928828389
Si 4.587751799144207 5.037684535150761 6.839065311219769
Si 2.6000819974700398 6.832518243890816 3.1767756480946745
Si 2.523391350893769 5.883394129433096 0.28578994513182393
Si 5.363713517967442 3.617231703557126 1.0418939518510608
Si 1.8797603019620917 1.5813828709754718 1.7912121404122754
Si 5.973980384257239 9.807256303798384 7.221030449883018
Si 4.652174677687161 3.3010026571651414 3.981105516059671
Si 3.9289084358098703 6.723288415900612 8.4355696678105
Si 7.717072556808984 9.948309342100746 3.6960721715579785
Si 7.4805717298273615 9.720058504717684 1.254106628882737
Si 5.551677016068501 0.029113610557477947 4.8734673683760965
Si 4.704308873799632 6.023962663986319 1.5976395431508206
Si 6.088286121278312 1.3204217301785612 1.3542872535775812
Si 1.726990429970866 5.600719354491419 8.209233016844586
Si 1.8868250406714806 9.443749036069844 6.077228513739734
Si 2.9463023955477405 3.6279119627460212 1.0612537098407995
Si 5.6166240109670635 8.197956137337497 2.4394189468060863
Si 5.5334074755853395 7.80996632389806 4.801739703452756
Si 6.955642837750512 3.649252951868939 2.883843155819229
Si 1.4739467702037168 7.902901417427583 1.2479154745167034
Si 2.228640463385478 5.630430259330566 5.591834134572998
Si 3.745670904079537 2.8192397820036046 6.181983668008531
Si 8.273615429698129 1.6464437902044824 2.3703618841487244
Si 3.5034438058203694 7.677402319807397 6.168960638369849
Si 4.063853646153027 1.2549920592059902 2.7799405722047412
Si 0.37832412797627407 4.398891011330146 4.407682340874177
Si 2.753926254117384 2.1259615729320998 8.633167456324882
Si 10.082269830124611 2.4936294686293192 5.6473773001450125
Si 0.029348168829275604 6.710941523371781 4.689711095258914
Si 5.955594092271126 5.337124376043118 8.911841696744306
Si 7.0996730023869095 5.014265371141624 6.761261176890934
Si 3.8266644806012344 8.34826722077251 0.9237580699956098
Si 3.077673088332436 0.22838666615265998 4.990465329732717
Si 6.4591176215586295 1.7646605597929113 7.3859742047221575
