55
Energy = -263.69265827 eV
Si 3.2969813770431453 6.272704102113941 1.6373265343937844
Si 7.203908081662581 5.834561969067069 1.9849458673128424
Si 5.0674325695168525 5.196513778354731 2.7825481367163376
Si 5.965171366702985 9.662535384104075 1.9725786825219103
Si 7.689794999609577 8.025257167914251 2.500024332039593
Si 4.072372364463468 8.371052093169393 2.700859524983726
Si 8.885138854030219 4.166558770834203 2.1399346730162483
Si 9.615415793785502 7.558853072540578 3.8316438716681276
Si 5.792791441176964 3.067411589149339 3.5860398036671084
Si 2.668086543042607 5.4683555150106145 3.787188611744844
Si 7.888791379610357 2.078607163100963 2.868587609866569
Si 6.778445567355055 6.3107108625883335 4.395816957948352
Si 10.158051302718782 5.273772805848964 3.7501623936254314
Si 5.474386730844842 11.013642666909282 3.9196454418421864
Si 2.4197403043386574 3.5666013727493975 5.225391985638263
Si 3.6862563778824478 9.194085627523556 4.9411260936270365
Si 6.014161853401449 8.606263387129777 4.305352188562385
Si 7.930047156871186 3.9491601568703483 4.55325964881886
Si 2.6879230911000405 7.110455753097629 5.445770024403897
Si 4.528878415684529 5.362762914182855 5.5089759869081485
Si 4.732962858810478 2.9729881029482357 5.64927256821324
Si 11.117744172113238 9.033679115018664 4.825383100584192
Si 9.09083576122774 1.7138403152943384 5.0650178873484935
Si 12.014231448680238 4.840957650756088 5.158469960900331
Si 11.114678023790729 6.908081688681518 6.024059299498027
Si 7.057333116169571 10.401600755746854 5.608497961650345
Si 9.138418917841895 9.377520784560502 6.1775055079638115
Si 8.619185335497763 6.843292133809563 6.057625019253088
Si 7.587453011803627 2.296064724996254 6.811345396090746
Si 0.9242011071226155 7.033035287209783 7.027523410728448
Si 10.10973142923976 10.107371350716425 8.252507958490702
Si 5.609267682171381 10.106333998907337 7.422925383400636
Si 3.301476284947034 10.409057549620412 6.967743314689772
Si 2.3440592411773724 5.142228494383368 7.038257499140424
Si 7.658556753152629 4.761693033150253 7.025340776554878
Si 5.4472785623646205 1.7189595294718698 7.545059530879466
Si 10.08617658323822 3.7456430872678115 5.974657034158896
Si 2.60583195445778 8.399288807515678 8.083823089540031
Si 9.34600242524781 3.1819508531115224 8.163851030403075
Si 10.064784512025275 7.761750722286237 7.974368372201549
Si 6.569761272665097 8.26729265218222 8.612868407393336
Si 3.7801238827542725 4.937676083551904 8.866025920461157
Si 5.653745062775352 3.596901115176092 8.963648875255055
Si 4.470741874128894 7.211566289091245 8.865621277363468
Si 8.476189792809562 9.64123266143809 9.902449914521643
Si 6.309320914817462 10.564972222389553 9.66632562392901
Si 8.494554970151915 7.042356512524275 9.594940023084074
Si 7.932299813368136 4.7423035042939885 9.437125561144574
Si 2.981570000650973 8.347837093790503 10.498821485024651
Si 5.2790856130263695 8.836030930862353 10.844636449467856
Si 8.977774177862885 8.127763552859673 11.6549193485119
Si 3.5581715910817406 6.076678575388476 10.905648675601062
Si 6.672114750408538 3.650184237851 11.119938964465149
Si 5.8639645963184 5.8475656751281395 11.462271355334618
Si 6.686596935254546 7.764434755755126 12.414345647440951
