54
Energy = -258.47814457 eV
Si 8.745283152108088 5.17516456654108 2.0964304013108324
Si 7.277401039001912 8.434139740584483 2.3752710740597034
Si 6.412797251892152 4.987534047033797 1.5262763806893944
Si 5.444764740174237 3.0008636348044404 2.460844678436878
Si 2.727042290854239 5.741222284232704 2.332900211986917
Si 3.393190463970328 8.285434254115644 2.3420676017852684
Si 5.442550575609817 7.0252156266805965 2.173614616852964
Si 6.832812051973762 10.636412427163576 3.0860844049883434
Si 9.192543903858228 7.283531491114689 3.03555939037019
Si 4.69649250789404 4.965014665707394 3.5528543744843226
Si 4.652478086468079 9.864039259998547 3.7192791898195896
Si 0.5588260381327598 5.38395207797497 3.349232350231134
Si 9.35253889969222 3.4417446091058017 3.670961732092842
Si 7.048937662649233 3.1556649649089152 4.20626022739065
Si 8.226626741461056 5.539176777987997 4.522567377290461
Si 1.7825597243483249 7.3804224256166036 3.9944919742554315
Si 6.570689935968598 8.61552135949539 4.690780218441186
Si 10.947142440944889 8.405156302019769 4.14690155199313
Si 2.437948639520902 4.96047316861072 4.685614713782111
Si 6.054624914071421 5.491103566259886 5.417628835794614
Si 7.936386026795385 10.596776333519758 5.234758314791433
Si 4.8810488948680675 10.218524157280314 5.974358907861563
Si 10.136028292349206 4.608759560375126 5.618752117759024
Si 2.495267184596879 7.007529702314052 6.22900496956048
Si 6.244698992431019 3.3661427816991143 6.4441605860695
Si 11.24610901440001 6.693051275103162 5.792263062910225
Si 10.211398746051279 10.19073227488641 5.674640735373464
Si 9.043041778307993 8.071694436762876 5.638146883018831
Si 5.975437448095309 7.2632397635272605 7.0371358303879985
Si 6.577327385252904 11.545776792499634 6.991241130415395
Si 2.8877031587446615 4.367388072298141 6.916643341469337
Si 3.912363313507935 8.547224305497373 7.298959009023357
Si 10.070539786045911 4.912293180706554 8.619917253872078
Si 10.325530821726845 2.953874123005123 7.3586588639260535
Si 6.934881362744815 9.503823696857886 8.189927023492949
Si 4.2329814170987845 2.540682234736888 7.465948386382588
Si 1.4242168079061597 5.818699821556067 7.955043805073757
Si 10.649425093621941 7.1095437733101 8.056835138706973
Si 8.066842742842239 3.328339538835013 8.000322230204489
Si 7.7320207206808025 5.2909538042813615 9.48637171704102
Si 5.506252859166932 6.047372279741166 9.093350979442873
Si 8.310301723493573 7.622045256289067 7.9161648937340034
Si 3.044821629701186 6.678495506465591 9.47064941792512
Si 5.086932945816599 3.657164690526865 9.385185112545253
Si 3.3583710090210586 8.992717315241778 9.568475815993635
Si 5.677706434168088 8.501444921475441 9.958845201164278
Si 10.903495104464316 7.716822905767076 10.447933154195377
Si 7.172755144967673 2.7948496050114677 10.141908499646277
Si 4.034645388954525 5.116527088519473 10.966491835058415
Si 7.808835116097566 4.398761883628541 11.834094746586805
Si 6.139903196869575 6.145332767945171 11.542313552836692
Si 8.536842539586218 7.736547159230114 10.394145379420387
Si 9.771130689172217 5.529031829902744 10.894283168411368
Si 6.86951594118434 8.358059682574252 12.01945740097103
