53
Energy = -251.49602031 eV
Si 2.980829677999902 3.377036731877443 0.7014809119888954
Si 5.153282259263176 2.664467124080599 1.0028133744209804
Si 2.1365167760457813 0.05197543769749884 3.1844784668927972
Si 2.5116876233888026 5.497258841035002 1.5452824283472644
Si 1.5069626976447819 1.9721518789052357 1.926027577298289
Si 5.641876608719897 0.4664543843400161 1.8055732415524708
Si 6.494474945800076 5.709150018275106 1.6526008461684003
Si 9.865010014726789 1.2951073671122493 3.134504052093048
Si 4.413056092653003 6.773329406064638 1.1168633707132698
Si 7.267631659257547 3.6894571855155007 0.7607767495359884
Si 2.720508917752401 9.676603148749237 3.674568055805397
Si 4.4694275629787406 8.545080772794051 2.5900342564460583
Si 7.254825924207114 6.859377467498889 3.5533674342140817
Si 4.065700226988577 3.6626247865064268 3.1074716782394347
Si 0.5466459357204044 5.521631387333689 2.954312712434612
Si 6.144571895629238 0.042360065190978013 4.093208322308498
Si 7.535332224653637 1.8888941484492041 2.602938852240328
Si 0.6129699757987702 1.5608514760154253 4.373577726157948
Si 6.593320609770346 9.183773832326604 3.500518094385113
Si 10.715685887762644 3.0802461455488994 2.7468002310536352
Si 3.808620392867057 6.180842665679917 3.5876137225956555
Si 8.362726847956358 0.4469801727452232 4.777322315477924
Si 6.593869534268584 3.938097462271505 3.3742197626799353
Si 9.635682589808429 3.0205981142656984 4.838154350123011
Si 8.371319023981721 5.060024923232975 4.628638199260669
Si 3.8881175660310636 11.088036986457496 5.0460378107290405
Si 0.9255328830948044 8.978471091935091 5.174769474254631
Si 1.7885166176661798 3.690057174382067 3.869589142240542
Si 5.634579247380191 6.321069819132297 5.433583096309155
Si 4.664543824533367 8.608554958458496 5.066218249519199
Si 6.1857373995124805 10.569195087475345 5.5180706701400535
Si 1.679858139045964 6.667475526301813 4.850862800772809
Si 7.607941084701268 2.377432958298931 6.0777382409041225
Si 4.098249475788341 1.2918754559419907 3.771741164670642
Si 2.3981931657276494 10.724606388793722 6.959965456213564
Si 7.209826940278059 7.505452109869606 6.932568195901986
Si 5.820412455577866 3.9235659858422807 5.905621824568429
Si 1.0870756294975992 5.027308866625097 6.6177560616668165
Si 8.084899881568896 5.251027877473012 7.030657190008168
Si 3.5947252506653675 5.768156949989923 6.831451101482065
Si 7.256572128590372 0.04043857592326906 6.871935815038328
Si 9.67258095550813 3.329754220162943 7.23350127637871
Si 4.85400075897468 11.088036986457498 6.148599238975008
Si 2.8094535243200287 8.28808917025907 6.644288662533088
Si 4.647762310203015 9.793661425511814 7.3572170451427015
Si 1.7087441678380728 2.770508481316479 6.083040729454413
Si 5.25199701872444 7.64486335120536 8.269852127520675
Si 6.672278989927444 3.820633804901227 8.31873944422934
Si 2.2301691063284417 4.944832339502098 8.721377990565582
Si 4.03821181250291 2.1938982505827904 6.285988292289752
Si 8.086865034001205 1.8356310955701753 8.395385934579114
Si 4.356895409439744 3.7269207861831073 8.06621767312318
Si 2.986356100194594 7.208702115201468 8.772341033088457
