53
Energy = -253.37023587 eV
Si 5.856820148305176 7.425348733800596 8.342846148015955
Si 1.458712040440901 4.156207938975675 8.398436826377472
Si 1.8343650301675716 8.278312559086718 7.662548867638587
Si 6.7772293175580645 5.23180036321231 8.056968107290288
Si 3.602338243575769 6.882429749962507 8.337882070483511
Si 5.336094864296658 3.8587452456915763 9.453818499795869
Si 3.23030089174258 5.056742690514529 9.788302211519646
Si 2.6637590385188257 9.052456699233886 5.575950351813828
Si 6.590168312772119 8.981270304965685 6.699093794731694
Si 8.737877374170331 8.323367939146301 5.780360988672094
Si 4.885878872464224 1.7446645382178703 8.384806845739554
Si 8.33560947049765 3.198321327226477 6.280890487464251
Si 0.5009141833816382 2.1034353418576694 8.956520537954933
Si 0.15167177562729528 6.967032498157469 6.483273958781562
Si 9.227437368720235 5.891523000086831 5.711201985414135
Si 2.476461293202452 1.772025578434144 7.654640640092919
Si 4.933805895254253 9.17106676509897 4.95332716415547
Si 9.141258065008124 4.797616698225226 7.847346570005758
Si 5.337808339859721 6.911673417199934 5.912420376509941
Si 8.026978927869203 4.184993980341151 4.089753844403187
Si 3.747039920735732 3.9302484007297522 7.543473575330291
Si 2.6569855975946557 6.55773530239355 5.986789263503813
Si 5.888605557193115 9.605223672956225 2.8492883624851113
Si 5.535667788752169 4.456119629532512 6.103166367807101
Si 1.118009746345377 7.764795774165281 4.444157441568318
Si 8.103704908774006 8.934770594119053 3.599285275522961
Si 6.208998578247107 2.132750941540476 6.39762679166411
Si 9.945804101671332 2.5459622011534924 4.548594067611773
Si 6.078548068079796 7.7387316697973025 1.0703105600788747
Si 2.6485717724801034 1.8170775983952727 3.9741263473986854
Si 7.25825860828115 6.707019200994624 4.4404144328334905
Si 10.353256334778992 4.8771326232402235 3.839087023731034
Si 1.4746991991743943 0.7949561261926906 5.717563470924847
Si 8.175816024712999 7.131904697898923 2.1398128606038957
Si 2.968697255343376 4.1887526295323125 3.9480517920443488
Si 4.8357355526324275 7.192267849947652 3.255259724880463
Si 5.300363552266214 4.726488266716853 3.7241832040722755
Si 0.45360488129792664 6.921955580567235 2.3384572446760408
Si 2.7087746019400107 6.331345557522164 2.4446998475509294
Si 6.380302368513117 0.6649902158957469 4.538190904266941
Si 5.964642847123925 2.574867112436243 3.0948997693967253
Si 0.13094708488503104 2.5089274191734146 6.593738243373688
Si 9.898358008491956 5.6266392404207135 1.4898370914468755
Si 0.8324160362280496 4.710574229551551 5.999955367319939
Si 8.20524625547169 1.5193937101662782 3.2615902400973416
Si 4.492983884284648 0.6525868073006839 3.0313507381310267
Si 5.748982394043506 5.397548607784561 1.4312900956265764
Si 3.602923240639429 4.245822778853172 1.477709212546835
Si 0.6454165354003268 4.761975738945582 3.483827330242388
Si 1.5937508556925581 2.960525801387911 2.129810218781025
Si 4.902202477081757 1.8904201053865928 0.9924199428359122
Si 7.379096467544793 2.0738617496268006 1.0851692819022891
Si 7.919605863811278 4.337884798597533 1.6580981842638882
