54
Energy = -257.89997736 eV
Si 4.947836198639617 6.844781271565881 1.0907140150212327
Si 6.6282616192898 8.439381724940338 1.3805802561064004
Si 5.44799190308892 10.57291547794103 1.308696366401855
Si 3.8047074047885245 8.800674586915141 1.8483465151099163
Si 5.584807841919985 5.310428173909475 2.8219476011733224
Si 8.670713080461924 7.28594704340951 1.842757502306928
Si 7.906204528626267 5.021281680649981 2.1508154557268515
Si 10.082972599921417 8.218778692993622 3.56309551380909
Si 5.441378866648583 7.618764406594358 3.5261202533414386
Si 3.7464738974555636 4.31415308476703 3.935548122467322
Si 2.8342702151463985 8.298051543353626 3.9048764305852526
Si 6.297247523759253 9.959760437907356 3.4376270668652715
Si 2.263814347760375 6.1069487571735745 4.755595177727417
Si 9.132901384626853 4.225103115533822 3.969810056765935
Si 11.254914152073377 4.3750356612994326 5.031456866817841
Si 8.451529440488288 9.71994500707246 4.53720590632793
Si 3.935284573066059 2.173676790732772 5.255421508744747
Si 10.22077715010882 6.484854270671557 5.214736676423104
Si 7.9618665376380715 6.644839033268942 4.148696889383524
Si 5.175551777489045 4.40907207682363 5.797842104959202
Si 8.513814792728837 2.099700676515712 4.812092563839689
Si 4.287779001775958 7.400009822212551 5.718454211366575
Si 3.190091553759406 9.569454564482106 5.9061876724113525
Si 5.449713298658912 10.069977153954223 5.636710020006953
Si 7.18109794138787 8.37610915086632 6.091747520697911
Si 6.381484021825403 2.3958577642103838 5.724650394689731
Si 2.285427897205252 6.714946557373222 7.1075034843522
Si 9.019378718476498 11.35244192696726 6.237048062909966
Si 9.47801666075879 3.417597568537258 6.54365453880861
Si 9.033961500090113 9.207762953931201 7.2741609227991155
Si 4.761644752696729 6.549241418997213 8.464583157852415
Si 7.3818286838603795 1.3948050768459792 7.767704068853732
Si 9.799154536322034 6.694789191036249 7.58022495076256
Si 6.938273538446261 10.603838128683241 7.357207255270006
Si 6.2616660965105 6.338837599927409 6.69841212435937
Si 8.053465541299468 5.0286968291734775 7.653491674850978
Si 2.0394717579139887 8.965947697783262 7.971915374535444
Si 3.87137148103926 3.1818786120804328 7.451120355502303
Si 2.943476243698796 5.030441084236695 8.561565311655867
Si 6.101697262523762 3.4453772240051914 8.135464357345175
Si 4.150579375486735 8.772354040074573 9.197321944161335
Si 9.671809579090846 8.512753924940153 9.439001424642923
Si 9.214927818013596 2.9893502590372836 8.946635598647612
Si 5.945840148623913 10.34417223290673 9.539993791646559
Si 11.11545383989837 6.54546574003271 9.539040326920368
Si 6.798447119320703 6.3381397132664175 9.783693173216388
Si 7.1500182807563055 2.143594492526179 9.990455718773283
Si 7.406270027065987 8.60813731744319 10.159679260647017
Si 9.12156622140829 5.2040157846370985 9.904008323583163
Si 3.3948462256535765 4.985189315377365 10.96499902962333
Si 5.734741063559155 4.160503247870119 10.51491478411149
Si 4.457589726583266 7.169613238636677 10.94239072215444
Si 7.503873445146578 5.150681379075747 11.781731293494783
Si 6.564036572464692 7.406245241882283 12.072666066489683
