52
Energy = -246.82163082 eV
Si 5.6742664418072195 4.518675027683852 11.035785795240892
Si 9.061841679488408 3.7036427418746385 0.7142957254141458
Si 3.632283465351833 5.785056685278164 0.05923807612542566
Si 3.9537939632781085 1.412435500118597 1.8110438485542413
Si 10.195741804528687 3.93753086417013 2.866811865553012
Si 9.136389009536856 5.486470877757105 4.314735078558266
Si 2.1394223988088696 3.964553127329465 11.396304842258507
Si 7.08992837435666 4.713905348853503 1.6709215706553597
Si 4.141193413174803 2.548935633328233 11.201422652977262
Si 9.599346171272733 1.7883074832332708 3.73291837262599
Si 4.834133051247892 3.8075232262492564 1.7994221045620697
Si 7.776077750503654 2.3155276500128794 2.1613521151616832
Si 9.545009469596701 4.3695192783190535 6.428197330237264
Si 6.087732914201989 0.6436090545349513 2.55420773612051
Si 1.7099152111782245 1.1057556105600608 2.583174613231525
Si 2.567620088628383 7.4837557265713635 1.288110434499339
Si 6.911167387608353 6.180944205976235 3.611001023591064
Si 7.85956085397137 3.417599161192191 4.345892003880724
Si 6.51810524526041 0.7069272472991531 4.890351863178646
Si 0.3956665174017935 6.567575005964445 0.4854953756041573
Si 8.966380751634821 6.968819655528541 6.292219834958426
Si 2.8385179137257732 1.7012062612366226 4.5459315669695
Si 11.312797225290554 4.169818018579434 0.29981164677593636
Si 2.903012493654214 5.099384709220448 2.2693073050631356
Si 8.469058955335976 1.6365174349402356 5.959137256049429
Si 1.0968241964606966 3.4494907079187107 2.302724501318589
Si 3.884318339900341 6.028926083510867 4.2125812688007365
Si 5.133535807318683 2.5907398283646303 4.07097700349207
Si 5.775740584766565 4.802521734923091 5.243227449555248
Si 0.5869153755886912 6.433926958303041 2.7702744045963748
Si 6.390847251987282 8.314077060958622 4.760431018974101
Si 4.4690212701893826 0.816514115840314 5.949346009332619
Si 7.14606295037733 3.5070249099897373 6.912277746400667
Si 3.9323705082502207 8.23505083615653 5.156163070368438
Si 8.134263413211324 5.519702484092184 8.038497344890212
Si 2.1030411454364804 2.6642406760077066 6.631764093150144
Si 6.380208269418689 6.7298123691816745 6.634355807093221
Si 2.1875739918809174 4.950189895677359 5.444394265854043
Si 0.1607634127249358 4.619741310776719 4.250484919363129
Si 1.7491576668592501 7.613028705014439 4.485549456740673
Si 4.345825923672835 3.6039491737131035 6.770920615336938
Si 3.238881909520564 6.277304032557029 7.188889520639279
Si 5.607841990100295 3.0908434863217558 8.854061080120381
Si 3.8043831239975723 1.5867156361471495 8.091203389185068
Si 3.6088080782455556 8.588465766124415 7.556369646670143
Si 10.19574180452869 5.132882599422912 6.218162812389881
Si 5.351362273205966 7.301297607236331 8.722857437451458
Si 0.5495184107091833 6.7480319836103195 6.39056391943377
Si 0.6854340788919444 4.3461716927050125 7.476793371988778
Si 4.327215317822497 5.095275200887457 8.959262731777725
Si 1.9614908461725418 5.388593316804405 9.270464763241483
Si 1.5149187125393861 7.640361541860752 8.41855378104031
