53
Energy = -252.63796869 eV
Si 8.117664477536566 7.433555311135241 2.204693837337678
Si 6.583797049257764 5.295446434929498 5.893438228992384
Si 8.686922456372578 10.082118359559582 5.086312842156924
Si 5.867780889551619 7.5527143772282095 6.555444693072785
Si 7.88069532724532 9.79630246506555 2.728610187989674
Si 4.219214711368924 7.3257194163274635 4.827393642719986
Si 4.2409512553566655 4.8206753994886204 1.8927214854172512
Si 2.2119923614712187 4.026941950743268 5.577423654343968
Si 1.872239414379108 7.666364535238794 7.65543714852439
Si 3.6274403431339923 9.462774157457687 5.862240635718784
Si 3.2203772247530287 9.482533487506908 8.244625866401572
Si 4.911606769251895 11.221688203002966 4.966500019842448
Si 6.72475388850693 10.331045953489003 8.69536112834736
Si 7.203225407784756 8.152753567821549 4.452865294589005
Si 5.511368276578124 9.638053612205086 3.3033994092060817
Si 6.51869140364193 10.021858295519191 6.303160383285355
Si 2.3782702166728122 6.326819956884685 1.9303756508327843
Si 4.334792821629074 7.758067862599348 2.4756366269615993
Si 2.3096468655286397 6.075852480864328 4.324057690780696
Si 1.6463724212931883 8.153226159096452 5.329952607756399
Si 7.018824409878919 7.892413677927467 8.845431301373265
Si 3.9375531723129193 6.6148675048565355 10.68020009068973
Si 2.17664850022505 5.901260039960516 9.162516754913591
Si 4.909451035194753 8.950984236903897 9.92551241555145
Si 4.171111611296974 7.127439813824146 8.248459777794261
Si 2.610453388378905 3.887312779854501 7.907298066727973
Si 5.55493861044323 4.98391255176162 9.970349564645371
Si 6.997783644642245 2.4939386306707148 3.451934634220458
Si 4.5419330237955435 4.22055297020433 6.431000855159383
Si 5.894564324022096 4.656922570460364 3.6926343200404728
Si 4.76681244912199 2.533598598272508 2.4254007558670656
Si 4.525206557075128 2.560974848303735 8.294941485128172
Si 5.149035895651887 1.7273156679274686 6.215940775575469
Si 3.7574803855732757 2.6050701812869024 4.60386907834051
Si 7.2933324149088365 5.461102079966785 8.339080506573689
Si 8.145196076259678 3.1615174872312455 8.720082722833492
Si 8.95550689659371 9.339679645883821 8.661582556133723
Si 7.284249380337823 6.463351842118783 10.863279768526725
Si 6.0912183237935045 2.6607317438912377 10.135668982303283
Si 9.33563377114812 7.697792768253459 10.353200717079897
Si 10.977118717872871 6.105102458365851 9.320622853304325
Si 9.208371289555998 6.878570669922182 7.75956210988532
Si 7.341025318875338 1.1535027982268873 5.457385475167806
Si 10.189613549046376 4.362570664400712 7.86872753300265
Si 9.009816638785654 4.892808113865052 10.217482361329452
Si 9.439139443404258 7.844471399839555 5.632707792476996
Si 7.938494237150315 3.291871065004664 6.314057287388661
Si 7.965459153546304 4.311066458621805 2.349499799424258
Si 6.100086857893547 6.247837899303515 1.845369259216586
Si 10.13557596171622 4.113242284216777 5.576111946164375
Si 8.430746371554118 5.917929964258676 4.3068073292837274
Si 9.909128522503838 5.819957828893767 2.258012843784317
Si 10.874847067343264 6.199977158354804 4.5597784036884015
