53
Energy = -251.97526595 eV
Si 0.7677920645578109 8.492207923983367 2.7537602433167554
Si 3.801187795507855 3.193482025987769 7.590134417033372
Si 7.7509359882052 0.53658655291446 1.704135758704738
Si 4.927101639110837 7.114014025091642 7.293654797031188
Si 2.148353053624048 6.075656267337105 9.727184265393419
Si 10.904234083964031 5.214363095941163 5.191998205039046
Si 3.2605340858382457 1.3543675373710125 4.926452606065422
Si 5.223016888087978 0.02214083153345943 5.602902644201829
Si 7.403616749279311 1.0719373828899306 5.662741546543191
Si 0.1594945699907402 7.689264888667042 0.47131954911704094
Si 3.967697364338549 10.382471837684252 3.7891977274137014
Si 7.3387245428682775 3.550597039693302 7.2079563575592305
Si 5.911467232108977 3.872210328174499 9.082637707451976
Si 11.172084640442492 1.0404315801758786 3.6184461077756347
Si 8.339249469884034 1.7378083630943324 3.6421615562044396
Si 2.5887683162218957 6.909277444820565 7.524998786656085
Si 3.861777307205025 4.981717790094992 5.966270488108423
Si 0.7433676990400332 3.608136021031599 3.7205846122442168
Si 7.257374817578347 6.5159128061088225 0.5726989768722559
Si 4.982011953733212 6.693095496095542 1.515515148110418
Si 4.251271214277916 4.233731883880997 1.929120607710116
Si 0.8373662233771745 3.8797026212492347 6.810945855852855
Si 5.641569803458206 6.291735748929562 5.168519503010898
Si 3.744751418368357 10.598976363153 1.35812939212944
Si 8.208342911053991 1.452407951247953 7.866867996561591
Si 11.247884818191501 6.219572936979566 2.624303248452791
Si 4.2410250845554005 5.495586370673006 8.89122668281931
Si 3.8777349327994637 0.6876184373079661 7.49989082866859
Si 3.3253003802636414 2.992408610113962 0.0017235661616250002
Si 10.2429834737537 5.22147543152749 0.6594816300683441
Si 2.6504317371831667 4.68639626358754 9.727184265393419
Si 1.3418904912666716 5.437564344765084 0.344333637337644
Si 1.8416118037377716 3.75837773874147 8.936519957843792
Si 5.857951144160592 1.629674292757641 8.39637841529277
Si 4.594501691946632 2.7284550006502895 3.6572952991845837
Si 2.174639634318301 0.5956494816770265 2.808348256262187
Si 6.923274383508608 4.428631832487086 10.575480992244948
Si 5.435843382472131 0.8797115501234549 2.405649150442597
Si 2.2378532109949805 5.193055953225877 2.607319110512049
Si 7.767208955715446 5.207038418125624 5.521151044933198
Si 6.715586927918599 2.342401024784377 0.5434645627069433
Si 1.6450168280540918 2.5213596608514086 1.5570879037298742
Si 6.533420654767105 3.1854395390043786 4.804538012064229
Si 4.7902086885156 1.1350277160356164 11.247600162843389
Si 2.7459965126644748 7.280484862141009 3.6420231994994294
Si 8.396486202682548 4.092022066092983 3.4850257401544016
Si 4.653724961734042 5.137981962171842 10.897528655428653
Si 1.761534905183188 6.104628799156778 5.514542776729011
Si 5.040247918601208 7.958863022400772 3.557174340795745
Si 1.0715771909004101 1.9775295326666047 5.487758870925148
Si 6.717017607424459 4.533643542690554 1.8092284637255571
Si 10.682056507860423 2.857269064479719 1.8495156675539928
Si 2.4899563926947916 7.478572128306269 1.1394873363375617
