55
Energy = -262.5687896 eV
Si 5.868278278431797 8.890656466515852 10.457398837081065
Si 9.158483183929174 6.149689814113507 10.514651551495167
Si 7.998770764287938 9.937221186830707 10.09188780003509
Si 1.8249731331994525 9.063243144513509 6.000690519190983
Si 6.91199474246993 6.771768947085542 10.39099586225415
Si 10.167836158792367 10.594210448085542 8.840255150758978
Si 6.295501901417541 8.96762968780755 8.107163357407924
Si 8.533035971607555 4.345485327311553 8.995398979849094
Si 7.950467150638511 2.247554037127216 7.944192649200842
Si 4.098356088805937 3.2554885453472524 6.083668129542042
Si 11.245834844651757 7.349992617589621 10.60228141372656
Si 9.728067528848689 5.043512431962317 5.023529602220495
Si 5.012207572431521 10.885751538507419 3.1458138437124523
Si 6.833971000762851 7.669535870529834 4.859680007874206
Si 1.162708991649965 6.59924809677756 5.116766865536899
Si 4.166667788199068 6.501852307925047 7.844977451061404
Si 1.6955120294434713 5.6276811466670065 7.915888837298293
Si 5.6331245345305385 9.915259403252268 5.240926765453369
Si 3.612711655515473 7.57395508120414 4.96033513168486
Si 6.613781515423775 9.154978092234003 2.81694169391324
Si 5.757897704502858 1.5003789627103499 7.52298830111149
Si 9.470417984937637 5.756320623587351 7.27170067643392
Si 8.216181437798161 11.943313048808836 8.705128291063323
Si 7.722886008785172 7.404644121417999 7.041273891843511
Si 8.703272642238655 6.303333718485102 3.2795414776740937
Si 2.9546698984605424 5.921925116433819 10.002901756966935
Si 6.453253289157257 3.8045175977051535 6.575503902249076
Si 4.077634728918605 8.86702605949294 6.9863559442201995
Si 7.637340039254875 3.9878717418341463 4.529557269514655
Si 4.414860823085801 4.1973079887403255 9.179419785752017
Si 1.516596565847916 8.515509706405217 3.663590676118192
Si 10.178029097505433 9.568619921932479 11.014070237142322
Si 6.910985226864045 5.597519979135417 1.5271076674665105
Si 8.955976166739982 9.164314950560962 5.859086324872568
Si 9.815106293315852 2.731112681792669 4.2202713960919285
Si 11.46137212983976 6.929095604097522 8.111342291577467
Si 8.170217742623576 1.7649293566284783 5.6296084195692035
Si 9.213195514701479 5.155796938612003 1.2239847296552515
Si 0.3721639067518848 7.568781013932708 7.311821099488001
Si 6.184936437680349 3.5405802602891745 2.674513530104698
Si 5.457016010452134 2.1831684294431226 4.532484115308671
Si 6.398351032854768 5.5824793007206015 8.169660150966761
Si 10.88870195784094 9.060632470097085 7.1906224158776295
Si 8.815853128589584 8.644800141769693 3.5295582333209987
Si 3.547870877235457 2.170867378681013 8.168303388832872
Si 3.131859211572781 5.410518372728732 5.94520574419725
Si 3.74443281581397 8.83915011820325 2.915545647376779
Si 5.722120424509605 5.75902703159343 3.84559220576056
Si 7.362341314762165 10.67923956937425 6.773629418943323
Si 2.449505480986708 8.014673111986164 8.773061386646045
Si 8.491647966690678 3.073260940107529 2.1838508303867217
Si 5.345617277954662 7.297237416808107 2.034690710651689
Si 6.3581657081080545 0.19889495864573173 5.527008853166873
Si 6.422642636647096 4.442454823164904 10.386983315574987
Si 9.410758202449365 8.122144873201686 8.986753985290644
