54
Energy = -259.54786158 eV
Si 7.69704343936767 4.581281085974303 1.333925631530964
Si 4.991204062555522 7.553551379955196 1.1067604050085424
Si 7.182293820625084 6.844155376410739 1.9035213041406136
Si 3.655100480340736 5.737159848628581 2.002832375363442
Si 8.36665298651708 8.996748355259292 2.4921440110445783
Si 5.666953372549709 4.583951367477384 2.6630725299408633
Si 9.036198713838818 4.625240657855592 3.3941222745875153
Si 11.280901551675477 5.108001029783675 2.5209627300966617
Si 4.531606718278564 9.085066334055433 2.827833939429085
Si 6.5292711895355104 10.170029198397879 3.54994947391025
Si 5.3339177686770425 6.864870818792131 3.4943987985973544
Si 3.015460333075462 6.981750131624346 4.022379399455867
Si 2.3571341301640105 9.282923192914668 3.759554348275602
Si 7.4562995887922625 7.956660963654779 4.531617490588701
Si 9.415170441300567 3.259055441874824 5.411511775426582
Si 5.974261318679871 4.212010620400887 4.978085152565317
Si 11.007387630727965 6.785086849832931 4.136800154336658
Si 11.415147131041286 4.403268371476051 4.811653288179116
Si 7.818101246442775 5.666486894413701 5.152240664758921
Si 9.858478179390348 8.808330103005277 4.388355462100087
Si 8.64426725980083 1.0136079597980276 5.883692060139375
Si 6.4548878209893354 2.0192752061284165 5.696647703973054
Si 5.8181318960019786 10.126229994423612 5.812962232899003
Si 4.46598377058223 7.4548463793966935 7.066888638491973
Si 2.894068090213246 5.944469615988713 6.15001722703611
Si 3.570381603416789 9.484798265260174 5.814093284492881
Si 4.1365282478289735 3.950605237894761 6.43356547089223
Si 12.298612321344883 6.216762105536955 6.020698991818439
Si 4.063012552345963 1.5203640912620866 5.9419327179352806
Si 6.802711937460217 8.132908310953614 7.112985286155496
Si 9.168597638401643 8.57092044335173 6.678216985199766
Si 1.460549838428545 7.129414712146234 7.648638938354439
Si 2.8790348877141683 9.052252249745232 8.001105463557264
Si 8.85697517711971 4.892094502623717 7.05697771493938
Si 5.315553700166799 1.701149534890741 7.963756756557942
Si 10.402100905745685 6.63181469182411 7.387441007652029
Si 6.710408217035253 10.516847585340507 7.918995916629053
Si 7.6445299281867465 1.8596107858326194 7.899352197284668
Si 9.115379137080504 10.556343237922825 8.057111366203793
Si 7.356430818893604 7.16233246683929 9.286864705949544
Si 4.813100860387848 6.422015420269487 9.528809560070215
Si 7.486174997956716 4.08382976439946 8.784669318437116
Si 3.1509313628535836 10.163498114832564 10.157239377694452
Si 2.313464126287629 6.259906103773743 9.630976661252923
Si 5.099826669833053 3.9769960558398454 8.650023605697246
Si 5.361067372945065 9.662487241452295 9.642446221866251
Si 9.845202447111355 6.942038528935171 9.67896235868541
Si 8.91625171426942 9.029609643067998 9.854691419732069
Si 3.337064781951966 7.8839476866472 10.871266307228122
Si 8.449559931946226 5.254867037062731 10.67837319321318
Si 3.5396068948842494 4.406777626031964 10.460016795288858
Si 6.636501079151399 6.545311532389191 11.512548784404995
Si 7.004444451560886 8.869737485653005 11.188132375927914
Si 4.405697535803622 6.062326439972819 12.053802224278844
