54
Energy = -257.83720977 eV
Si 7.741458174183903 6.5242586384037535 1.087506735288271
Si 5.514662592959116 5.6340250252878885 1.9005555350804249
Si 3.213088168019024 8.901077130304282 2.5933369149841417
Si 8.648375000896692 4.901426429833372 2.716199838452943
Si 3.9432031265723446 6.733785948558591 3.3056500554688233
Si 5.592041146961994 9.434263299006016 3.0589674951489596
Si 7.608677149735118 8.094192657158631 2.932999242995371
Si 6.5222391035864655 4.062721206518261 3.222629043840326
Si 10.439634136486267 3.679116831248019 3.7316869957227814
Si 6.0169649533210166 11.405267417193041 4.4008204496123815
Si 9.313501484171653 9.138066591163831 4.241299210609946
Si 6.261674210462109 6.583974226546901 4.093882508304708
Si 3.539460925606007 5.052728190013864 4.945763138275996
Si 5.279339616917686 3.378524520602084 5.137806321086072
Si 2.710916728546421 9.325832717906676 4.916853371984691
Si 4.24956207768547 11.40332170637225 6.000266188466921
Si 7.755038709547276 10.262372789788929 5.582353895406625
Si 12.295880286421736 3.1810275257181844 6.3695385332055485
Si 11.624730400772194 5.102446581278445 5.099814089806134
Si 5.196558254284626 9.19790131161761 5.344232353518538
Si 1.8431262628427953 11.20294279538601 6.1059942091665285
Si 5.860650779364763 5.4971934596869705 6.10294062799716
Si 8.422243847978164 3.0571177248125574 5.788183071891348
Si 10.486746205594189 1.71067798369753 5.2550914311866155
Si 8.931918461996133 5.278393227471532 5.0527426548549235
Si 9.860550232824105 7.384304747137915 5.828873079926274
Si 1.981676358405179 4.355770342004039 6.648855211815242
Si 12.161862957772414 7.019708414294769 6.362097991345666
Si 10.101069060823324 2.977700092503375 7.456388538311056
Si 4.002378082870004 3.095329189445358 7.228893041533134
Si 6.606699584582551 8.564294841392183 7.123764235654294
Si 11.432565306258729 5.05616629410206 7.663590327218943
Si 6.462893993138476 1.543440610234248 6.297305911916188
Si 3.8699953360975834 5.895648546794224 7.4441194614476816
Si 2.921246749027476 8.079598372377346 6.884511636555175
Si 8.749752166904337 7.956619192318573 7.8043510947812695
Si 7.043850618977891 5.021863426452989 8.042524324463972
Si 8.290781499023495 10.299728601733698 7.924347019754725
Si 4.580710074215548 11.89552973829259 8.284069451154181
Si 5.020688991891121 7.835183420227981 8.779135833665235
Si 1.4997023300673318 6.4140416277948376 8.002075815376857
Si 2.9664285494061633 10.184692372364035 8.12812004842175
Si 7.553410671098702 2.7458917042697744 8.207286741427602
Si 5.323568149477345 1.6411846150350722 8.573341684787211
Si 8.320489291295788 6.34037259706096 9.46685660623285
Si 10.005314620509326 4.611566192267457 9.494667870689382
Si 9.461568998147749 2.232050718399703 9.621387767307425
Si 6.138508026605937 10.267388860069772 8.911347703133654
Si 5.046909260674441 4.285551548338951 9.076827450291638
Si 3.038749176134613 6.579214041402475 9.852616921351451
Si 6.202547919542964 6.786632864803064 10.557227336320588
Si 3.2743992877635444 8.905867418714914 10.183144016284093
Si 4.467642597256459 5.1789000249130845 11.22803196091377
Si 5.601100711887845 9.10185605727276 10.9358794131558
