54
Energy = -257.92513033 eV
Si 7.464832513689622 6.109684774224224 3.9523829763881664
Si 3.8158044227192187 6.57573475936425 2.319957326405864
Si 11.346756516229938 5.912652707411001 4.145251526832312
Si 8.63442049295049 6.359383766648191 1.7393455697878082
Si 10.533072163729553 7.550444352282469 2.7113201230423902
Si 2.798876329954914 6.862601891807207 4.509180608337316
Si 7.361916285588054 8.181399549210514 2.5429837937279625
Si 5.057419775558148 8.64074056449322 2.2860303258523524
Si 5.262287999516852 7.1038571395919625 4.317364930277788
Si 2.4320204546827977 9.048054418092661 5.373605797743373
Si 8.60925425068998 9.602157350540317 9.649068471647764
Si 7.3438895772065615 7.934961789430357 8.249707018544958
Si 7.1950806884772645 9.930866083464267 11.608456622113218
Si 3.8015428577381356 10.117037133240899 9.045141156277191
Si 7.707129805205453 10.742154287215397 7.748345407026354
Si 5.396888657443214 10.986791029562145 7.555410812605975
Si 5.826516233974129 9.134705189851802 9.836943182334021
Si 8.070367565393216 11.364429891313183 5.4328918137060915
Si 5.6764393045401045 11.486365229110243 5.221928534248141
Si 3.3087102611623034 8.348498889720359 7.483732091334369
Si 1.7318525633905477 4.995766496171647 7.39543225507938
Si 6.56943505300622 9.244815200192669 6.105004520793747
Si 4.554114047282602 9.52451851053277 4.42901523826719
Si 8.290837674074321 9.197926047292867 4.46021525630493
Si 11.441841070389216 8.79601539160735 6.911601454166571
Si 10.072961359382706 7.8460318093806345 5.224523807046463
Si 10.106567267725017 5.792884056908584 9.579067798594554
Si 8.269768786159418 4.163357609597623 8.866452435155571
Si 7.714196723077521 6.286314904530185 10.019569403369452
Si 7.021227206869218 5.164096208760153 7.072503390772302
Si 6.624333072029245 7.606644590994689 11.76918028536737
Si 6.622213499085599 1.2075337005455333 7.376511418166203
Si 5.819689722454766 3.155423078867279 6.1569556641422185
Si 4.004612043307238 3.4587395084878216 4.606249999437618
Si 5.159085126048891 5.780927623235516 9.440522488829165
Si 1.8649414929218622 4.683628092024237 5.017859186136078
Si 3.8872215819213007 5.305100256672648 6.218437452178421
Si 3.5545818084506537 4.135116029129427 8.59298871229717
Si 2.790852937408861 5.75571932584484 10.394150085773207
Si 4.3690356120002845 7.435283256558623 11.050951109824279
Si 1.68788188239183 7.024101510642197 8.658996186435575
Si 6.55918629119324 4.113207457771965 10.582945167517606
Si 5.623447222154644 2.921312378983898 8.70048453139034
Si 5.323371217060767 6.911521683025623 7.28200633157491
Si 7.855247621645773 3.62969984028622 4.942885801265938
Si 8.896962870357957 5.8880966574055735 5.893265150530353
Si 7.4787790487958885 4.157284854328132 2.4712954094969604
Si 12.091837345723402 6.575792115647392 6.372976214373415
Si 8.644856908650214 2.51041303897358 7.210929456181248
Si 11.035941442702754 2.5730103492539076 6.8435593350865584
Si 9.784691199322312 7.9163377702418805 8.42317140059041
Si 10.842114890910391 4.848459730887568 7.483590388610243
Si 5.285411163405678 4.870812050690321 3.10713796166868
Si 10.22096819786089 3.9748799813437254 5.053809105388928
