6
Energy = -20.95688853 eV
Si 7.439915931677954 7.167609456221065 6.677100256647503
Si 6.031774892313313 9.045005334579255 6.835708129808115
Si 5.88901901008346 7.192288595779994 8.331460236506523
Si 6.486412682374855 2.4663839344431615 4.488071056698403
Si 5.450617588414646 6.278454909079125 5.846822665559184
Si 5.3348832080703295 4.440818912205244 4.366143813285395
