6
Energy = -24.06177896 eV
Si 4.622858644716714 5.043030198520595 6.159274958506728
Si 5.0217828092781325 7.174944388957052 5.1009201093576975
Si 6.3614611640954175 5.2588407926548495 4.500351114187587
Si 7.880130098642168 5.8020347182404866 6.174925530054702
Si 6.140654185701093 5.589289667717125 7.834761335564041
Si 6.543433829294278 7.720004719323058 6.7732820133355585
