6
Energy = -23.0656012 eV
Si 8.66423493039275 6.622149778877078 6.543850061948143
Si 8.044725453649958 8.409731517716379 7.880770505741434
Si 7.260385465354821 12.21720211318784 8.665450517579915
Si 8.346542457546418 6.30775533758618 8.838788433911185
Si 7.422721596982136 10.115420984991827 9.3601678262228
Si 7.693200279676478 8.028819420019127 10.258226375602346
