6
Energy = -24.93504055 eV
Si 5.989322424580473 4.597083123823906 4.771722341626312
Si 5.4154682317607845 5.113807537859718 6.990977198049423
Si 6.785563767103543 6.851209111747815 7.920295376502732
Si 6.8265036967582 6.5218183051331735 5.555347256804914
Si 7.898477536780256 8.62761386620429 8.723144961482054
Si 7.486582678136305 8.665800584726204 6.411927262061617
