7
Energy = -28.7917911 eV
Si 6.30180428769002 8.765275449234572 7.503972648217335
Si 6.498104380571403 7.13417534470622 5.910633336653772
Si 4.470409756097717 7.334290969090587 7.346758506835381
Si 5.19508458135231 5.199186597756758 6.779658850756696
Si 7.469976908951164 6.6294405844375275 3.819673120143955
Si 5.9631017665722945 3.0901372245202072 6.337655848280033
Si 6.838026084221684 4.780434380416758 5.053117577906286
