7
Energy = -29.02809935 eV
Si 7.968571208342252 5.414619126740357 4.823758118368604
Si 4.920725008361763 8.07671065201889 5.507990335607249
Si 5.9937592165951585 5.379271418011658 8.410452869247846
Si 4.410803343124179 6.949714046460267 7.556311304883726
Si 6.388551342796714 6.986284998275808 3.9685824879368625
Si 7.435232194386582 4.277133780593416 6.85723153673935
Si 6.196609489917226 6.188583861668633 6.191835966143838
