7
Energy = -29.34271415 eV
Si 5.253398934645352 7.1712593316527595 8.979105612241877
Si 6.699177219004829 5.6762589954876335 3.298741500029285
Si 5.963655901815439 3.6968890465752464 4.3893078663472815
Si 7.611684321701888 6.291858790559335 5.313587393542285
Si 6.449800028601259 5.982239796982576 7.438195143769587
Si 4.339597496419343 7.171433751247735 6.8815117243990995
Si 5.272242567408335 5.662069549437723 5.354182771813001
