7
Energy = -29.59679499 eV
Si 4.524731116069981 7.422178633638461 5.657704826481713
Si 6.500102181239851 6.50307382268825 6.504036733185042
Si 8.471979967875665 5.655336807379445 5.580090668959891
Si 8.47903462941216 7.3447636015843045 7.420244372914123
Si 10.387474415779105 6.496409782266207 6.495452338883987
Si 4.524226953360933 5.581036944374866 7.346008002504744
Si 2.6124507362619416 6.4972004080685375 6.49646305707028
