7
Energy = -28.65012367 eV
Si 2.8042584691191665 6.631358017344962 6.59453382886998
Si 4.807863892292918 6.712295923914436 5.532665553580137
Si 4.562499453216481 5.65373385009086 7.802493704372035
Si 6.667757032802206 5.608225668766475 6.490084247319717
Si 8.193433107709211 4.587092576915878 5.037149159073426
Si 7.173486182229355 7.2671026055497006 4.972438770153238
Si 8.805439628879057 6.495079166224782 6.520870118293042
