7
Energy = -28.6637455 eV
Si 6.024206014304313 7.185181941497246 4.086014538453943
Si 8.25625919620219 6.91349025415166 4.847729687739163
Si 4.746001246053777 6.394602488016339 6.075916952345545
Si 7.658529505995019 6.0390426265237265 7.078428307439127
Si 5.989081639710723 7.73806461095184 7.728489393886915
Si 6.059093711680906 4.3210723217678275 6.337266282620867
Si 5.495772292459207 5.556872408813366 8.139248632536924
