7
Energy = -31.78215279 eV
Si 6.60314591511109 4.375797892769287 6.501800026693138
Si 8.55362209255804 5.940942100056659 6.500852380737335
Si 6.500672556915146 6.500736777781132 7.765598680584802
Si 4.509658960188702 5.7506212424229295 6.5013038793223155
Si 6.499951121871163 6.501390123367716 5.238025380187616
Si 5.173980092050469 8.164871553904643 6.503368663314013
Si 7.671493368345314 8.278164416737313 6.501575096200584
