7
Energy = -29.84897757 eV
Si 5.109691138814064 6.6228273214505915 4.14355642202711
Si 5.651898061497023 4.19145871784202 4.418172085936709
Si 7.355601332174603 5.992803792698096 5.1562786568005565
Si 4.773239181420262 6.282491656773878 6.582088036380746
Si 3.6463204387928325 4.524303009599172 5.615828597814152
Si 6.3338041153439715 4.36378528410647 6.822636139921869
Si 6.652938891502544 7.54582337707532 6.784933220664407
