7
Energy = -30.17358029 eV
Si 7.515053430406287 6.268588644152137 7.7732079148394755
Si 4.282311590869619 8.43579360022699 7.437822256198037
Si 8.469257618876592 4.761523931532282 6.123957774117582
Si 5.143125536849422 6.184138784119785 7.553045179842008
Si 8.334428742242064 7.138712556606174 5.598680334559384
Si 6.301654099451445 5.598136090605271 5.519433335776944
Si 6.302987537582402 7.96775111058761 6.297600563900483
