7
Energy = -30.79513636 eV
Si 7.502765130339712 5.719380075606206 7.725384332678253
Si 8.64581949075362 5.835615974128871 5.693352808686057
Si 6.0563965386565295 7.783602969441474 8.032555187976794
Si 6.4537909446762995 6.2527899052272495 9.704450557413455
Si 8.319220521211472 8.00620736907215 6.795905887700784
Si 6.495431846191569 6.8806457124104305 5.640501470029324
Si 6.253860076461606 9.198191159650767 6.188435134839338
