8
Energy = -35.34242841 eV
Si 4.8009051954571005 6.49916316202945 4.904466787538952
Si 5.695519094876987 4.982486093458254 6.500379431418842
Si 4.802462362123823 6.499130638325674 8.097201173528832
Si 5.694142606489008 8.016724753380235 6.500441398278404
Si 7.485365659081888 6.5004768840275355 5.2568353616154235
Si 8.018433030679764 4.505962807792496 6.499257126069544
Si 7.4866922403595995 6.500502605841714 7.742175923256237
Si 8.016479810932132 8.49555305514482 6.499242798293938
