8
Energy = -34.59791857 eV
Si 5.431018600854561 4.967345470796715 7.898845058313405
Si 7.043299501954974 5.34061666789338 5.995703720673201
Si 9.172087507042496 5.905885968100063 5.217415274226587
Si 4.624186222423551 4.746131406547127 5.582942814085538
Si 7.697493938641789 7.807483869871571 5.539878332839195
Si 3.89236074037538 6.78532532412003 6.94759319207414
Si 6.2726430599691945 7.2277899683843545 7.403033654838194
Si 5.469351199786643 7.002015440605216 5.063924974800484
