8
Energy = -35.30187906 eV
Si 9.059534072586116 6.037389330969935 7.683835831414661
Si 8.105510033638513 7.874776731203964 6.274703052335639
Si 8.206489180509132 5.6398112858979745 5.347085566958757
Si 7.483877019814272 7.6007618558141985 8.746703158281141
Si 6.6302135683177825 5.749890326047021 7.185190199493575
Si 6.085234195568917 6.992278685321858 5.087839121936634
Si 5.771429791665958 9.04408669752611 9.370608116828551
Si 5.732896201962553 8.160603980711562 7.222647494195156
