8
Energy = -33.59740438 eV
Si 6.783453131653668 5.161256998661849 4.496460239416419
Si 9.418432741695508 4.821095272868187 5.346634563896986
Si 7.743235086513965 3.148130537145992 5.004819487331422
Si 5.802411121645027 6.3396733441830255 6.2210715416332825
Si 7.76173424029935 5.283411434813337 6.8394351397135305
Si 5.027493940522201 8.49524952860237 6.7091155140807786
Si 2.8227983788606834 8.581803143451499 7.274058182380529
Si 3.532093129731427 6.462617953232318 6.798420276474343
