8
Energy = -35.06866207 eV
Si 5.482759755355733 7.615373956906298 6.713785605089363
Si 8.196749269878147 8.392323422754304 9.624937901029632
Si 6.406482242525775 6.850648101604622 8.855669459894358
Si 5.997723249342656 6.028158019583016 4.894402266706824
Si 7.3862509597696775 8.021290451726218 5.036967944290966
Si 7.491478604263477 5.9912131693398685 6.682283696890247
Si 7.844205946742243 8.372638697785353 7.327099713369227
Si 8.873530964437846 6.306623343498809 8.574386165672873
