8
Energy = -34.78803387 eV
Si 7.47203802310483 6.5687526362942785 7.049810710691523
Si 5.627216693732134 6.602182888986062 8.826870157142812
Si 6.6412459546430505 8.587527284043416 8.074180727870377
Si 8.744185805183264 5.539606350426078 5.39980070638823
Si 5.362903340394556 8.098913524064796 6.124956083859917
Si 6.548949837087764 4.415817671213996 5.4932149118237765
Si 6.617013276460865 6.58839907430213 4.566898704127069
Si 5.092956215646889 5.765629785996682 6.6487235344936355
