8
Energy = -33.33922636 eV
Si 7.9275395955288115 6.1247204971925715 5.781900812932282
Si 7.174323520047518 8.160897107556192 5.051848043674765
Si 6.634088012337461 5.184807060275525 7.641692411500733
Si 7.168110832825843 5.609508340106491 3.6877290031515386
Si 5.397629750121468 6.877107323020117 4.38679349933228
Si 4.8552004275094065 3.890683561169794 7.011199551679835
Si 4.863159089367459 6.4747907657644195 8.311577967060128
Si 4.102098357722423 5.903521557884022 6.228053766347109
