8
Energy = -35.33114931 eV
Si 9.013286992164153 7.289662878641029 5.678434448796048
Si 6.696801986566797 7.830661767562437 5.0755843308208295
Si 7.323401094600178 5.759106888068031 6.42366195319859
Si 7.596061667270369 8.036973213908366 7.536044460266828
Si 5.220219781995781 4.796593260828898 7.272973893004012
Si 6.634466932280507 6.125962623840352 8.80150235000517
Si 5.220296761420846 7.278550442568966 7.0660651095337474
Si 5.254826654085554 5.810579869971164 5.018882572026904
