9
Energy = -39.81894068 eV
Si 4.953672453691442 7.471775054165141 9.092382938870829
Si 8.14250091711964 5.634461308519593 6.420530988893757
Si 6.4965322798178935 5.147483325665835 4.4854542076526265
Si 5.848116758729463 4.5525881316955115 6.78884749848224
Si 8.618643052421435 6.005548485042634 4.1075661640657275
Si 3.9977158971807856 5.912848273611777 7.486227874856571
Si 7.073193595845618 7.609417721448513 4.992450281933304
Si 6.263083865536384 7.030257670232492 7.298414832238183
Si 4.712016677102097 6.635686134758984 5.3068871259223735
