9
Energy = -40.43546647 eV
Si 8.063023530018992 6.402724053413158 8.354140290422235
Si 4.823879000364636 7.8811638091969884 5.200485668341294
Si 8.292338436385906 5.968151734764861 5.991907951876046
Si 7.375144806448815 7.696741887087803 4.648955952073578
Si 6.619301819476127 7.640434102941676 6.989452397470683
Si 6.444006436348616 4.936553150224145 7.409784067500921
Si 5.849347982570428 5.6720907155134945 4.860790030057635
Si 4.309964359326793 6.241181559925929 6.836003725615667
Si 4.72801803524805 4.0015026537558365 6.051167406371282
