9
Energy = -39.4230808 eV
Si 5.202362559315059 8.379659283396927 6.613714114924833
Si 7.157422152062972 9.705621121899922 5.962905787593301
Si 7.1700357061644855 7.163671036594882 6.23569366673798
Si 6.406858601387455 5.032848422940807 9.65081050106884
Si 6.021279911670776 6.959257679788793 8.45604850102152
Si 7.789021654494885 5.355303192141401 7.884363808707506
Si 9.321334041903338 8.307834356829384 6.609522909622381
Si 7.379770936191809 8.887865685369121 8.14648719454162
Si 9.21850905545665 5.868730949434143 6.1016274548685585
