9
Energy = -40.70074921 eV
Si 5.899110118575449 3.929526954988912 6.966553711832854
Si 7.255787234694021 5.213557223814785 5.531799499357542
Si 5.342503333922507 5.36203158182415 8.81213116004875
Si 7.23453548826557 6.257786773735965 7.639834164365361
Si 7.183288142793593 5.907534893748922 3.3090935230902367
Si 4.942317427929367 6.216639738276963 6.6632239707816
Si 6.194136670315979 7.518505688544446 4.807900272486919
Si 5.00298142692654 5.3712440613597945 4.202553313843022
Si 3.8088021291644543 7.318800533898438 4.915466324838431
