9
Energy = -40.49432253 eV
Si 6.077464597456928 4.796893149211226 4.942369488518708
Si 3.6417756955560883 4.970612145872156 4.4993762861478235
Si 5.041107190677798 7.000490019992008 4.1748442219206865
Si 7.485982230741985 6.86812876808412 5.164225261539468
Si 3.3663597598149373 6.809322482933002 6.181264367922743
Si 8.34824056690257 4.522556637028498 5.247913337955634
Si 4.3806539349295965 4.480161226529774 6.822610569170109
Si 5.6730013317304095 6.682942119462117 6.63606100305399
Si 6.953167766585019 4.836646525282285 7.2990885381663
