9
Energy = -39.4462221 eV
Si 7.317491487255141 7.303603652054697 4.507737018556068
Si 6.157234201122878 5.124345562333812 4.133393522024264
Si 5.0911432746676315 7.17363568636048 3.4127221485369637
Si 5.132901808696696 7.303686366305372 5.731159894129779
Si 7.261412784419738 6.280151272242536 6.701321186276765
Si 7.477514979265481 4.058498717756606 5.852216023589088
Si 5.410413056436076 6.788950605296642 8.076734764606755
Si 5.200664085665616 4.837508752481769 6.478587672691362
Si 4.471902888379116 4.595717913523961 8.605078816190687
