9
Energy = -39.81293884 eV
Si 8.817971882129864 4.766611943715996 6.454281457938298
Si 9.134682134213191 7.277920041902919 6.9046028340164805
Si 6.715367513602622 4.0880831142101774 7.365860472649114
Si 7.4293984342578145 8.482081567086198 5.622094927219614
Si 6.974753930514227 6.23394103306295 6.420336496492013
Si 7.094821505898579 8.193156978716946 8.157839581498555
Si 5.575686143486919 6.152920698710801 8.424226764262444
Si 5.08239745648936 7.739620165139605 6.616973539287463
Si 6.001244330013244 9.92670054278981 6.874036521994984
