9
Energy = -40.19345699 eV
Si 6.594404501763506 5.5812385586480895 7.985632677198519
Si 5.581613228747856 5.713565931242562 5.773275801417826
Si 6.7874448617988525 7.57795792030445 6.208902853492303
Si 8.148003807026521 5.3703559611293 6.030043833565649
Si 9.364787777366107 8.69572778885708 8.945558231305533
Si 6.910950397420303 7.871026282218876 8.780900358741416
Si 8.78251532148087 7.0313530156623285 7.477449750174412
Si 8.020046587885808 9.542145309213677 6.996933780958863
Si 7.18398653185134 10.075602538798572 9.222224358808694
