9
Energy = -39.67265189 eV
Si 9.526620640260212 6.206430251583275 8.538956533839025
Si 8.708622322083599 7.404249757947778 6.571452883628339
Si 8.590971351868983 4.921889639955825 6.613650181061355
Si 7.096992953854621 6.075100971163045 8.179011062551112
Si 6.6363633404335 6.214983608101101 5.698233128507354
Si 8.133477557010789 8.169601075360495 8.96925426069043
Si 6.490025995218894 8.355329206788 7.134871781090582
Si 4.698963489131564 9.61106106975958 6.569807760810673
Si 4.454517324595555 7.369196025414687 6.0858889668297165
