9
Energy = -40.63565173 eV
Si 5.5381913438781245 5.7140580733521995 3.1086751551344842
Si 7.541409129036879 5.912744589607166 4.751264735233366
Si 3.485215509835691 5.958913476805205 4.324931204154869
Si 5.465399781920917 7.4343266629708085 5.005094500457886
Si 7.255568681585633 3.9014997767900597 6.370458447864752
Si 4.016436427164244 6.333418665961769 6.841275765129286
Si 5.306850400259374 4.745924742391583 5.2803126181942455
Si 5.206552682748126 4.14689680335562 7.59003004305208
Si 6.585554798403881 6.25339596359845 7.1291362856118985
