10
Energy = -34.3647948 eV
Sn 10.46659094457771 8.815843689240365 11.206673344907742
Sn 7.264287815446007 8.72168527577939 9.830678635695044
Sn 8.942170960861624 11.39161898597363 10.151231122520198
Sn 11.561664044394902 8.743545814504017 8.334930854998802
Sn 9.529653294650533 6.618982757819909 9.128023672073592
Sn 8.274514461466952 7.143847140635746 12.018153869037645
Sn 8.619424055885114 8.6566348995137 7.064633400423948
Sn 10.186058353998195 11.308520729312614 7.304816090714011
Sn 7.01380995803848 11.090326050936975 8.010267072291056
Sn 11.83400748237086 11.248823264179837 10.101393091265951
