19
Energy = -66.97626741 eV
Sn 8.70861373734336 7.224940094803262 5.064007177869569
Sn 8.055361459749605 5.192886378335249 3.0747874256548178
Sn 7.30560640735805 9.832486973069157 6.679480906309557
Sn 9.37744983048446 3.1378781015916197 4.860159168344632
Sn 11.12216562195219 5.456350100137583 4.023538454317424
Sn 7.289099436270207 7.976559039003894 9.120112266612974
Sn 11.304084286428733 7.239832883119168 6.528861267913043
Sn 4.572850675223799 9.312011174370657 5.131855151000976
Sn 6.78110619810218 4.649969633627865 5.82233645179824
Sn 11.347478083504397 4.237809519727523 7.010965582811949
Sn 8.521790962877654 2.94947819011519 7.748383410659611
Sn 2.761806190973919 8.45798689423228 7.643695476649548
Sn 4.522252406969276 11.087419403651325 7.48306428355029
Sn 6.710154292512882 11.009565723884691 9.555142646703914
Sn 8.905960076240683 5.8647772297456555 7.838447437429152
Sn 5.47337906010773 7.149934555572593 6.929280558465097
Sn 3.609624071436837 9.935603225323835 10.200445447399247
Sn 5.968510660325895 8.75927510808095 11.63266769607512
Sn 4.34313021833518 6.861976219878564 9.770233044482866
