13
Energy = -44.80315296 eV
Sn 7.474685031508902 4.148015377129201 7.40834104789101
Sn 8.594457822661306 4.814552575954947 10.121949443784827
Sn 9.819503642783692 6.427914829168135 8.109318729840686
Sn 6.378557871763711 6.592531750362338 8.54583870958512
Sn 7.913306478353444 6.501164170516213 5.551811628302025
Sn 8.570032905796962 7.999807290794701 10.722983285459533
Sn 5.840025650965824 9.249794364367347 9.764622482048845
Sn 7.3580448775685765 9.0783145182006 6.863060434400195
Sn 10.358311346043875 8.568520918914288 6.105811249836707
Sn 10.81466825953772 9.480403244359323 9.056169279228314
Sn 8.321585866297852 11.160520012161273 9.918304722229962
Sn 9.413075341248186 11.388366103810755 7.062795091354997
Sn 6.3168777211271046 11.631802767387244 7.721373072711331
