10
Energy = -28.46842169 eV
Sn 5.033411246100591 6.9342897780340715 3.232576031162549
Sn 9.0447827249614 8.14416228745333 4.239249800975126
Sn 6.475624659361278 9.213897389187082 3.9741439987985845
Sn 3.1207745137616585 6.984250535683495 5.281201397825189
Sn 3.56672847869589 4.408292974198059 6.279445062858341
Sn 9.506678485591642 8.86280792733599 6.910105330159753
Sn 4.179633105430609 4.9811482821264965 8.943136585482046
Sn 10.015422523392221 6.294416485627221 7.898052310375763
Sn 6.725512729770449 3.8171814898401184 9.087190343801758
Sn 8.091941542349131 6.120062859928865 9.915409147975339
