13
Energy = -44.65188491 eV
Sn 6.856828931324766 9.357765178969768 8.955221704054356
Sn 4.229777514161445 3.9657267824196465 6.484690171298386
Sn 4.914414927439933 6.782154570183929 8.104481590814913
Sn 4.914414927439933 6.782154570183929 4.864898751781855
Sn 6.856828931324766 9.357765178969768 4.0141586385424075
Sn 8.413387458733872 9.267783689353266 6.484690171298386
Sn 7.454624950988143 5.312897322206206 6.484690171298386
Sn 8.112692448847493 6.681084931174468 4.032364493998509
Sn 8.112692448847493 6.681084931174468 8.93701584859826
Sn 6.166008011085909 4.079400080602349 4.019838902086592
Sn 6.919745112085119 2.4254851354410643 6.484690171298386
Sn 5.183548570760447 9.528269792844293 6.484690171298386
Sn 6.166008011085909 4.079400080602349 8.949541440510176
