14
Energy = -48.58781224 eV
Sn 10.373818482308238 5.824313529675788 5.140253303678153
Sn 8.941025073916828 8.383070489968905 4.607416438493594
Sn 8.261170431573635 5.705606393308327 3.03729369220606
Sn 8.040634131703433 4.418310658211106 6.723886441480921
Sn 7.08493023408613 7.196616518045522 6.593485687812853
Sn 6.5788271075160765 8.135682554576457 2.8707129855266467
Sn 5.864547030960115 4.888207041004881 4.7335344865500275
Sn 5.390173986431978 3.1022855459164025 7.435664755847728
Sn 5.04334851473515 8.099285044809418 8.525371545914938
Sn 6.733927868190239 5.567091897208587 9.306628800536233
Sn 3.1417859208956247 4.560754959230015 5.778670954511483
Sn 4.476391485925789 7.505312803733678 5.203343658612732
Sn 3.8351233645243945 5.256314108905316 8.799806526545064
Sn 2.3336135704552277 7.311635974468411 7.186691790548633
