16
Energy = -55.35277613 eV
Sn 5.969021510212986 3.088204933913842 7.80826352904724
Sn 8.458182349898598 4.815614978450168 7.535365439928054
Sn 9.110342421062409 6.2128635111112605 4.870404370845829
Sn 6.091418213784408 6.110068896446773 9.017276072627949
Sn 3.332334014895308 4.641876769819942 8.874504854444524
Sn 6.659031186009853 4.203286833746889 4.954737575613838
Sn 7.931863376382536 7.861266422975326 7.232412245708766
Sn 6.235889574375283 7.324489970329025 4.594334552859044
Sn 5.31183899360535 3.5541689491316943 2.3672261214531765
Sn 7.493039267165615 5.73511125615178 2.1342123657645513
Sn 3.2195781225743842 2.856576228430535 6.447128985761165
Sn 4.845231326473379 8.326262790676724 7.268769556615953
Sn 4.25552833791146 5.5950758726610434 6.147199005075684
Sn 2.782564886304135 4.633100310890476 3.6426435103805916
Sn 4.625009907538361 6.606541123231404 1.9936874128336954
Sn 2.9702469363880066 7.641098714673575 4.292816993642405
