13
Energy = -44.95676198 eV
Sn 6.1518952233668935 7.419035159952441 8.698794985414345
Sn 8.447479158117611 8.100173892630751 10.89932900899502
Sn 6.496920759154457 10.081931088132992 7.37842000354134
Sn 5.808316679694265 9.822489763486875 4.476808487422489
Sn 6.266786321935485 6.011108509359011 11.229179030564651
Sn 4.967434518408008 7.358011166054904 5.949389290166879
Sn 8.756145209317504 9.749647653358945 5.211275517244123
Sn 6.240800639845625 4.167628826365707 8.819282395609296
Sn 9.118658357632013 8.241626656422588 7.925079964348844
Sn 7.364654665697032 7.277312102001869 3.9077349137785298
Sn 7.645026804709639 5.630376774583074 6.549611242739109
Sn 8.874040228101784 5.411920051812316 9.600184956272532
Sn 10.078214593689736 6.945554025436631 5.389165497808797
