15
Energy = -52.1761012 eV
Sn 9.119375334768938 7.274686638863823 5.011634645396983
Sn 6.063943978484577 6.741943240576511 5.401393994435403
Sn 7.04777161568903 9.567553560646905 5.4711663870667815
Sn 8.009450404922356 5.351886233103635 7.203217816923448
Sn 6.1837396717928 9.05743891599118 10.925309769589385
Sn 7.627868320424985 10.102376525391875 8.39666901514208
Sn 9.965763936368674 8.518201794203893 7.534345502278645
Sn 8.275363282665579 7.20654264473343 9.572561349611242
Sn 5.560471068594043 7.73357904176234 8.096382950198372
Sn 8.3721303042235 11.319806355105621 11.132718811844436
Sn 12.437965676215116 9.562512128627391 8.691455651287827
Sn 11.203578285326683 7.30005650108402 10.448143861723535
Sn 9.01280305905097 8.450586544250667 12.278043084737934
Sn 10.204790272548793 11.72876195971604 8.713239594670897
Sn 11.272486424388656 10.333498685958096 11.36057482812439
