12
Energy = -41.215116 eV
Sn 10.279491439077196 4.396856010396505 8.418159498608116
Sn 9.388397366821856 5.76570677762605 6.041568083976286
Sn 8.673313862604124 9.69260534556992 8.312905993770483
Sn 8.246130750565541 8.500097808063007 5.430712676978588
Sn 9.905175896024263 7.118566590588888 9.293229205016758
Sn 7.412207152000344 5.065223151144891 8.594446566060064
Sn 7.209912558850578 7.560386193338156 10.464222497582524
Sn 5.316000252681611 8.334278026901755 4.7127381445880925
Sn 6.42944147684953 5.675612454513264 5.684036391462034
Sn 5.981701705633052 10.215619576578746 9.64260787031762
Sn 6.325088783949599 10.691843404858822 6.5353663336749594
Sn 5.750793519172659 7.9129350929599624 7.706623362307369
