17
Energy = -57.32269257 eV
Sn 11.806351464817798 6.473474189213479 8.027265789872962
Sn 10.896163677262939 5.090011498949878 5.61734572198178
Sn 8.571348584969119 6.014717149356761 7.4367129527770235
Sn 9.96687816663331 8.722509419351525 8.096032998724517
Sn 11.151107076616222 8.178657357664887 5.251741553853646
Sn 8.719865855036069 6.366474084524701 4.136604077218224
Sn 9.804441950803723 11.810746396699408 8.291435511025716
Sn 10.59862653935355 12.572863672804585 10.97886983041105
Sn 9.845935725630374 9.714743294146148 11.015945982601982
Sn 8.036394667238618 8.621093770009924 5.833763220830568
Sn 7.698417782795438 12.084347599846337 10.71789062177124
Sn 6.696738826618324 10.367880193613521 7.882931188483069
Sn 7.24304601511394 13.216880857063767 7.99230208136258
Sn 7.017802961131138 8.927355490152856 10.42010958706071
Sn 7.619529100718851 6.074186082352137 10.35871394319158
Sn 5.762801639516889 4.66408273116621 11.953042586832135
Sn 4.961874269374962 7.34335244497903 11.683779181622022
