18
Energy = -62.9419392 eV
Sn 9.5931385562111 6.110907092167814 5.483958761941337
Sn 8.22824641825851 4.529912222037745 3.2782867799544655
Sn 8.250079459899784 6.995703751546459 8.043121632794078
Sn 8.286664429462505 7.5789638939853425 2.9896518648683488
Sn 7.505625089730413 4.084825952568527 6.426092896034655
Sn 5.702909602480506 6.0264333270326285 1.8816440029130481
Sn 6.043748190720819 4.934293332612868 9.294367707920669
Sn 6.018491768992673 2.0437755987841557 7.972304851585712
Sn 7.255592252152368 8.75975883664888 5.795344275356104
Sn 5.563059465619316 6.380421592611107 6.613184295117473
Sn 5.210588880311636 4.414015738851419 4.341367729153531
Sn 5.584599049273191 8.90964378998186 3.092700830823346
Sn 3.8803581721574605 2.1715748753488664 5.705024827542686
Sn 3.353377979736542 6.46822241859783 8.545247820218886
Sn 2.512096091625823 4.941664850404119 5.943232196112224
Sn 3.9373706927992544 8.731511153629981 5.795155460887048
Sn 3.4069858305543326 3.3637206595456277 8.502368635205062
Sn 3.212880549657266 6.95378727994593 3.399027591369496
