15
Energy = -52.42845698 eV
Sn 6.120398083743104 7.540535775614549 4.280082223646916
Sn 9.269447331730696 8.607940964939946 4.742701799413852
Sn 5.969575970023257 4.5574626059551395 5.317729174402379
Sn 7.034710724977917 9.03240012876216 7.1564318516839585
Sn 3.7906117982061662 6.525134718767493 5.990118849755831
Sn 8.175728119732888 6.323544183009415 6.431774717489861
Sn 7.6300251152484755 3.9145079110315515 8.071240667079605
Sn 9.682022270934407 10.405100768343514 7.151170239053361
Sn 4.298058004890899 9.449239771901432 6.239900919803377
Sn 10.924436251144652 7.5569748854912655 7.06927008886393
Sn 9.454634086908339 8.76024148970225 9.709096191381581
Sn 4.662261779935592 4.786461878607417 8.277151725579808
Sn 4.068944450064559 7.736530492279388 8.843231343963176
Sn 9.839480397981985 5.7857549515448525 9.310219041215213
Sn 6.9443781162273845 6.882881975799352 9.274593668417344
