12
Energy = -34.84000542 eV
Sn 10.527280732891235 6.1630043727683 8.705738320961538
Sn 5.0963458467539775 6.782669937468646 5.301310476993163
Sn 12.276836495056969 9.52375881114529 8.574964825908875
Sn 7.9111185699174245 6.106969771986377 5.893299673460106
Sn 8.160771316505567 7.54694431860466 9.290296828187795
Sn 4.424785094744219 9.954962450376534 5.98541834940814
Sn 4.897892786832941 8.32532685290259 8.69762814105084
Sn 7.1779988622589475 8.774999262446766 4.210186054705863
Sn 7.320831229198918 9.758187400243472 6.9893607315585085
Sn 4.272523338961861 5.908155018759146 7.843401563440619
Sn 8.290483224691371 7.097688900796928 12.037106770498117
Sn 12.721165672388727 7.392809980348984 9.853783415052433
