18
Energy = -61.9649163 eV
Sn 9.411237677698706 5.9854281284437665 9.924134125979908
Sn 11.578790726904181 7.109838826505964 7.8059350581538505
Sn 9.34230130197122 5.195182008368595 6.873403675393155
Sn 10.430788852485483 8.194286798764148 11.844154637845207
Sn 9.890188878654277 9.091882634369119 9.092809171227305
Sn 7.640279816569783 8.681543038674636 11.514636190491993
Sn 7.608675023517731 10.49635699507539 7.787218988525437
Sn 7.253132035011037 7.283091167099656 8.332722074405638
Sn 5.703359699482631 10.500890375665652 10.30559919116456
Sn 5.108727343518718 7.327531245287094 10.637852448564875
Sn 3.0659594530898446 9.333116857394709 9.975306039230855
Sn 10.589635961026966 7.125191655159827 4.773352402808765
Sn 4.795750297781163 8.851092298981044 7.621337442441818
Sn 8.096954038674006 8.573441262254397 5.579880679637082
Sn 8.887110586221933 4.50522685653291 4.036195297983653
Sn 6.316902429061915 5.706989347054005 5.664231808147468
Sn 5.356562437154711 8.300446087312269 4.476968419761107
Sn 7.697566545311966 6.971849371560092 3.066724518504747
