15
Energy = -52.0140452 eV
Sn 8.80357901871191 3.2305222577224115 10.633201294617527
Sn 10.723208954872756 5.5225072554002255 10.37949741731473
Sn 9.65915414566912 7.746177507662726 8.392641248359533
Sn 7.751212710309595 6.086539152654142 10.52700303941786
Sn 9.283970171760613 4.5013571851776835 7.90823900850105
Sn 6.437743788916496 3.7115446411807906 8.966161619462808
Sn 8.736089320583307 8.076204538667374 5.431624306695855
Sn 6.884052237139052 6.447459911626472 7.54965166017578
Sn 8.261455609420867 11.035732600592645 5.6369576703042625
Sn 7.211095745829411 9.630609857126945 8.058022160945042
Sn 4.418384044586572 8.09756477685538 7.355809827429954
Sn 6.596612884096453 9.493747021296953 3.600713863778505
Sn 5.947124106395289 6.547795578552614 4.73403423439567
Sn 5.215103894694081 10.897801973100677 5.989226014836332
Sn 3.7985150572673145 8.590694960103832 4.497404460453842
