14
Energy = -47.79711185 eV
Sn 5.698894557588798 8.628149876215423 4.9957505643363325
Sn 9.002310292608794 8.403365342369346 5.825798704789888
Sn 7.71690451529683 6.87934772602835 3.367361666467556
Sn 6.9053339925827855 7.898031543559432 7.813673133129245
Sn 5.81357004682851 4.820872495851851 7.813673133129245
Sn 7.45538935652586 5.317213909461097 10.161448322814527
Sn 5.263514682885428 7.4016901299501905 10.161448322814527
Sn 10.001165 5.6430329001837585 4.872526104533132
Sn 7.020009481822492 4.090754163195873 4.9957505643363325
Sn 5.001999524114468 5.839556313382941 3.367361666467556
Sn 8.83597894119841 5.532573960333034 7.47960565911502
Sn 3.7165937468024994 4.315538697041947 5.825798704789888
Sn 3.88292509821288 7.1863300790782585 7.47960565911502
Sn 2.7177390394112884 7.075871139227393 4.872526104533132
