19
Energy = -65.80375196 eV
Sn 11.77889937271427 9.407645502426503 5.607501362331393
Sn 11.262652847355236 10.042238666347922 8.572335992167934
Sn 12.527814322642465 7.381903393175605 7.831730907664806
Sn 9.487632900362605 8.391633750755567 3.911085871007076
Sn 8.822265620072796 9.867202891070026 6.632535726245647
Sn 9.734908567729176 7.304486408659117 8.95177516805203
Sn 8.370687309776502 9.948653642139861 9.719743671828583
Sn 11.240346610275026 6.272697286694531 5.278741564295684
Sn 5.884075317885834 5.285400086563096 5.199572207173582
Sn 8.453438385908019 6.624343872993291 6.254664213075451
Sn 6.296739086528113 7.555134615215068 9.822643945895173
Sn 6.420588721918541 8.54071029607263 4.986726165525217
Sn 6.917335136267966 4.954486763194055 8.430439981155748
Sn 5.762732041645058 9.797130539740271 7.742716741171421
Sn 4.4754922947410245 6.8845894371605905 7.2163607329723645
Sn 4.406452278739493 3.680596858183153 7.463155136253012
Sn 4.115839621182861 7.332265555248791 11.780744884202777
Sn 3.2186955446620695 8.604770462249038 9.241926862227128
Sn 3.4743887901695687 5.346876627781443 9.712616836957308
