19
Energy = -66.56999866 eV
Sn 3.5582682319179493 4.615379842019363 8.733552289191163
Sn 8.029025503338469 4.254067664723815 4.117325390909123
Sn 5.466438834650299 6.01625369292045 1.4283021288585813
Sn 8.056530099445872 2.802390627160522 6.786909172788184
Sn 2.2737636153794765 6.781478447337395 1.1780342169074196
Sn 1.4358970206792614 3.5677611104172637 1.450698158791886
Sn 4.517317915577941 2.6849845999781516 1.685194310284335
Sn 6.352096682164632 1.7062896541883854 4.485761285228426
Sn 8.279868199068842 5.806968157233794 6.801862486261278
Sn 5.0670302845694435 4.62387969741604 4.159278071052246
Sn 6.356866282769142 4.34383094460887 8.733552289191163
Sn 4.0055771063172525 7.591927385135777 3.73090230660261
Sn 5.498337478859845 1.4931803483182733 7.499125321094517
Sn 5.395041767258703 6.5181117540004 6.512521931155125
Sn 2.741268059061975 2.4635747726306754 4.284882945167713
Sn 1.892464087807907 5.37412159666438 3.8574782556187848
Sn 3.864703798584145 3.9203150503423037 6.962693040759434
Sn 2.377776772594139 7.09002776158486 6.438520428606884
Sn 0.9728716224480871 4.348136429338045 6.479163235864202
