15
Energy = -52.6369076 eV
Sn 6.842878745886463 6.529881112946392 3.2106086545812245
Sn 4.83590330709747 4.350672452248579 4.797064854027445
Sn 7.461407357108858 3.6019847201536255 3.438868183572881
Sn 8.235530414423575 8.05120312635497 5.517905437166744
Sn 5.476283622189788 7.0805757961812965 5.990634784753467
Sn 7.320696919959669 3.1510230357076536 6.445423477598005
Sn 9.405276315953056 5.2918780292079 4.902386848162375
Sn 8.386668186674012 10.325170261248594 7.396737568012836
Sn 5.3303022380845055 10.007974353320604 6.5958340800102775
Sn 6.28694581772127 9.695441069996198 9.514192726743028
Sn 7.893014655222361 5.921065926826991 7.615292671575415
Sn 8.88586649058575 8.00626791690385 9.454735009864818
Sn 5.05171746999852 4.784796099693258 7.921628406063403
Sn 3.9524428459862837 8.03353043694806 8.523002615058429
Sn 6.221300481757495 6.7547705309108 10.261919551458442
