13
Energy = -44.32175976 eV
Sn 8.516360632033527 6.707309230230562 11.0661764166159
Sn 10.071582234729737 10.414454453006048 6.582283104512947
Sn 9.249612127620974 8.599627466582989 8.882523247760403
Sn 10.280713246975132 5.648024886714088 8.340329125498526
Sn 11.695643512769845 7.836529434047664 6.887892083504628
Sn 8.28990050850245 4.111028303562793 9.741448260437911
Sn 8.946722350712886 7.3760125432103365 5.820064517144518
Sn 7.134841713370457 6.333147379902744 8.101974100157818
Sn 7.365046995436654 9.914649245554054 5.377139659891072
Sn 7.68976043168685 11.30616281185153 8.375434003063207
Sn 4.484842200256878 7.5807010622354545 7.869204748049551
Sn 6.330307343107072 8.945647037635176 9.965413989942427
Sn 5.1304861083510875 10.341331574731756 7.261684921626599
