16
Energy = -55.68392321 eV
Sn 7.981215298934193 2.406965713039379 5.21609017668783
Sn 9.036500030490616 4.431858270350936 7.210636055283325
Sn 8.86471298925096 4.945708150851175 3.9261055300538024
Sn 5.405519232066195 3.5896193035902586 4.007958790641332
Sn 6.048894507694372 4.634623493569298 6.721784010354843
Sn 9.000835338440353 7.249891447682045 6.0640173992431
Sn 7.411455202519706 6.274555696243288 8.950662602072141
Sn 6.324543715383957 6.496066647956144 4.31915469444017
Sn 3.1232216596718336 3.703778348891922 6.242319739882186
Sn 3.0634623013307913 5.514840043799837 3.7070634906070503
Sn 7.41413600727408 9.219531921546002 8.036439882773744
Sn 5.091073811071274 7.737876099596956 7.162206709647183
Sn 3.9989883702863627 8.358916733861655 4.3768597747793745
Sn 3.8990594151750058 5.262181843474691 8.742788953814282
Sn 7.222052922661846 9.369125814546502 4.986491308448089
Sn 2.33611814008391 6.657321406039405 6.494716363385843
