18
Energy = -61.81158395 eV
Sn 11.649523535612591 7.822832745994153 5.685404517603677
Sn 11.462930977025076 7.009868926472427 8.910404056063673
Sn 9.969294767663685 5.593123572287111 6.730342802039577
Sn 12.585433581794403 9.691992329628665 7.888349614636886
Sn 5.290686496132009 4.441092723637386 5.461857935547407
Sn 6.310421139310984 3.5226474741771727 8.164366199373386
Sn 3.495284682812899 4.5604789664069925 8.038500552870014
Sn 9.76914520007832 9.564910766893622 7.536785732142347
Sn 8.704254422194992 8.074377732867667 4.78982234912708
Sn 7.143012221154771 6.305620183417408 7.221409915998138
Sn 5.514454273224415 7.789186821002691 5.210052361170072
Sn 8.574524952293926 7.491172794795306 9.636870440296109
Sn 5.866843998943109 5.873619820826916 10.093486413590417
Sn 2.858825927394306 6.378261579595894 5.842625622409284
Sn 7.45242484275174 10.1952500931608 9.350848748684896
Sn 4.504037283937616 7.657765506859012 8.111587474289246
Sn 7.127780233658452 10.348325439622469 6.099151159665732
Sn 4.9015453081514195 10.597726368506127 8.037244253692398
