12
Energy = -39.52747005 eV
Sn 5.653396297750441 8.462078791042902 6.751745700354862
Sn 9.953295591761973 5.581709083993354 10.302635214925298
Sn 6.9635983679554325 9.254628834477833 9.298517739259939
Sn 5.196762528076484 9.307935181646837 2.0844444111432567
Sn 10.717319801418327 6.448008060602168 7.227777109168334
Sn 9.914456282324604 8.38884260000315 9.297302514588123
Sn 6.917709015917706 8.463740013725369 4.142998726536039
Sn 7.888914177039466 6.29575682864886 7.909205096507429
Sn 3.9848256128507886 9.45859465945151 4.613294659207528
Sn 9.636699709965999 3.7878198494167528 8.020377792872631
Sn 7.12648794098169 6.857491636996052 11.034619619476988
Sn 5.1185507491368 6.502098750082995 8.858388611407083
