16
Energy = -55.24351723 eV
Sn 9.553286865972288 9.245360074123038 3.603783207519072
Sn 9.893912451534266 9.696278569065152 6.633385944892151
Sn 6.858377261045954 8.622793830278034 4.4795223888594755
Sn 10.861632293779623 7.210701482598422 7.929994209583442
Sn 6.9717015429240705 10.667743356529606 6.613933508199652
Sn 9.902219879639638 6.784695858664516 5.1167808933165375
Sn 4.97250849490441 6.3395301936026405 4.2144911214810135
Sn 7.6401670765181136 7.944218487939578 7.7185965796629805
Sn 8.555214327931262 5.251180664489663 8.838680786852127
Sn 4.604157924578959 6.963529414903721 7.0361829971673595
Sn 5.151555835784444 9.2232408829493 8.936263987569193
Sn 7.288654937481413 5.438748721278905 5.9411120625088065
Sn 5.436381728395913 4.153053756721114 8.023907247503507
Sn 7.1569395616662455 7.665457673388953 10.739085278308231
Sn 4.265894859740236 6.419497774310051 9.992215786238207
Sn 6.526099736030587 4.665754864264703 10.873502944075634
