16
Energy = -55.31845896 eV
Sn 7.343416086447685 4.520902291375755 8.472874183143265
Sn 7.813247061230656 7.176007964840554 7.091919912750929
Sn 6.9335636883129945 5.9516755025173 4.650773394163002
Sn 7.092555821346926 2.130052075466624 6.781640207240022
Sn 7.558263167863164 3.1621547476220018 3.9170838388075047
Sn 4.973551832661621 6.251304309350039 7.674584705387641
Sn 5.35582684321974 5.310517570606551 1.7886742977480115
Sn 5.434802672314694 8.8150301156894 5.670156827458553
Sn 6.061385812689517 8.052935489388178 2.7205701578043944
Sn 4.524285641919698 3.213585370622075 8.208301141223611
Sn 4.914008677828421 3.54487334497607 5.14946224644624
Sn 2.7326400722406587 7.922737423818821 6.7010366389143865
Sn 3.4272813667880184 6.979558849830032 3.8785473368357772
Sn 4.963337419350667 2.4776243236349846 2.222691364328487
Sn 2.469958531647464 4.810236784300056 6.238980738493949
Sn 2.576964104242378 4.138074729356156 3.1557715634185577
