17
Energy = -58.16765213 eV
Sn 6.115569536020396 7.483503611655893 10.002443574271364
Sn 7.821427623629193 4.773058613580525 10.01154847936119
Sn 8.13011388406329 3.4121958814693443 7.4116781764564665
Sn 5.422382003336317 5.0530641997237415 8.217029813936797
Sn 7.764089261813295 6.4810349556800695 12.384190704646002
Sn 10.253189026704197 5.657351660283267 7.972758276512781
Sn 11.26283413631312 8.802369905552725 8.418121138069639
Sn 7.826550904503315 8.870559327879384 7.977924092263013
Sn 7.1375511022853475 6.103714123651464 6.078590869687918
Sn 9.380225805539675 7.675600162169802 10.349009401557892
Sn 9.655653450374123 5.106091184177967 5.071292712620302
Sn 9.68272646923134 8.079972513176793 5.777246733739357
Sn 9.745668749961878 11.386095904319665 8.509805070742313
Sn 6.814534924834382 11.472313135260901 9.338253936994198
Sn 8.52500319339804 13.922701524368401 8.151257786785573
Sn 7.838034674555436 11.511499665909936 6.161602370136127
Sn 5.776536668050112 13.281916695904254 7.254936606498541
