14
Energy = -48.89263363 eV
Sn 11.067896112157895 6.410047597872138 6.319924187406745
Sn 9.729342642956766 9.150355840272239 6.3147969964153114
Sn 8.667983446721557 9.909638122861294 9.196074478809445
Sn 10.111005008750839 7.660202753977956 3.704349962846147
Sn 5.746182435672279 10.607157582852574 9.07145372163527
Sn 6.561755898217453 8.892401852457773 11.470392127806914
Sn 7.482855301129363 9.126722636628841 4.243806107556168
Sn 4.635554581457344 7.702818638755343 9.381380899701302
Sn 6.6108443219828015 8.590242190709398 7.068703519092937
Sn 8.063070751030088 6.1617224764170775 5.277381605839191
Sn 9.395250894440029 7.774714932661725 11.185009391368604
Sn 6.919238191370477 5.927562391941789 10.704958361414986
Sn 6.1711539282886 5.609208634020713 7.749402069430559
Sn 8.952789786847443 6.784421179289458 8.425540174485626
