16
Energy = -55.11453534 eV
Sn 7.526732235011117 3.082076076809009 3.0837858544227386
Sn 4.426956097494869 2.2129572731477314 3.552239599334149
Sn 5.104399784763217 4.8475796133405415 2.581725574689478
Sn 6.602970727282185 1.8299643663113045 5.652536623920562
Sn 5.558924128959541 7.605254972241111 1.90385892813531
Sn 7.987186928545303 4.74770045808236 5.503798780749912
Sn 2.5762670287441427 4.195510681248676 4.795024111607515
Sn 3.1769274464402395 7.2766274386526675 3.5266388292940682
Sn 1.3854364356940423 6.819940264588091 5.688428951580861
Sn 6.379676752680697 7.134737686465154 4.72232782444674
Sn 6.866764758569985 3.5774250126699823 8.297447340833068
Sn 3.9954620654006443 7.652008362093425 6.774218051924303
Sn 4.919761214269405 4.683585699576839 6.4162969822031375
Sn 8.35911415124699 6.239871783185505 8.142924139279511
Sn 6.770636757309068 8.707053714816105 7.184233765935683
Sn 5.461472100961428 6.312607895976444 9.070801422238597
