15
Energy = -51.72968836 eV
Sn 11.603136729447776 7.155990731089493 4.633023529237403
Sn 11.781592518528207 6.653893098306969 7.689643109592941
Sn 8.943046686864191 5.8653094654838975 9.119322391688568
Sn 9.058114565750316 6.4890721019697875 6.004801419564268
Sn 11.996880414699358 9.468183659719855 6.524849507998955
Sn 9.338659250945518 9.30702731755247 4.870747070059167
Sn 7.5032000879389695 8.650723644818095 10.256422397668038
Sn 9.420053119211525 8.809195878971016 7.885863260720061
Sn 5.934450191302325 5.7616811777012344 9.914254482691945
Sn 6.757059519614711 4.846792444671001 6.996647938575558
Sn 5.891374684749611 7.677312427134636 7.187154674638929
Sn 4.375153693789265 8.487680424483415 10.11148702764683
Sn 5.966072925918451 10.42224673361367 8.186865759546762
Sn 3.3513582242988345 6.280848862286108 8.204837875394166
Sn 3.225972514454414 9.124182643253565 7.345773011128421
