15
Energy = -51.51733338 eV
Sn 7.423700389731099 6.578730488818726 8.818340203828443
Sn 5.712532501874056 5.857005730596763 6.551660976690957
Sn 3.928028912669498 8.212966680229648 6.467175404298373
Sn 5.87646013497406 9.697579747924781 8.031947882205392
Sn 8.351819048202549 9.264274273326057 9.722920512022103
Sn 9.615670011329568 4.780877260488856 10.103303175686401
Sn 7.044813606012314 3.501666352114913 9.262467470372767
Sn 9.3163397739646 4.18424015599655 7.250104575064599
Sn 6.704407251196142 3.1171496152506526 6.328712586304121
Sn 7.7307096044091965 12.062841727756007 8.421990560824561
Sn 10.341358401503411 7.125694858909555 8.06654767856571
Sn 6.3367551264386295 9.027616851392501 4.824290530709681
Sn 8.479346820028072 6.823710650524137 5.596522597148502
Sn 6.232511886564035 11.868740451669685 5.894175863637988
Sn 8.785221543242006 9.869573823948643 6.560858856375784
