12
Energy = -40.22545439 eV
Sn 5.0644569127788515 8.576562180944808 7.5777861676743425
Sn 7.480976783067479 10.311781150321497 8.375261379427169
Sn 7.203064022784102 7.2801698110151545 6.116892819155897
Sn 9.82763288994271 9.684658899562823 10.20165760424785
Sn 8.362007000177401 4.782846807542972 7.421450387442339
Sn 5.534869607945978 5.792335586379889 8.556098317483782
Sn 10.000424337178028 8.783357446074925 7.189920267126193
Sn 6.105256284296333 2.9546838918990352 7.9244985042716305
Sn 10.135648222602637 11.779248857227017 8.15403630518443
Sn 8.620252399156813 11.004486798873641 5.7219336460885595
Sn 8.181135504669712 7.266364420460276 9.28177171195598
Sn 5.5759480880889285 4.770127656666074 5.646345048282483
