17
Energy = -58.55689488 eV
Sn 9.351899746625623 6.703690195333249 9.768746866321187
Sn 9.17015813005983 8.64290350432671 6.514935589854376
Sn 9.229736270924667 10.488839904715338 8.827383794704744
Sn 10.404023183370622 3.9452276633498555 9.509143028643111
Sn 8.64875472544023 8.97565107041634 11.338218539341554
Sn 9.75114071000378 5.595619041419862 6.932014038952077
Sn 8.64285303923381 8.81386255592546 3.561578915109379
Sn 6.360086793377596 7.851426545753698 5.419866612265199
Sn 7.389489527888003 11.060502798959087 5.1968059789239085
Sn 6.940365118499934 5.639148256748438 7.983839304159242
Sn 8.035371322347956 2.9265640652168625 7.961293937200209
Sn 6.468722704793145 9.850730573585166 8.09989962296517
Sn 7.58848789321362 4.234609375617807 10.732704276552962
Sn 6.303286485971042 7.18700706584736 10.59111874867537
Sn 4.61910000472541 7.501434204224378 7.987067059599546
Sn 5.717373063782629 9.575271331547647 3.0635767582772515
Sn 4.522596410254206 10.404669652220356 5.732742007212785
