18
Energy = -62.17201869 eV
Sn 7.131706904381208 2.0320285274599 7.253335259759985
Sn 6.117730536662669 8.154818915052575 8.10914653566699
Sn 4.990633609342347 3.204350011711839 9.006495945881559
Sn 2.9911544233020577 6.883099698883832 5.001451666803875
Sn 8.920897898819929 7.252392947279042 6.934686240501246
Sn 5.17412264587047 8.32387899308055 3.1272369406177236
Sn 7.4548939741913705 4.915698147501558 8.728682455784956
Sn 6.952474371036087 3.1952095079769705 4.3393453258519585
Sn 6.7334487409503465 6.1626591439034035 5.087679363927272
Sn 4.340653820859627 9.701483801208088 5.8209788224190815
Sn 4.691252077837306 5.474865987256672 7.109704648956688
Sn 7.295867887831437 9.176398260830046 5.297422615502936
Sn 3.088563319862631 7.864050747739397 7.904258009958758
Sn 9.168358911376805 4.187018787467126 6.22801955088978
Sn 6.402627039042419 5.370681044768316 2.147297508126674
Sn 3.4401066016632273 5.861219818056529 2.2376465496270104
Sn 4.24418178449246 3.1332613007549006 3.072941397714048
Sn 4.223959034631975 2.6682301909395836 6.044759253152875
