13
Energy = -44.60475061 eV
Sn 4.215974890248585 5.585400093184486 5.301138770933932
Sn 5.689875515692076 10.299855784042364 6.143153442718265
Sn 7.097141431861952 5.923479964686036 4.34890236754487
Sn 5.921534698728877 4.455339939229545 7.560690371145974
Sn 6.117062583870428 7.433073916132174 6.838652360283415
Sn 8.278580810508467 8.687959199886736 5.1407170263171835
Sn 6.60344224599231 6.620909224844061 9.698055004483335
Sn 9.91772238018679 5.757477149810196 5.681633482687225
Sn 8.031489616451971 3.3631297824138433 5.669355428042525
Sn 3.3623784997555664 8.368727165587316 6.258801346926491
Sn 8.938501476769552 4.5439828023846545 8.330345623375225
Sn 4.713057475556019 9.099583049180687 8.867897010265908
Sn 8.934082026478034 7.681925174002751 7.981501254690553
