19
Energy = -65.78814027 eV
Sn 7.244091278871728 8.565491730211868 6.879972330522181
Sn 6.4275084375618246 8.13891590208914 3.9735320853071654
Sn 6.744685945320279 5.1778217645570965 3.9941554654953064
Sn 8.776825201016816 6.084935018198032 6.9841562695836945
Sn 6.364655359546455 6.292328813739281 8.907940541417883
Sn 8.866101094072379 3.6573395103392294 5.2204093607078015
Sn 3.3143995479924295 8.33819936859162 4.004742089807394
Sn 4.988441643213148 6.647018828994572 6.07737452866548
Sn 3.3049200800430194 5.824739246039918 2.6488195626050213
Sn 2.4912846313679404 3.9307810569366675 0.5141147435852507
Sn 6.6926725768248785 3.792927416101102 7.200041647090139
Sn 5.411306843789752 3.8210307636002203 1.6017597502483538
Sn 1.8899690204909225 5.9013012648314485 5.484655314905107
Sn 3.7128658967897827 4.7075178951129155 7.902222471997312
Sn 0.8280684960904693 3.946406525929224 3.0785082888458835
Sn 2.8067843418605007 2.9755636196380757 5.130429443363339
Sn 3.1429393963524173 1.7142312171544076 2.4145379561668068
Sn 4.484795605498603 1.7374403787362138 7.0909731378188745
Sn 5.711423033795191 2.0093133907526597 4.171341810122962
