14
Energy = -48.20381835 eV
Sn 5.9768008906570955 4.6490735098550156 7.555806414531504
Sn 6.9543288971112895 7.726759015769626 8.234231944649453
Sn 4.07232526565126 2.2861127796345695 6.780011876901215
Sn 3.230919589294261 4.55270516672769 8.69498301768071
Sn 8.333635140869356 4.383714434271887 5.7756765155705425
Sn 9.665458421570786 6.779940489100238 7.205455697189846
Sn 3.867879760285687 7.149794977985453 7.396162243475985
Sn 2.993233404987634 4.842494958685045 5.548268167772308
Sn 5.683924204119096 3.295069371175631 4.501628884069531
Sn 5.454496981647848 9.506216456794728 6.1813226061592506
Sn 9.095340212531402 6.836250653139774 4.205409886213245
Sn 8.493343129944126 9.28670421802071 5.985891012186813
Sn 5.732181400152014 6.282888842983108 4.811394188774392
Sn 6.737546037253897 8.692839354406603 3.49194831308708
