11
Energy = -33.6546758 eV
Sn 6.813257285356065 11.317844305839401 5.6889987035645015
Sn 8.523085581860403 8.857378040119688 5.151300291828719
Sn 7.186495498287854 10.550892375787464 8.56240226562435
Sn 10.090773218767287 9.186443973699134 8.668058407737195
Sn 6.629800903325264 11.082916518189887 11.465740607082523
Sn 8.620313503328614 5.953678813925889 6.148983387552302
Sn 11.047568575403625 7.654461566547494 6.376481877949504
Sn 7.303558468877695 7.340072507306968 8.355403118347532
Sn 8.265876374460127 8.562507549291766 11.889453058293617
Sn 8.412222282183855 5.799938341187448 10.588749750782432
Sn 10.9135264940066 7.384701653279563 10.80723919473432
