13
Energy = -44.35893908 eV
Sn 4.906430893813849 5.847075544502406 10.972730771646257
Sn 6.328694681412847 8.067628756137655 9.896069145888683
Sn 4.646938140550624 6.414889148617132 7.91969792540363
Sn 5.237555663942935 9.322643870326612 7.311391297503195
Sn 9.132211748550619 9.292276550121885 9.730845936842993
Sn 6.9239139501604425 4.7181957290847985 9.153708925094701
Sn 8.15796436587977 9.827275413381443 7.0131407872921825
Sn 8.9822601740381 6.712430704169094 8.339141265280732
Sn 6.717695656250048 8.025404260690562 4.9252798561404
Sn 10.986075573898086 8.64874725169514 6.998023811098701
Sn 6.899297798791454 5.153321890842316 6.11023381678319
Sn 9.495514241573362 6.484354057842996 5.3293591984033695
Sn 9.41456679815248 9.43073707355198 4.368953867374856
