12
Energy = -40.78455654 eV
Sn 7.690389162785291 5.768832138800238 8.337926171671459
Sn 5.273584169320158 6.339106774333554 6.872299387007294
Sn 8.086119358374546 5.367248510427403 11.23437086959463
Sn 6.181752402587054 8.814077618566863 8.762610576158135
Sn 10.461536688503585 5.181159206709857 9.3439186906278
Sn 7.549442040853214 7.901415003569276 5.604886827076583
Sn 8.970859880317796 7.98162332858325 10.41613492788788
Sn 4.780648286662702 9.230264587386174 6.0287936382093426
Sn 10.275551122927157 7.55541312847479 7.678874695592025
Sn 9.060857415710508 10.458543465037536 8.664884290631962
Sn 7.02049076715219 10.955852979146542 6.496002106602865
Sn 9.955643084978389 9.75476719963291 5.790537279059173
