18
Energy = -62.31716736 eV
Sn 7.873244457734098 2.687294079249942 9.563690271168275
Sn 10.035753686315305 4.367192934769213 8.511381807159472
Sn 7.095663001697678 5.5783778774590544 9.698724021982022
Sn 7.189509706881723 3.821714671604875 6.945338424698039
Sn 8.795000352503196 7.096690383437404 7.783331608402962
Sn 11.715562469159808 6.1406108456273945 6.85618058927856
Sn 9.523459281474953 4.874025780201595 5.250414264940955
Sn 4.847202545777191 10.004917405786768 10.672354338865597
Sn 5.753957631530646 6.487416888432425 7.101181789048442
Sn 7.65238450110749 7.301554856017544 4.934143664362988
Sn 7.692078075026427 8.782118399131969 10.598487631643692
Sn 10.411197091208038 8.816606788730626 5.970595379206563
Sn 9.323345270591814 10.350606993973136 8.54554564639879
Sn 7.1617917932648565 11.968910279253274 10.406796711785773
Sn 7.757020852467622 10.292364629966201 5.415908026194462
Sn 6.206915949715351 9.565564551658237 7.967191952681803
Sn 7.426633477121476 12.61297374041432 7.455994825755048
Sn 4.650703311388114 12.129108401051687 8.562954364122616
