19
Energy = -66.21687273 eV
Sn 5.41412980814981 9.500636263151511 4.00801978483835
Sn 5.819118586597105 7.789790118585064 6.5499817029378224
Sn 7.638857477289088 8.070517586003783 2.47981493217389
Sn 8.241203244347101 9.394283152605727 5.232509649834411
Sn 5.241028249616281 6.561640972521925 3.7955600130219342
Sn 4.811646664962517 7.247862195090455 9.333663510041232
Sn 8.892612745487384 7.301892049282192 7.345675037460906
Sn 9.698898567705047 6.697607385082995 4.435429319952057
Sn 2.9656644862218946 6.089738840488435 6.838718392323378
Sn 2.0005075686658214 6.043042114085009 9.507767229041246
Sn 7.262059230642175 5.350519802711208 9.12536993382583
Sn 2.5195951390693074 5.297828404650478 4.01532158913948
Sn 7.712027838020304 4.939394196094073 2.7305111542712703
Sn 7.306489448958233 5.208771716056719 5.830059589032577
Sn 4.702533664406658 3.617675514828412 2.837392198097088
Sn 4.149921162025398 4.133120716619859 8.981017434609065
Sn 3.720934848126147 3.029144088334938 5.815899907421903
Sn 6.4740681176247845 2.8149520834553408 7.688957541442093
Sn 6.683969829227766 2.3731959895057386 4.631868650087936
