19
Energy = -65.89286511 eV
Sn 4.18566197893685 4.032865024188886 6.327639779268942
Sn 2.9889226520339998 5.1548207541450095 8.957353846505708
Sn 5.513971932218173 3.4736569603336647 9.093026989238584
Sn 2.5964956397674257 6.730067577324727 6.368535069753595
Sn 7.093214800524044 5.015055729239489 7.156448970146759
Sn 5.190381749978615 6.1379903309680195 10.787330332392058
Sn 5.433183180777621 7.346520034842162 5.98898717300614
Sn 6.559060354460206 4.488781465386827 4.139316777320553
Sn 9.241998038545695 5.351004137824654 4.950081798522187
Sn 7.365547312934115 7.347668471588281 3.3580724851601413
Sn 3.6910389584100005 8.16462522445771 8.926096548941896
Sn 11.822116563821082 6.389161986985303 5.812283690650579
Sn 5.854466985669734 10.319892697144034 7.736885849480669
Sn 9.699742508347896 6.3995985345386135 8.211895432150804
Sn 7.055121510442762 9.902006504994164 4.96036262150148
Sn 9.932081449140146 8.65524531478156 4.541555578840254
Sn 6.805878870002986 7.543574511148068 8.771673687663085
Sn 11.519419093084851 8.941789433638606 7.251655286533253
Sn 8.725912037353277 9.689865084907074 7.636132876651261
