17
Energy = -58.85264891 eV
Sn 6.105941766294342 8.88963687222491 5.51456039103423
Sn 3.6330692453901485 9.736295785237791 7.269251610872788
Sn 6.411428716496058 10.642554357010619 7.975309108080989
Sn 8.078053474572378 8.302963976094423 3.389504332845703
Sn 4.981714720119118 8.42480900905948 9.624609668543993
Sn 7.9698081836744255 8.538991424226646 9.38369254758338
Sn 8.764597450046754 7.730741485889016 6.387930068447722
Sn 3.8778555960518517 6.815166276730563 6.064793615985125
Sn 5.23906712552366 7.263785885536162 3.0921359225307072
Sn 8.822956635140484 4.779703118967463 6.3123082948353995
Sn 4.678407279792185 4.458892750634948 4.079652688237067
Sn 7.576598391084582 5.206108995859672 3.5659031645800083
Sn 6.357761423002041 6.3887914577138405 7.738868557882206
Sn 4.230007457624862 3.812477398837418 7.206493984211434
Sn 9.028654351059693 2.0653508108434333 7.206655069994855
Sn 6.851261581790796 3.5304432029236845 8.640132593959255
Sn 6.5361351430200845 2.5297918514833238 5.6810012801808325
