18
Energy = -62.72025746 eV
Sn 9.678337663835395 6.412233921998374 4.02652054132217
Sn 7.576878416276155 4.146462169715378 3.4532759647610427
Sn 7.126113775176653 7.156452049987552 2.5050094122483095
Sn 9.271051943037945 3.972931641440909 5.985194323405426
Sn 7.882990756416574 8.692757695657859 5.105045874574269
Sn 4.806562924596612 5.1537038006598594 2.047863352222555
Sn 2.4300505365370153 5.33192906920373 4.032032575592516
Sn 9.759989082577386 6.918800200800491 6.9237628880682855
Sn 5.418149739917255 6.5250482803025545 4.881417798814417
Sn 1.6701986298660834 2.678283335506832 5.171119035332361
Sn 6.3540975607149095 4.097889027245905 6.512707830844937
Sn 1.4492761570357233 4.910767780469062 7.11301620819618
Sn 4.55943587987808 2.876159586202731 4.126216699908929
Sn 6.908148742788358 6.93416235913167 7.523651563417601
Sn 2.886804644612724 7.4689287547178775 6.271259003991077
Sn 3.8840922824297626 2.6313777024082468 7.325055773505005
Sn 3.9291757546017174 5.436921573652612 8.580370917909393
Sn 4.496336929208612 8.252871923940202 8.674477092747289
