16
Energy = -55.06036851 eV
Sn 11.86314161654701 7.065161564251594 6.411669467521332
Sn 7.724366827091523 6.12819695561106 9.173324630167283
Sn 11.081918918766446 9.935833851045587 5.748530391368023
Sn 10.12433765643179 8.020774160017362 8.716933895636618
Sn 8.736695244935305 7.0073692133493335 6.170604924451384
Sn 6.6149757506713085 3.45699773189883 9.126048882620195
Sn 4.7803988258749905 5.2028996789586435 10.547056776347326
Sn 10.525046784720965 7.402275014675986 3.738496759348405
Sn 6.3023480035846635 5.24329288869015 6.45431407893005
Sn 8.552274172181324 9.538622672112353 4.12529482671855
Sn 8.318154922346555 9.895505218499629 7.276516259313758
Sn 6.453182749401567 8.55219628546688 10.486060604724559
Sn 6.007332302218302 8.481766240967678 5.487870180876537
Sn 3.522767926048032 7.7557120915878075 10.753276041599724
Sn 4.848883539623565 7.201086630294698 8.134922304638557
Sn 5.4819866823287215 10.199126247278809 8.084895813480836
