16
Energy = -55.68023375 eV
Sn 9.733404838856293 10.235807216395967 8.041817860739
Sn 8.437704270722385 11.59665517437986 5.564705095024631
Sn 7.376241895264453 12.14220637118963 8.39403770356676
Sn 9.336299647097329 8.523313441440193 5.543235952499463
Sn 8.835037196850946 5.999583731957076 7.517585467315887
Sn 6.564946524391209 9.395524244623848 4.420008147629573
Sn 7.008389778530641 6.950331556790256 9.737287271441472
Sn 5.4161111510067235 11.646289657647806 6.2191088553634
Sn 7.160651855347378 6.190063859248954 4.856521302323527
Sn 6.881066559868943 9.287535114050842 7.462354314693299
Sn 5.488943542199938 6.01087731849139 7.25498954172907
Sn 9.75190593098135 3.2398575625720745 8.009122973795177
Sn 4.651095793996091 5.035509031170926 9.917520151561563
Sn 7.188931000462046 3.6183496562461914 9.377149242970292
Sn 7.465266636211938 3.408254046299294 6.181305446116744
Sn 4.8231959365520325 2.979013842626691 7.570526913513142
