17
Energy = -58.54032763 eV
Sn 9.35234645713708 5.81598045151577 11.338961934243315
Sn 8.87841173641441 8.948671315643791 10.566470941375284
Sn 6.6506717177690104 6.900975998868818 10.701584454189486
Sn 9.826928002501461 6.912074470872854 8.653231864345601
Sn 7.033826654733112 8.95807866846545 8.200799102200216
Sn 5.132568443461842 9.328376384529264 4.637491611710582
Sn 8.131064667644267 8.104249510171895 5.473679426480266
Sn 4.401641811087784 10.134646309980603 7.366833094273146
Sn 6.40286545921905 6.151827778149605 7.54020605717514
Sn 6.788153700413929 7.738360713206912 2.7770991581089812
Sn 9.556870990456684 4.774635342816201 6.715295040026615
Sn 9.535674417475999 5.93611128961544 3.9901498267629187
Sn 7.921795970005958 4.174093673912353 9.137958801668164
Sn 3.357858041540616 7.574670105119182 6.449440006506214
Sn 3.920774718074456 6.733942831543681 3.60566322074429
Sn 4.236714784333659 4.755832849071823 6.190960609475587
Sn 6.723277627615024 5.215279267689547 4.490157286106627
