19
Energy = -66.11528376 eV
Sn 11.234866850713317 7.872133808605931 2.8301378708570946
Sn 10.351271506797634 5.00060703889721 3.4384684362249898
Sn 8.976853416888735 9.720634222307185 3.630835806321488
Sn 8.317888127252045 6.963109666091041 2.143378073089991
Sn 9.750075577148664 7.258379627060714 5.349235554543233
Sn 10.43516350615988 8.31510236138894 8.144747591866137
Sn 8.234005032545603 10.06627770248697 7.308331477514901
Sn 7.584344875778082 5.094381289456899 4.714090452913912
Sn 6.699853098401486 7.947222640967832 4.605563439501993
Sn 7.626630088386264 6.8525693136233095 7.604450586466967
Sn 5.4163047221809935 9.247789808395504 7.064616154553567
Sn 8.66788362519738 7.935483045130669 10.571052276505249
Sn 6.746514269769441 5.535103811093947 10.651640752911316
Sn 5.5095150146635925 8.13095663812689 9.929037591350966
Sn 7.337109949316117 10.62719302888021 10.244169602837266
Sn 8.290527337920214 6.253860049989511 13.132002690394346
Sn 5.324762417585077 10.344312178457256 12.30771888631422
Sn 8.121264039284144 9.32801093822678 13.295953267186352
Sn 5.550111103522654 7.43074360098008 13.09567026630145
