17
Energy = -58.5316775 eV
Sn 1.3022782451806652 4.870847261590216 3.5820760850518565
Sn 6.246468387855792 3.318176092568478 2.899155146615045
Sn 3.610162550972898 2.7956736780026095 4.198283421325863
Sn 4.0243385098337265 5.232670827257053 1.9564455350185437
Sn 1.2720706016972463 2.7901208823805876 5.903128003062327
Sn 3.101074288124115 7.298819011719233 4.132432225700357
Sn 5.984028459076412 7.391229297081783 2.7726122632639796
Sn 8.237867566085873 5.6035816185392715 4.067401104246972
Sn 5.782824827678358 4.442479936238209 5.7720817112531035
Sn 2.817077209656567 5.122245101773271 6.400351056402386
Sn 3.9928526770439863 7.696529895859373 7.277825887861876
Sn 8.368351388807913 2.7367838315309982 5.148385814414384
Sn 5.21768881243885 9.275062234120526 4.980665264964336
Sn 6.020227319645954 5.432235583540534 8.604553777940511
Sn 7.13528126899122 7.324778380275248 6.2698938056694455
Sn 7.001488400598594 2.6831340182591066 7.882054606655688
Sn 8.958116402959869 5.044557098589028 7.302408186346436
