17
Energy = -59.38801541 eV
Sn 7.675668444357942 8.432064728330289 7.50437715865778
Sn 8.13988297137215 8.442047629926087 4.3440745235342595
Sn 5.43149341203157 9.539968999474643 5.520206833775723
Sn 4.417134946097435 8.383679912468006 8.134556595914349
Sn 9.593146371438285 6.257905402914275 5.863072803901277
Sn 5.5278984932458775 8.157432375776 2.8173870898442335
Sn 6.22031591858038 6.10805719132839 6.291909076680696
Sn 8.455108932691516 4.956528968627732 8.410172273001166
Sn 3.0009648819133043 7.299991835853 5.510619702009027
Sn 3.208927299132855 5.491592439576142 8.18611294615333
Sn 8.455841499092397 3.341380420790109 5.90131374722755
Sn 7.911414136318761 5.275979984251005 3.361885986825799
Sn 4.840180980930009 5.5136376172732335 3.771026713895815
Sn 5.626009414112156 3.270572083485881 7.651217654759674
Sn 5.81730082973441 6.016218051445718 9.52543938136417
Sn 3.0894982047217794 3.924455274980504 5.618367910295976
Sn 5.905406166520019 2.767953589316524 4.413529105390517
