18
Energy = -60.98962358 eV
Sn 8.581194118472002 7.3314339828747865 12.02550025910128
Sn 10.47835598459869 8.130496180474866 9.604579340379537
Sn 6.108949056008304 9.20493942135249 11.982128118849726
Sn 8.488643898290011 5.644627966362615 9.38098035640517
Sn 5.882059075466601 6.375848347518033 10.809179114235786
Sn 9.044383074087822 10.392437902496454 11.355792663402386
Sn 8.838666931193101 7.557536520057744 7.0032596752320675
Sn 8.864618647276158 10.33369556808673 8.123521003429937
Sn 6.081205303424129 6.04190220548347 7.475877046760714
Sn 9.084399533257393 12.966892722020404 9.650136294541559
Sn 6.195181321892432 8.636866418991353 8.843950563835723
Sn 9.598793895092696 4.8587655420303975 5.523865399023428
Sn 6.302564586926559 11.47038592206824 9.872365348486811
Sn 7.278720125411567 12.69265238448524 7.308063087697018
Sn 9.658269889305824 5.930172810680864 2.8605990912960144
Sn 6.869340329039738 4.644352493515258 4.531063070236074
Sn 7.583868436313027 7.441886119858347 4.198144306027293
Sn 7.935499849351336 3.8152413587856757 1.9987172165263645
