12
Energy = -40.33733355 eV
Sn 8.195796088257534 11.258583541899313 9.870380383775652
Sn 9.396318353353612 5.273286492633546 5.956529039145113
Sn 8.817142497019105 6.235328481214536 8.573390742916185
Sn 10.920435741620734 7.698211295988733 6.641422704764167
Sn 8.030795957449502 8.249304223643158 10.811961649970044
Sn 5.83953477275746 6.352012927345359 8.619126201817162
Sn 10.578545321763139 12.020828144311448 8.296808337979028
Sn 9.104496124537738 10.108195228683407 6.8313125815408045
Sn 7.41209164161494 7.632041914796349 6.136947356726814
Sn 6.194818601133891 9.461138321871122 8.570549370018025
Sn 10.650200044871683 9.130803133391195 9.381478199174497
Sn 5.1104515730232505 8.066496598726067 10.938214301676828
