15
Energy = -51.26529944 eV
Sn 5.937194360189477 9.72591168100268 4.955822261085988
Sn 7.5189222230323995 7.26707702711107 3.5217914373178942
Sn 4.504090808220768 7.435225156007952 3.374992431547978
Sn 5.317808332001309 5.572017604015082 5.45833202061006
Sn 6.517391987567209 2.844328626101239 6.110048539380589
Sn 8.778603894994486 9.814390332858137 4.526145921442594
Sn 8.37542795367822 5.527345154673394 5.846829597657394
Sn 8.276491905877808 8.3027023511743 6.916146913457206
Sn 3.423778489860605 8.819076783649512 6.017993044127825
Sn 7.8347362353826755 8.391603810260603 9.803371753077307
Sn 5.383374146491488 7.581636488437483 7.72607837663048
Sn 9.065719464753323 3.542731754912893 7.822281131728239
Sn 6.203735948460232 4.422639957131369 8.536621983520435
Sn 8.575195111395916 5.522306309539688 10.146699367939577
Sn 5.529406612132807 6.47288443716374 10.478722694515028
