18
Energy = -62.38006938 eV
Sn 5.985282630229791 7.840139045294296 5.440777972265171
Sn 4.919379921509835 5.02342622209413 5.194607584278698
Sn 5.07256666259739 6.118341045234963 8.056006807563314
Sn 4.424095977612026 11.654172968679397 6.489738870018431
Sn 8.98544443574883 8.35516817722168 5.5678435604061205
Sn 4.166465490511225 11.570099568485228 9.640528353365656
Sn 7.95214380725365 5.467710401158423 4.335804527794263
Sn 7.33636350717141 10.721835645596224 6.802971603556128
Sn 4.965472325755598 9.15151388678324 8.154033062742181
Sn 6.436288227195415 13.054735112850322 8.400500211718818
Sn 7.156520964685472 10.425067760771471 9.971425730185853
Sn 7.874850724655469 7.832120962448298 8.269655082172132
Sn 6.953538018979563 3.635600063798378 6.779511741285715
Sn 7.630034280569613 5.079929406550044 9.474400143057132
Sn 9.297889039224211 2.7747542841914097 5.14251517894507
Sn 9.231122967346481 2.4940793783079314 8.379737900915204
Sn 9.670563829395848 5.402397378646083 6.937779865779591
Sn 11.680258759113416 3.2713723599808926 6.783555547261664
