15
Energy = -50.65139568 eV
Sn 6.32595898249541 8.404123688615448 10.352071791439391
Sn 7.469662918504547 11.259534839378864 10.521010406857064
Sn 13.122810538078438 10.758968849528133 9.55905225751761
Sn 5.199299066730095 10.99836110567866 8.846232483644389
Sn 11.413425025563974 10.830724697943223 11.866869487010113
Sn 11.157813357723148 6.396571145312209 9.694979244077802
Sn 9.295064740925714 4.5604651210017355 8.22702326955564
Sn 11.772804634870967 13.415473323749259 10.054619392378745
Sn 10.80107464877637 6.331512911797396 6.3918918520937975
Sn 8.411448007755144 7.287347567311703 8.233335298284738
Sn 11.177975238674467 8.81380448280939 7.938997076583637
Sn 9.988452764672358 11.42494734877248 8.948425614636085
Sn 9.471709916207523 8.714502766347229 10.855786404976268
Sn 6.30171303854186 9.00304240680299 7.19465709945952
Sn 9.450361647201952 12.996821551728567 12.02208534909219
