19
Energy = -65.66467159 eV
Sn 12.757975838797677 7.147675613893614 8.854634410031325
Sn 11.28180654097513 9.460578021465638 7.574372885724189
Sn 10.738236353583426 8.6422580513826 10.522032592971014
Sn 8.037059638875727 7.591146427102679 10.120675240115437
Sn 9.213942334768609 10.943239244341745 6.097138393796731
Sn 10.07323863308125 6.561109996833985 7.913642296504969
Sn 8.90414319319691 10.803670454724292 9.220166156827181
Sn 7.909843406497723 4.7792343986842045 9.132481907288138
Sn 10.03842446028409 7.928608329541673 5.266899693874695
Sn 6.409287105922849 10.872413175198018 7.2241980429718815
Sn 6.666770033991229 6.027817648952585 6.588040708560297
Sn 5.728743712229992 9.414136360125122 9.825237436758604
Sn 5.2755299762324395 3.456844589837861 7.865578107336735
Sn 7.045131352002858 8.616746377237982 5.14054120241399
Sn 4.422878458984623 8.506104603945591 6.973958102683991
Sn 5.045702363473165 6.3402203988528125 9.327613094865276
Sn 5.323212905392445 3.9668904677165386 4.91659683696355
Sn 4.600132865671377 6.803455051770039 4.156760331888888
Sn 3.3591170540149737 5.526794807448558 6.721139580575566
