19
Energy = -66.07612457 eV
Sn 3.958953414121379 4.524867220682096 2.05856359116182
Sn 8.730576661060809 5.705926140382148 8.838045858336265
Sn 4.02107205585704 7.517880298114813 9.190596970772622
Sn 7.27957471627038 2.46497682720134 5.299921903381165
Sn 7.086328712569925 5.371188372448155 5.969754123949343
Sn 6.551598977268264 3.564044817911006 8.352936425092185
Sn 3.310062361656087 6.261966621842702 4.394129267169332
Sn 8.484419361004742 7.103471420020488 11.461356256582956
Sn 4.180784944144016 9.157593166088295 4.158976718043259
Sn 6.9293523226888505 8.547362183462678 9.36557408521487
Sn 5.821664816896345 7.264782169514009 2.441558990055343
Sn 6.034129474163869 5.771985657435536 10.50904070161204
Sn 4.244405269460355 5.120536656151233 7.142767005153224
Sn 4.503445953835828 3.198317421826179 4.641152810093197
Sn 6.937667354342918 4.303267748671096 2.8278673628787265
Sn 8.606693846432181 7.971953259295006 6.744527438153561
Sn 5.484171468607515 7.9629194436622734 6.6246110072110795
Sn 7.190083834129542 9.51598270915964 4.372528661008597
Sn 8.63324818842822 6.838762279140166 3.7229871708830315
