16
Energy = -56.55545087 eV
Sn 10.4485798899673 8.335487524179156 9.073514905602416
Sn 8.580442261922904 6.613022721011394 10.8083873704573
Sn 10.670330354022237 5.210304939542883 9.063530851621191
Sn 7.833968583546144 4.070476466334765 9.084516428592798
Sn 11.268818306883619 6.771899345927793 6.504244037459374
Sn 7.443573603998446 8.397976845957308 8.603839105172254
Sn 9.289815356205084 4.366953514859326 6.376405683564567
Sn 5.458751329584056 6.304253327777989 9.660228611653457
Sn 6.700850633653058 5.874123927660397 6.890172700523513
Sn 8.623563746373954 7.9096125745834724 5.946662110532355
Sn 6.658568742491453 10.870937428949533 7.029911417097052
Sn 3.79066050037621 6.753279366804576 6.761476149974624
Sn 4.50958439414617 9.268579000888892 8.534657649571544
Sn 7.072896270712219 9.66982819426279 4.187119577477852
Sn 5.588305919047502 6.922424892387557 4.252063246181215
Sn 4.307209648482866 9.48896723578186 5.488133338038497
