19
Energy = -66.00473241 eV
Sn 3.5903868198795994 7.422294165361682 9.238088320792551
Sn 6.96673149157813 3.673790654186998 7.78316372253522
Sn 6.3650412727089964 6.45440242761485 9.129003684286365
Sn 8.854830925299717 6.1535996600540885 7.722596505283146
Sn 4.418714543690391 1.9512175574420976 7.718189274279967
Sn 3.9717506582335425 4.891679546551897 7.859009045032562
Sn 7.755736444085646 8.485561337935415 6.108526603387623
Sn 6.737337382633773 5.531943044630379 5.3371556573779255
Sn 6.908874040895771 2.4102826662519847 4.823504765460705
Sn 4.790492243060712 8.217550320235272 6.614126875774185
Sn 2.3457069008106357 3.4108709541157167 5.656066449677862
Sn 3.8593232287659416 5.811610576816746 4.801191125644013
Sn 6.359868392220905 9.427324411839644 3.4361265863145705
Sn 4.405995151129375 3.447961093193902 2.9626939304115205
Sn 8.367179620125057 7.194258411769633 3.3072012553946575
Sn 7.472170929428675 4.444577061473961 2.3890652376567387
Sn 3.4543903529461715 8.50384123483414 3.7614198460233643
Sn 4.216589722576949 1.139780650318134 4.889037418427641
Sn 5.4877778957369125 6.849817780876612 2.0829649047595344
