14
Energy = -48.34366149 eV
Sn 3.77460214541782 7.490480523832345 7.7537693524604725
Sn 8.118857348313684 10.223239562843196 7.4117614529581175
Sn 6.104119451436189 8.323827542265555 9.199018084245425
Sn 5.820203555876787 8.712978801891714 5.970493285147764
Sn 8.866671362667716 7.5901348134399464 5.622342171077131
Sn 7.7492568262254515 10.45298326758222 10.358002137170828
Sn 10.893533222485145 9.386435763557953 6.6354160832687565
Sn 10.377128209064603 9.118174074552345 9.599927834524479
Sn 8.384305710422318 7.229271459814684 10.780888718734737
Sn 5.303961041036714 5.381497386567746 6.262813498963814
Sn 6.69248618578557 6.7337952671986185 3.918152428464526
Sn 6.728646011127743 5.31201106937598 8.998424233458302
Sn 10.09168314051393 6.364961561544715 8.19060358692841
Sn 8.218110029954405 4.7586105933896246 6.215798554089627
