15
Energy = -51.00684539 eV
Sn 9.601755478358546 4.35490909944897 3.2603473441540163
Sn 10.98733805804996 5.426605844243246 5.737754246127858
Sn 8.186114817842348 3.885573085652614 5.7998048479174145
Sn 8.721447980167946 6.960490017189271 4.225029536568511
Sn 10.160862600895435 8.214991867418638 6.562133968499709
Sn 5.983862972774157 6.16779278489144 5.929926059761295
Sn 6.536792638336562 4.482620346145043 8.25752527088701
Sn 3.9711387500176243 8.421534891180244 6.189148488903052
Sn 6.7773333955646775 9.113484889411966 5.226292542713256
Sn 4.649243455530472 6.859095589487275 9.495909965825254
Sn 2.0992346396325603 7.558669340936633 8.33044650337277
Sn 9.161595844402262 5.816488372628765 8.200974048013741
Sn 3.9512264335408345 9.804413331961312 8.97299612036754
Sn 6.254866262000152 9.101056512856617 10.6190404077962
Sn 7.318910500992496 8.366005863297854 8.003531790935371
