15
Energy = -51.76926069 eV
Sn 6.554063384380374 5.452274061776237 2.3731774799325174
Sn 4.856144952862683 8.179709757252763 2.5256902744279204
Sn 5.049005010828446 6.5932502332498455 4.826333645445573
Sn 6.519403107106917 3.5779532190677656 4.777136496446363
Sn 7.662368695195922 8.173716116254813 3.5309949263905116
Sn 9.007952814230789 5.444142757491775 4.305513357177464
Sn 7.575523866078725 7.45644981942571 6.456430166743691
Sn 4.638936646944782 8.230365213261608 7.639333312950257
Sn 8.400892328316367 4.580537232383902 7.277863550936109
Sn 5.210836980550584 4.782484849708318 7.2419580131750845
Sn 7.232977516587184 9.717014437330697 8.298038093023019
Sn 6.105007740059051 7.984981699759941 10.478288993378923
Sn 3.890458139823686 6.0317144539569005 9.552033045012118
Sn 6.8239208557965645 4.991345043912297 9.90443263752372
Sn 8.875807530707888 7.207360674636483 9.216075576906489
