11
Energy = -38.04848695 eV
Sn 4.814285030491636 4.817222554655974 7.4648155759559085
Sn 5.698240967430846 7.033684658711593 5.660365421274321
Sn 8.651798079066998 7.595582761345138 5.580559533910344
Sn 10.478490267291123 6.38259126887629 7.627324581515669
Sn 7.729831289124636 5.2404205926367045 7.643844603459891
Sn 6.588067117513588 9.58000572916476 6.997507143408658
Sn 9.715254362971686 9.335676485255075 8.317718059063225
Sn 5.7456911452309605 7.135921697930804 9.011976406124848
Sn 8.969661089012162 10.469825646944985 5.6096091602857046
Sn 8.680627940874219 7.0123355589905465 10.02139307069613
Sn 7.0695685379828355 9.620544829527592 9.957577000150652
