19
Energy = -65.52882148 eV
Sn 5.07298533917241 9.538830581650696 7.620115724641671
Sn 6.1821735813190335 8.12287042237876 5.302596539731852
Sn 7.462334263134235 6.3977015269619955 2.9060278034151703
Sn 6.509361164528662 7.105056146620046 8.734687358633375
Sn 8.453207692888762 6.305575374762898 6.100311594399516
Sn 2.9594346403470055 8.662235861701348 5.5621086763842955
Sn 4.8440376234524996 8.07843161876001 2.6434360687430876
Sn 3.511779664639549 7.041172854594974 8.443049474881093
Sn 8.014885995369147 3.412789144978284 7.225409961019395
Sn 1.5247656956293518 5.98919820139527 6.500498666345973
Sn 5.343307286819422 5.133617426270075 6.762465292865182
Sn 8.885777446832554 3.8669791070649997 4.310792711357134
Sn 4.713407290708134 5.181998065903098 1.7038148783602738
Sn 3.7178379716602157 5.854111571852494 4.443744005036233
Sn 5.173883985252984 2.1743461068192835 7.239069038693592
Sn 2.3777898522021466 2.994876301151061 6.286781614589764
Sn 6.796706529767628 2.934161571056093 2.288919005189593
Sn 7.156836894567487 1.4015398217830435 4.9680455300782995
Sn 4.45683346560028 2.803926617759761 4.160992954792753
