16
Energy = -55.95399388 eV
Sn 11.84768513333993 5.8904262130669105 8.459144662509983
Sn 11.455595233062185 8.898396998477866 7.95076506057279
Sn 9.470074497559075 4.220233849945637 7.471351180750203
Sn 10.52927167406149 6.73196952823602 5.8839007412414785
Sn 11.057746089746663 7.538980022063746 10.887629862705433
Sn 8.853476946059642 5.6140692919703765 10.126245149728414
Sn 8.68406673935646 9.087480198432694 6.832045120863644
Sn 6.280712248420934 8.068412282169781 4.893669291059717
Sn 7.542957385966575 6.36795729660058 7.198497076466853
Sn 6.235115232251779 7.327799903020585 9.784045764872051
Sn 8.762950187828727 8.963149289751675 9.861287002737505
Sn 6.8070336409290535 11.066906048388132 5.843674919482999
Sn 4.548681574738343 6.642444797671761 7.083978281992603
Sn 4.167241593690582 9.626545848144659 6.388469051658817
Sn 6.386683441852068 10.620807971521266 8.839276914793054
Sn 3.897682772775884 8.967325642573224 9.320670694745967
