17
Energy = -59.38240111 eV
Sn 3.7718214168989417 8.603824159996478 4.009099411106733
Sn 3.1629283365982173 4.174016854364293 6.758151527110724
Sn 7.9172798660096 4.467039290746461 8.318578926774363
Sn 2.308000613025468 5.820526760042263 4.25971650366841
Sn 9.344726027702182 7.798828634775003 4.807209105880059
Sn 5.875122567948487 5.283452018654625 6.299207600141678
Sn 4.375461063733902 8.082569636868124 9.501556324611263
Sn 4.769309851142528 6.23973907678549 2.422004443453885
Sn 4.541877427727078 3.541447793940091 4.025934496184035
Sn 7.502546599732493 5.590964117668558 3.6201604849134585
Sn 6.383760288122052 8.037630582836185 5.238250352723215
Sn 9.83338844046847 4.87362695163317 5.511150131457716
Sn 3.475223949388408 7.27773063580395 6.781079138714658
Sn 7.541997041639234 2.9423477092977723 5.6057555988718555
Sn 6.969243327694932 7.620099897817203 8.186366009684203
Sn 4.860565511041388 5.15337400229432 9.319311586847322
Sn 9.803717927548773 6.891623638040294 7.728920386146909
