16
Energy = -53.71102376 eV
Sn 10.089806280242817 4.231082076674486 6.10665868502609
Sn 10.606196157797967 4.760534674494576 8.993157162542225
Sn 8.343646328368992 6.312572960066419 7.139447396355123
Sn 7.893981400227383 5.360102471276473 10.108346518522717
Sn 11.575127961888956 6.700983382333877 6.77311927746199
Sn 9.328851663934614 9.12147829139656 7.032453430867137
Sn 10.017652886263365 7.757076391179399 9.819190038233096
Sn 12.095988094190472 9.212871191314738 8.050183938517426
Sn 5.576052005218759 5.970816000229732 8.261462459759464
Sn 6.832550994430216 13.09633236347142 5.669851404271772
Sn 7.723644443804671 9.878599591977437 9.54066527849789
Sn 4.974209585906257 8.874308294909424 8.352418094482633
Sn 6.690265449856651 10.296649980187073 6.472353160194889
Sn 7.006136988172006 12.898706769045091 8.40568008975527
Sn 7.89912226889039 12.38185252749855 10.99468915651521
Sn 6.124856990459107 7.661578474320828 10.893073279776381
