14
Energy = -48.73814615 eV
Sn 10.69557112438023 12.141467087844056 13.049151003568845
Sn 6.66674308807662 9.565929114169185 11.953056803096654
Sn 7.921088114043421 12.231125128281034 12.027908197143203
Sn 11.163105695396721 10.807899500356115 10.357037362168
Sn 13.298865992769375 10.494926510512501 8.387283294966418
Sn 9.123301971517607 9.693682115436696 13.559883289416007
Sn 12.28230528827202 7.8021518056397445 9.667828200168637
Sn 10.567114397895194 11.694966141920332 7.281886807153447
Sn 8.393685273805838 10.886220812989379 9.26681736037968
Sn 8.62884966411107 9.418035291914121 6.5358623726151635
Sn 7.10672512455409 8.098081924171728 8.905499443829516
Sn 9.516920056716968 8.37661150223182 10.781688701155748
Sn 11.542848812977962 8.754023166037326 6.75117830030206
Sn 9.805809540638434 6.74728212476386 8.145067911853253
