14
Energy = -48.41778491 eV
Sn 7.069037934010287 7.409020048590837 6.652967886006951
Sn 4.70588538388344 9.1183715630907 5.566812478131995
Sn 7.705594567639391 9.053672417559012 4.343962826403244
Sn 8.913488050495912 5.36150146639369 8.164379406411777
Sn 7.858398566803485 6.06511948711994 3.488651820092414
Sn 7.379690621790702 7.617852289484268 9.737432041122613
Sn 5.430365779325887 7.836586651203208 2.8169233666724423
Sn 7.574171495561882 4.8157992175259325 10.855590145265618
Sn 4.312221848298205 6.039431509169126 6.196263500651527
Sn 4.883183646725435 4.858069995039845 3.339442793468143
Sn 2.801495724800406 7.206564631408169 3.9630903586435178
Sn 5.477316975835644 5.428569123888918 8.85756186162441
Sn 6.865363066886759 4.368122879064467 5.753123777959629
Sn 7.086630474136142 2.8915496080413026 8.442425745316134
