13
Energy = -44.64447872 eV
Sn 7.544340753224926 12.136170125116616 8.208054039094915
Sn 7.2194592020157495 10.120586904112194 10.449677533152034
Sn 5.961153694361218 9.759010359546854 7.524151445812339
Sn 9.616250956556797 8.329446103688058 10.657892989651554
Sn 9.44448025959593 10.009948691515687 8.21389913812065
Sn 6.874475456256931 7.194608787175318 9.545180524364374
Sn 9.36721984086293 5.398930809700303 9.652823746194754
Sn 10.114752203448129 7.17109360334548 7.282219956669675
Sn 7.465597087830059 8.039117128566245 5.585940079003415
Sn 4.930874789423626 6.939935525547976 7.258524166404454
Sn 7.666211098653355 4.867030980918805 7.292871792631924
Sn 5.964419202685552 5.34982829763175 4.973362312822292
Sn 9.035142524674416 5.7516400664697205 4.704128759024691
