11
Energy = -37.49146621 eV
Sn 6.781117218620748 9.522888423523984 8.045082916751856
Sn 4.961823306489843 7.6960506093717465 9.477784830231876
Sn 7.802505883890606 7.000235878873712 9.640058546323896
Sn 4.033029651076405 5.752793675104627 7.445693945836592
Sn 9.343669922436401 9.70392963715051 9.80905351710333
Sn 8.466002503375972 8.481241291619678 5.232432503897112
Sn 10.815474601130575 8.679445497481648 7.234360216659663
Sn 8.990133518265154 11.034697527584548 6.952123827745553
Sn 6.591161086559511 6.688924338715429 6.745007093322451
Sn 9.478913275458321 5.906903601145278 6.832125244338707
Sn 10.68217095097713 6.807323629496172 9.563063501183152
