12
Energy = -41.39991699 eV
Sn 12.14226909316278 8.95328629743512 11.51013429821465
Sn 11.291235170205763 6.683471493234732 9.688789786130446
Sn 11.907684247455105 9.379760435812653 8.371370963804052
Sn 11.851938815588323 11.780258699446483 10.435194958225662
Sn 9.433711440078694 11.428367447643414 8.87089123710259
Sn 8.73525429852081 8.201890770071607 9.384981334599614
Sn 9.572884435531234 7.480063986147799 12.17357640458415
Sn 9.407372192310334 10.525557003347885 11.984388871700478
Sn 9.2424065250667 9.292578293901233 6.613399899308136
Sn 7.000748994919578 11.54769823864451 7.1743699395437694
Sn 6.787478320240278 10.36948589563908 10.161667135069159
Sn 6.306855146300043 8.704988733759095 7.54289241211681
