18
Energy = -62.92888833 eV
Sn 9.03513611662064 5.228962354786515 5.617489647481643
Sn 7.603775654415822 6.569865267451158 7.992374487617066
Sn 7.841187646365709 8.0382254111727 5.274109891498584
Sn 7.188720258854762 5.981785941260938 2.8406942147829537
Sn 6.736743991675633 3.4607462067360877 7.5364771609603824
Sn 7.464548718078305 3.0811021718548184 4.382718291067009
Sn 4.9879370762493975 8.4560562175713 6.997910094003712
Sn 4.926829544485905 5.742817735142434 8.977282551306066
Sn 5.420479368429798 8.599616246637444 3.664904794821991
Sn 5.318440874491293 5.635732206344891 5.518481248114938
Sn 3.30651883179078 3.425592783293151 7.75474478446094
Sn 3.838943535091029 6.432024692307591 2.172726530884745
Sn 4.849266282968328 3.7176841930745876 2.622968169115728
Sn 2.3973368557453942 6.33099039437461 7.295176633319888
Sn 4.575038549263769 2.1800199429835057 5.421771108030719
Sn 2.6352068497357366 7.727356059841147 4.690896436656624
Sn 5.870847034198908 1.009019476969054 3.0547588814773734
Sn 2.374002049765083 4.485068259625347 4.614344473371552
