11
Energy = -37.73737538 eV
Sn 9.119081899141532 10.327435858983515 6.60909999959381
Sn 9.216735554584062 8.090027775131434 4.706862995456959
Sn 6.669310338216745 8.716918984110173 6.294170057005817
Sn 8.932936195700577 7.748988660459115 8.205156947306298
Sn 8.414078678488565 5.702129333628756 6.0460473226348554
Sn 3.9160053034472613 7.947311788434455 6.815502153022671
Sn 5.47508402421459 6.086692127212091 4.88847602611318
Sn 5.977016123204427 7.796126707457133 9.177310849340687
Sn 6.586175538701793 3.5549002260647873 6.352455742088431
Sn 7.520499642382821 5.131016990320617 9.067234039677484
Sn 4.6242978762596705 5.240715887033927 7.9052846467521345
