17
Energy = -58.53397498 eV
Sn 5.042154097621301 9.461909725937744 3.9993941744228714
Sn 6.767438453035243 7.098753177499201 3.583733216761839
Sn 4.669895829356884 6.893662086581921 5.721575914698467
Sn 4.638901925022726 10.256791991316767 6.838773399524122
Sn 8.14904081256713 7.496882799319666 6.196439679757668
Sn 8.817697451279715 4.536280629927436 5.584532565480591
Sn 2.289661350155365 8.825931693427576 5.221324757353766
Sn 6.344607721284599 8.186339838074874 8.400528301207693
Sn 6.4856076885029825 5.103414884664491 7.54918858004572
Sn 1.9144148002404555 10.356604987384866 7.73674640697586
Sn 10.036847683501472 7.752277746830548 9.308590558434574
Sn 11.421329766645808 3.5956211916089185 6.997241399737981
Sn 3.1409073848906046 7.68398422473382 8.184754118097509
Sn 11.066612689429451 6.6808752629890105 6.498948598964683
Sn 7.467959829741862 6.23745161418296 10.369723325266602
Sn 9.381228085458295 4.764053550335566 8.727704585009032
Sn 12.199896490404953 5.620417380747188 9.211493516683868
