11
Energy = -36.82450045 eV
Sn 10.920132624855396 8.184113182526898 5.433460109975818
Sn 5.363931665452479 5.594838371510114 9.853604389522541
Sn 6.559394921021944 8.341758139612569 10.292495786115706
Sn 7.994199455743136 7.37963868164132 5.167034839045206
Sn 4.394330601986483 7.794210893460258 8.18820506364255
Sn 9.368254878483151 8.371685339518248 8.571561202725393
Sn 4.957597988336373 10.514442699936367 8.988912663832378
Sn 7.010096730057099 9.485822157398935 7.153689042519699
Sn 10.204654258002781 5.770409181374372 7.035692477760106
Sn 7.2922787577534285 6.121844985359949 7.765486707306054
Sn 12.107175680253148 8.54209835904255 8.02174082342312
