19
Energy = -65.86308218 eV
Sn 6.7188410027790155 5.151919886879767 1.4995715726175116
Sn 6.847001457837067 3.44589587433798 8.871720960845806
Sn 8.997961930071453 4.972597983312422 3.4739550419482272
Sn 4.912275879536517 4.654003986343724 3.7128814443970612
Sn 8.686926851212029 3.989254876407024 6.244235830898316
Sn 7.803684632226281 7.733491380925162 2.7931325987687288
Sn 4.559050195418718 7.473589912577885 2.47707144004612
Sn 2.9298689849088984 3.5511581934553758 5.629564098588115
Sn 5.8423927175080985 5.093681799417303 6.535940015702824
Sn 2.1361537895381884 5.9390862192033484 3.820051647391081
Sn 9.161996123037417 7.202915548876586 5.53525648407411
Sn 5.973229886943078 7.78793482433373 5.230912686269369
Sn 9.745215844049913 3.9330985862695726 8.960232605943068
Sn 3.846684732586388 3.7862871609741995 8.638911547176235
Sn 5.253390721978413 6.323203814413062 9.473810150474424
Sn 2.8964863094917503 8.679042748812263 4.9049729628871654
Sn 2.569722394727998 6.316229333863051 6.969704198630298
Sn 8.256511653080734 6.45771998757221 8.468110296989904
Sn 4.461603590015186 8.682922271945404 7.565241956874928
