14
Energy = -47.92400409 eV
Sn 9.779947762169257 8.671292107542447 12.969254460285455
Sn 8.349033380945201 10.670437865413334 11.145175890231565
Sn 7.70486779413401 7.384706345303955 11.036018517224104
Sn 12.609179631596549 8.29752877197254 11.736522270125995
Sn 10.390600160651875 9.064681845631561 9.779619939593948
Sn 10.615317748049815 6.0440022202598005 11.400832835916763
Sn 12.316805923801821 7.012939448915802 9.001269831853259
Sn 7.282027159910813 9.384559176927537 8.731207294440818
Sn 8.770008605295784 11.495358802129712 6.75937157536547
Sn 9.304753669813543 6.405877498561813 8.561194530701286
Sn 5.673717377994161 10.750127320413666 6.714299632095883
Sn 8.10215695735658 8.558601006512538 5.941629393028088
Sn 7.406775723312515 10.994200279098886 4.266440204857053
Sn 5.482153494961429 8.702686441348744 4.555041139423247
