16
Energy = -55.43477828 eV
Sn 6.951172279246226 4.268063144046531 9.656729118102707
Sn 6.55947252845717 2.525223159546524 7.124435046540713
Sn 8.012964299648337 7.061996371942793 8.826704863442812
Sn 8.983638381663969 4.4949913882275006 7.2990617456522795
Sn 4.121999281604406 3.76375111389318 8.654289559365514
Sn 4.99726306531518 6.669000270344911 8.678583768805899
Sn 7.370227801626628 4.18748471697826 4.617002111395702
Sn 8.270262146194229 9.434276540133006 6.92838598041675
Sn 4.552519215670687 4.739012050018768 5.906885148714775
Sn 6.9184213850543275 6.774690026394044 6.072738441964682
Sn 3.940914855306671 8.050500059269401 5.860712644879832
Sn 7.385746512432078 6.812229620355918 2.85307322875967
Sn 6.3817686789681 9.278094971182213 4.5390983364860125
Sn 5.024122042257754 4.759412379483633 2.6787061328420676
Sn 4.4386242809570975 7.7981984228678085 2.6401342472670186
Sn 2.5352110786500393 5.963391148776161 4.156313911355745
