12
Energy = -40.62169834 eV
Sn 11.27630032902033 10.303524239429441 7.197512631754158
Sn 8.762113174951176 5.172292071155595 6.91669375426475
Sn 9.40640439006793 10.123831827878831 11.70323829948727
Sn 7.30039075647483 8.19224370682983 10.559852627356188
Sn 7.202624080303897 7.657979525752334 7.495539663200044
Sn 8.480147109309364 9.753482387078158 5.706526292851413
Sn 8.699787809215774 10.291536402274971 8.641666304117177
Sn 6.675123439130434 11.296792547021033 10.497182795167124
Sn 8.291238770547857 12.559005732890299 12.522820825196536
Sn 11.362241326961046 8.699284021305743 9.724525644042009
Sn 9.448024150888317 6.389681879257583 9.469557171358735
Sn 10.401880805449823 7.542073503346851 6.619134220291672
