17
Energy = -58.6717006 eV
Sn 8.320656133933335 7.880690647674393 6.527294487152301
Sn 7.780045411482832 5.3462823851331995 8.504511560294251
Sn 6.141390424420526 7.949582720135948 8.66880528728563
Sn 5.593420578894287 9.253272164094222 5.782892078041709
Sn 6.941546824675764 7.531983889020185 3.7542121140399747
Sn 8.215332426401881 5.054074561087737 5.444163101790604
Sn 7.675255640029095 4.900704439393773 2.3539435373296302
Sn 3.340238421647629 7.971998020605733 7.462764291358623
Sn 3.3433586994040554 7.560677494967987 4.306978747187732
Sn 6.620315568154008 2.820437275838646 7.022082543054418
Sn 8.350635826190198 2.362091180125082 4.336469167943345
Sn 4.780331655149498 5.76325344705799 2.3128271464315495
Sn 4.749049277503526 5.240661541797178 8.007404738564759
Sn 1.9755209045836712 5.450947640997641 6.57075805099976
Sn 5.554235018548262 3.259516406982873 4.078752105790014
Sn 2.6753957031717146 4.380926656732746 3.872158192294005
Sn 3.556253081963627 2.8101758613358503 6.523342081412584
