10
Energy = -33.21404873 eV
Sn 6.668369781758686 8.168340363108834 5.683716974885385
Sn 7.484793817644075 9.735313740308815 8.342421873907888
Sn 7.216495375578366 4.99308989000566 6.632226781329766
Sn 9.168796270067899 7.549399149350213 10.01641123112396
Sn 9.446366211977395 10.361224914858367 10.520907926088313
Sn 4.397730671706634 6.4381287585011755 6.349556226130477
Sn 9.166616393626853 7.350451661982436 7.038202326564801
Sn 5.321661576352533 4.449525420704964 4.541074376141083
Sn 10.510238501007732 9.801659710721559 7.8011081638394275
Sn 6.307006783303359 6.865355089459229 8.774461017056337
