13
Energy = -44.21282455 eV
Sn 9.320166264429647 4.961089297978148 8.578875582063795
Sn 7.39747579493576 6.970050366951412 7.735044207485603
Sn 12.322798087113087 8.106432337136589 10.121747615757785
Sn 10.666805541657068 7.481416826556567 7.787689689062154
Sn 6.767381729023809 7.432729026711811 4.818529551496911
Sn 9.896816398486026 6.670117123695881 10.907607596408871
Sn 9.113977042515955 8.991799237933943 5.738651188333257
Sn 8.285317511435213 8.7547493995682 12.218843160187205
Sn 6.773888940268352 9.082574020552785 9.744573415210551
Sn 9.955295688376692 9.875600123145874 10.041333221563484
Sn 5.910481022991569 9.57895381711395 6.482031619907539
Sn 5.7116431076119065 11.619439790885849 8.55422654638946
Sn 8.45295613367462 11.030161662306222 7.764178872145098
