13
Energy = -44.22720165 eV
Sn 8.094946939350173 2.732909929025178 6.225278680436704
Sn 6.434085774506129 3.079461763216756 3.763683637945657
Sn 5.927630902501145 5.563410995939403 2.3096349285808673
Sn 7.867015733749243 5.682588992286564 5.041486720457036
Sn 7.474202685119302 4.968050624460483 8.286088761409575
Sn 6.448730855860274 2.2043320458175426 8.749820244368339
Sn 5.3422692710901725 6.545141451747592 7.078706873765052
Sn 3.6945549033003413 4.989949536727206 4.374634730269104
Sn 5.081256983582642 3.418923932401295 6.584401601646424
Sn 5.451871402823426 7.810594605829547 4.13145990315009
Sn 2.8309704320793077 7.641874468824767 6.034833971174667
Sn 3.666802229408692 10.10365461181615 4.6828358306505535
Sn 5.679897999095541 9.40225525972996 6.720698672313296
