15
Energy = -51.45105088 eV
Sn 8.829631746865275 8.27191242684143 4.274839947441248
Sn 5.95952048271857 7.834086790108502 3.714117678764808
Sn 6.418921956208482 5.461248708220023 5.593070973444647
Sn 8.923081954395984 6.822267648311699 6.841368148632335
Sn 6.91957877516302 10.316270737843917 5.353654065999074
Sn 4.188222803415695 10.067252827693222 4.308215326126536
Sn 4.636245559535327 8.106997012380482 6.562679225331502
Sn 8.388018019783035 3.971065800833507 7.897855977712534
Sn 7.156522671021273 8.90124418983575 8.123083406195663
Sn 6.093521971144303 5.9897612002418015 8.611245489256182
Sn 8.674149521669339 5.057834335892635 10.696078140720001
Sn 10.993263875924749 5.530741316392234 8.525161183981597
Sn 6.8412853553879325 7.511101543799994 11.101712843805508
Sn 8.16859019326454 10.226148942090646 10.483724439490446
Sn 9.73133948068528 7.853960886697612 9.835087520280391
