18
Energy = -63.35739422 eV
Sn 8.45105164593575 5.980612356084375 9.891762027598828
Sn 7.828539159552112 8.881622490429367 8.713686217863811
Sn 5.682758899286254 7.302331477575743 10.175176190399995
Sn 5.866359032094449 4.274936838258237 9.539853792134409
Sn 10.03553784805372 4.596047807576342 5.1256996458376065
Sn 8.288309427580472 3.766694389536694 7.650900449528206
Sn 8.644867780996789 6.713780518111922 6.864611506675376
Sn 5.579836760365267 7.975095871260826 6.95865064978365
Sn 3.586194515853697 5.947133083702915 8.168379559265842
Sn 2.4969470224661157 7.8263980256177135 5.820607262488089
Sn 4.716722381300615 9.395714594889428 4.468143186541108
Sn 5.9128382365866035 4.953320618015417 6.347422596070291
Sn 9.43651088379774 7.459188403846531 4.07984178812956
Sn 6.476888969156564 7.074945589186108 3.9020672861862664
Sn 8.288946476049102 4.88748091534627 2.7517953299885978
Sn 3.4748681664563694 6.806842919707898 3.085778344066002
Sn 2.80509628774694 4.776749416571152 5.359235179581059
Sn 5.279902268300447 4.267394420891516 3.544783249604469
