15
Energy = -52.9348239 eV
Sn 4.208614664863556 5.926618252461738 4.932045869252267
Sn 4.348555627381055 7.729552977135313 8.976744799718476
Sn 6.9856197520213215 4.372231171150753 4.7214521061234915
Sn 5.912784437787099 5.354050086381605 7.597189490500122
Sn 6.976382245283096 7.535528025236223 5.294235873264449
Sn 9.10223082305734 6.215283707244434 3.688041722027155
Sn 7.44422022552219 7.970539929497455 8.351933186396998
Sn 9.94188561728528 4.1806351009252 5.9216047920873125
Sn 7.443182121808176 2.8280489486147107 7.237991901446906
Sn 2.6726423688086713 8.289587802390976 6.442253968322358
Sn 8.872975749426617 5.148678263843316 8.656620590648174
Sn 2.9390644566334334 5.382068392891447 7.583835078429868
Sn 9.888736445560527 7.21901190813225 6.4829083085806145
Sn 5.35678110525382 9.785508749038195 6.787395636665442
Sn 4.583699833046831 8.740032646854797 4.003122231618503
