13
Energy = -43.95955008 eV
Sn 8.356736953583436 7.020461502811245 3.8466819985878975
Sn 10.609433230399226 5.9092998137173804 8.596666619375958
Sn 10.110450645304962 8.843682645164739 5.440146751608721
Sn 8.902997875240164 8.266791356879578 9.327440070244068
Sn 8.44964071125765 6.431798700433156 6.659634899846911
Sn 6.975557232471377 9.11958895701864 5.372565064816361
Sn 7.677028377090256 10.753567531039554 8.764321239508742
Sn 9.290711937739028 6.149621792150189 11.358860366113383
Sn 8.68158254218787 11.380841970984273 6.06429079334518
Sn 5.431078698784331 10.077254830194892 10.407903271061704
Sn 7.297541845468557 5.234271379322424 9.119802648242507
Sn 6.621567593737305 7.465494093353842 11.315387440879
Sn 5.833503421556432 8.016087641703102 8.189940962138762
