13
Energy = -45.26241591 eV
Sn 9.831374801861672 9.429597315364068 5.096668592317368
Sn 5.678406256319787 6.20563938382514 5.666664228488953
Sn 10.004663891308692 10.124377673337703 8.026443492666724
Sn 8.693838410402495 6.644396524112118 4.817346798394389
Sn 10.915339918224506 7.334073650736965 7.105477393892723
Sn 7.482363384085482 8.73054250758523 6.839686571648912
Sn 8.284030214398893 5.588178633742754 7.630634056125053
Sn 4.503022889871671 8.923719690054458 6.704647761952976
Sn 5.781819247603777 4.030507903616188 7.818765773272656
Sn 5.9004716657770375 8.801417603929522 9.468762435792568
Sn 4.082517482985424 6.486835080810204 8.354760702147805
Sn 8.858159535393742 7.803524566112419 9.689572661375877
Sn 6.418111094292797 5.833172753130585 10.265219573563646
