16
Energy = -55.99830234 eV
Sn 9.618860759039697 5.718178590101407 4.885269529976033
Sn 6.484157552675624 2.9308328856321686 7.0615816664146775
Sn 7.339763520259264 5.940160225338514 7.651904796486835
Sn 10.032138776088454 7.0557929457871955 7.6381557344480715
Sn 9.691478750552971 8.789950792097807 5.162446363777967
Sn 5.75974623571082 4.463493855269099 9.681014073814342
Sn 4.452170545707009 3.124217239375116 4.742426283088683
Sn 7.787296270596752 9.213909602706872 7.630499664604323
Sn 6.557893656765051 5.200256377718143 4.768007619155906
Sn 3.5034589631615116 3.4401195438405914 7.757635571350992
Sn 6.943174726496207 9.964186355518589 4.7376728122938
Sn 7.817399843725451 7.445026580251965 3.122351930661848
Sn 5.5095103366514495 7.736509294808193 5.996539698276911
Sn 3.174018933559086 5.622095724658654 5.5801708284126
Sn 3.9126957175893717 6.418127037509821 8.566525186021376
Sn 2.6439408458266973 8.272515810941501 6.720990880370448
