10
Energy = -33.08924251 eV
Sn 8.13959355383023 12.093709893766505 7.48646870005237
Sn 7.83690107728994 7.547017781558539 10.848223656191585
Sn 10.66152006340544 6.65835741828268 10.550131426406693
Sn 8.936638834145421 9.51548427082538 5.936792208528051
Sn 6.482724525348325 7.7339700273871355 6.85097499378653
Sn 7.626108402255418 9.732863389844585 8.924865915907333
Sn 9.509059687197967 7.342170035625015 7.999015684782808
Sn 5.935398794962057 10.464021033688754 6.252084224263936
Sn 8.20193744936682 4.969108829373878 9.526802206288265
Sn 7.751229253287233 5.1031417377610175 6.689927973087171
