12
Energy = -40.91659077 eV
Sn 10.283033406057891 8.747301541119796 7.950712375366306
Sn 11.671215508642668 6.192794996303383 8.232106834119785
Sn 8.565906892569771 8.750088656594265 10.70134541730209
Sn 9.071359371475458 5.9328163913470275 9.494580081645555
Sn 7.917100906531965 10.528197643522422 8.258771032182977
Sn 9.560538408540564 5.9886601398814685 6.247200502664993
Sn 7.433018710438935 8.116129066049876 6.165609572167313
Sn 7.001948087356525 5.063289171755027 7.4713497294527125
Sn 6.204286450606467 8.060801820034293 9.20727724383624
Sn 5.016634700226914 8.555634785362061 4.665392830802971
Sn 4.51435627112277 6.7414420665743275 7.1312710028009985
Sn 5.015665511770051 10.01811812422772 7.224997278310478
