13
Energy = -44.58876462 eV
Sn 5.814925042254946 9.158726 6.683319478415573
Sn 8.135148206902901 8.482909190782697 8.727379065602458
Sn 6.764677501862546 8.700573463056946 3.713628540136049
Sn 9.040788671616054 5.59104333817269 7.228053878388098
Sn 8.798259011652439 8.602717838962974 5.90336235861827
Sn 6.276519788087923 6.276519788087923 8.056058602460492
Sn 6.738114533920907 3.394313576175848 6.683319478415573
Sn 4.725595013445248 6.599134584402231 4.513606008804121
Sn 7.827444562730603 5.953904991773612 4.513606008804121
Sn 3.7547805645234127 3.9503217372128763 5.90336235861827
Sn 3.512250904559796 6.961996238003161 7.228053878388098
Sn 5.788362074313307 3.852466113118908 3.713628540136049
Sn 4.417891369272942 4.070130385393153 8.727379065602458
