14
Energy = -47.8118979 eV
Sn 12.91037420645564 9.67560941490702 8.104328023104921
Sn 12.688436204949408 9.052844702584762 10.940918266793068
Sn 10.420854473139212 10.0996812909843 12.61629902613812
Sn 10.724552640427289 6.913173678482329 11.787180768554151
Sn 11.608175304563808 6.8627497694346244 8.871071509674733
Sn 9.96006377125389 9.410787325461886 7.890498507106693
Sn 11.049004625688687 11.557131831996092 9.942690956804839
Sn 4.72652343059758 11.844090764606218 6.3148000331301555
Sn 8.620213681762017 7.21385224511411 9.467908834038173
Sn 8.012837337902596 8.131414679917146 12.346629555217586
Sn 7.447174615687448 7.84753525106186 6.638959342851524
Sn 6.991952447801994 10.753283969051331 7.543136600218473
Sn 8.33167640499509 10.25522694084997 10.257909548352
Sn 4.782787758323614 8.957467529052304 6.632925661891339
