10
Energy = -33.74716546 eV
Sn 11.184441333471964 8.172540278592331 9.510611931107226
Sn 4.79735565289739 6.688062882238404 6.390635757088039
Sn 8.218736066065714 6.857570079099005 9.960053548998529
Sn 8.815656108393219 9.80223810791646 10.23171477151901
Sn 7.1530236060456645 10.88290020942731 7.868903735755202
Sn 7.578260493469493 5.91076989367836 6.816949676624965
Sn 5.714218934670954 8.39470132805819 8.516708732765844
Sn 10.248229031671602 5.63277290710066 8.159973323960415
Sn 6.791802050871135 8.856123571738745 5.576727398100653
Sn 9.233916501246409 8.568525353606118 7.3535591235557485
