19
Energy = -65.85034307 eV
Sn 7.47352457394083 7.942893774453166 8.58075934018548
Sn 6.250179068957777 5.85804024045908 10.262428537964604
Sn 4.720934147436017 9.01588955012258 8.94655099133571
Sn 6.060651625431799 9.61125705442092 6.280641816985632
Sn 9.253652607846245 9.629308031595173 7.04749077285457
Sn 3.706294867267493 6.237811451542527 8.721939400506551
Sn 5.60647021201168 8.057811223376008 3.591195937578141
Sn 7.261436307944541 4.802654281942023 7.625963396216865
Sn 9.641911274649688 6.766433101325752 6.219569853877452
Sn 8.455252206664712 8.98964517628102 4.2216508943292785
Sn 3.1399289953179963 3.415193975418143 7.662961841568079
Sn 9.349358134385524 3.916108311398963 5.60744014675516
Sn 2.2676794751432725 6.1402987233316875 6.169226437784973
Sn 5.363648769805915 6.486829973879086 6.128440208917338
Sn 4.9607641896679135 4.9929934651284125 3.229220250573064
Sn 2.66632336375946 3.613635928943996 4.700155066600688
Sn 8.31696201839348 6.103484496018843 3.419530373362509
Sn 5.51592801887002 3.1084763212520112 5.718498381596146
Sn 7.401374434723173 3.206077263052985 3.39387744450265
