17
Energy = -58.90081053 eV
Sn 8.767612902606897 5.128915761076893 5.405668849860619
Sn 7.016214326366035 4.42748666585029 3.149010534854225
Sn 5.944917344212076 6.72248457961963 4.645755825061566
Sn 5.566533284713884 9.301243918461545 7.816739126116803
Sn 5.965932631638774 3.8297154085233442 5.830453048648805
Sn 8.039410781098708 7.958399544515248 6.644079705000008
Sn 8.013899706732074 11.040291420858122 6.744448383780912
Sn 6.91212938933953 6.930253178589446 9.371204444429196
Sn 4.737234822202243 6.111934637784373 7.391855571770129
Sn 5.75679705928002 9.015478902996104 11.121607335635096
Sn 9.890219358159657 11.516726042961887 9.203889431316332
Sn 10.732411107624948 9.417041692337921 7.087120164151752
Sn 6.883569123859848 11.503075298712435 9.635870509952674
Sn 11.442264325182938 9.007750886634886 10.20443899531369
Sn 7.888578170615113 4.315592507217616 8.224422355369715
Sn 8.667169343081888 9.14169108438077 10.935951097162066
Sn 9.932034416112499 6.784563275531465 8.748409837361736
