17
Energy = -58.47864384 eV
Sn 6.409413477805688 1.858228052725414 5.105656543553472
Sn 4.144018240987987 2.9424855483675323 3.7058838824919884
Sn 8.472168441154954 7.920936439234518 3.8403891642586787
Sn 7.157239525699526 4.700779310574196 3.9495570043238266
Sn 9.3639880458705 5.87108337558136 5.928617003481026
Sn 6.867724614813672 4.8515672191254975 7.070902238358313
Sn 3.3115300750815644 1.7947428879296394 6.363736633704086
Sn 5.764054180787081 2.2604606239692857 8.05399501211089
Sn 5.775397275272115 7.198610681020314 2.6808477642638677
Sn 3.016873660635646 5.515744002890102 2.7988492030666214
Sn 2.1594990548662385 4.501003582154294 5.5575544315002015
Sn 4.747417008888763 6.102911300875226 5.394651543615026
Sn 3.8268241718509755 4.7378462351637545 8.119586285148605
Sn 8.329426222945543 8.660318955241749 6.65003627440157
Sn 5.67762211635746 9.105112542291435 5.091196391577859
Sn 4.977533998927944 7.7771801839795485 7.937507190104925
Sn 6.338829610265525 10.326216811615865 7.883727084607669
