17
Energy = -58.73153999 eV
Sn 4.338261947402547 8.239465377938519 3.247654332336432
Sn 3.4871289350134633 7.771592170770089 6.220129309246768
Sn 6.464782110613877 8.276477385123158 5.477567345540478
Sn 5.491788932836766 9.081403149544721 8.154308673191778
Sn 2.9666803360557723 5.6138315899074325 4.084413072701511
Sn 4.875502314254399 5.550585510535425 1.687267956198823
Sn 1.7813486693554825 3.122309902671553 5.012045864738961
Sn 7.355090998460862 7.115444076033841 2.8259059713755903
Sn 6.1696489951521905 6.276615451701925 7.8079513492198505
Sn 4.003884764245706 2.8375740356410333 2.7596639622790002
Sn 2.9921657431000392 4.918071628670607 7.2953303018681686
Sn 4.434938279625333 2.258127185862299 6.0104117962175545
Sn 6.94117136607397 4.1039215025553055 3.4104175036012223
Sn 8.312926831792137 5.840228307736275 5.613639944391304
Sn 5.41195029808804 3.568813058444168 8.587391989879508
Sn 6.513578745083411 1.2462066138480457 4.00699717131232
Sn 7.416076494547357 3.018209029897538 6.332533664912497
