13
Energy = -44.52748648 eV
Sn 9.302611285833056 7.365460691359048 7.6505690987444135
Sn 9.33181399504918 9.98665234304849 9.367822854536081
Sn 9.402689082039455 8.233923941321962 4.861035104955727
Sn 7.624383342948239 4.953393934466661 6.136612834596954
Sn 9.188084716989508 7.298068072870126 10.6327409541074
Sn 8.341677887415152 10.465830591497507 6.6006478812205875
Sn 7.076198484028764 5.720615992224243 9.317353387283266
Sn 7.184302972693552 6.498466791855325 3.635395887667331
Sn 6.301182908430869 8.369040577328718 5.898909167543535
Sn 6.560379379683029 8.827474226450134 9.216371728265829
Sn 5.187908126806261 4.0561877789153815 7.785448979767281
Sn 4.709817712746919 5.825944666586312 5.2785280016862925
Sn 4.334180913283334 6.959028247675624 8.174746660738224
