14
Energy = -48.75275397 eV
Sn 9.746105820749627 8.024304078857204 7.627429106558364
Sn 9.927678696829782 5.073866467551518 6.832621330975305
Sn 9.700058575743268 7.293296581894847 4.70151729669959
Sn 8.423247989141517 5.947661603512519 9.3003264624228
Sn 6.910478931985058 7.724682733200141 5.931461363364467
Sn 6.891330722813091 4.580851513992281 6.797192687487273
Sn 7.03571657545701 8.980289452760102 8.74312611155382
Sn 5.237306037345152 6.652413882363112 8.423905689194818
Sn 4.115441238702066 3.9800321359741035 7.681764876021871
Sn 7.169524875311394 5.543393162733966 3.962891177961783
Sn 4.362520955864779 9.10819174683291 6.467267609162904
Sn 2.889271302876543 6.515353090202433 6.279175807834945
Sn 4.3617258138907316 4.417024133106592 4.638218044183498
Sn 4.511116182686202 7.4306024718199595 3.8450418858645317
