15
Energy = -52.39920252 eV
Sn 8.893022055789073 4.697770798847631 5.113188979801723
Sn 7.240245922388714 7.347035481935515 4.456649213264057
Sn 6.452298167842859 10.46229895155677 7.216933567793812
Sn 5.928014021143903 4.980880620069912 5.861046788734554
Sn 10.283680816623244 7.4184562100074345 4.528364748577262
Sn 9.056776899436459 8.9036369123713 6.713548202577206
Sn 6.344281415708619 7.334385424488722 7.5591861087007794
Sn 10.783863999436056 5.952320839319483 7.209189550844262
Sn 7.990319728423967 4.69042505807878 8.097888719833849
Sn 9.090728671216574 10.79336725334093 9.037317848753162
Sn 9.071925136305845 7.34021264367989 9.266533571904878
Sn 8.65308273394864 9.099133390370975 11.560791471950905
Sn 4.2709097374616105 9.032087199513276 8.784433546163033
Sn 6.123374318669957 7.645198971304337 10.752777744602342
Sn 6.298560648114003 10.783874517624174 10.32323420900767
