15
Energy = -51.55554714 eV
Sn 11.811953524843199 7.1421010738956925 8.86218930833796
Sn 11.053210620045462 10.04322084373996 9.65927636782343
Sn 9.790417953194607 7.739879329001832 11.19571243872162
Sn 11.202040005496707 9.260844456135233 6.753203014646757
Sn 9.941354428312733 6.417364432070503 6.392658003765441
Sn 9.092414517528377 5.513538077938082 9.164817840549487
Sn 8.200555879567402 8.966676991742531 5.477862197170326
Sn 6.145663062339992 6.839532453305828 6.067784760846255
Sn 8.688178299990643 8.491594013357735 8.51761429857958
Sn 6.034722114699139 4.788236341954408 8.28625563713431
Sn 5.3167058817028705 9.744271896472641 4.981250635117715
Sn 4.416442567798122 7.138573326753336 8.839198638788009
Sn 3.767483007395985 5.10539316654751 6.307223122573411
Sn 5.897676943843702 9.625358948664456 7.891662606135377
Sn 3.183090866897501 8.015787557451825 6.231082547341396
