10
Energy = -34.69096132 eV
Sn 8.228849649302628 6.998888125293509 4.832513002565611
Sn 6.189593377066783 5.80429692095008 6.860149522494843
Sn 9.20433121074712 5.509055084379579 7.334536697054419
Sn 4.939942352047373 7.737971725734897 5.128335349737109
Sn 6.946910802760933 9.34959249438304 6.4141014995608705
Sn 9.844330439272955 8.557940567625998 6.951957690229712
Sn 4.9584785644561356 8.146659050920308 8.489038090221388
Sn 9.891338404455668 7.259963743278323 9.7093565459131
Sn 7.663335946078903 9.282351281063272 9.39496952806575
Sn 7.016133341171498 6.236525093730709 9.768286161517368
