15
Energy = -51.94417761 eV
Sn 3.8723343971152997 8.578121832022582 7.6300995162299206
Sn 5.054090251913362 6.108680644374058 9.392353198529747
Sn 6.266293346509722 8.719336312941419 9.822139265071089
Sn 5.8388081806174235 11.059061075470332 8.221184929322161
Sn 5.486610898291536 6.4169420890650235 6.3248795500753765
Sn 5.871507249678468 9.590879084134775 5.508694944573317
Sn 9.251042951364038 8.577329146252984 10.666385635111352
Sn 7.94773131293715 6.193837258226729 8.50979341127694
Sn 10.997752942803903 10.715618341057066 9.621113260310954
Sn 8.607942538970194 9.83931598755358 7.883839558742132
Sn 8.294956260322364 7.4682216653984534 5.8718444069856535
Sn 12.0820653991888 8.016930756833744 8.829002178266244
Sn 10.323295402530482 5.843688353404904 10.343800004368829
Sn 10.901793147700898 8.806862264047554 6.027345914499331
Sn 10.7977137145322 5.8347014276079365 7.182544335493597
