16
Energy = -54.6111159 eV
Sn 12.360747753151712 7.398534381495221 4.397253634824399
Sn 9.707867021170317 6.1292251258762676 4.6459661737028375
Sn 10.988829116799016 8.556334797306992 6.589691473383551
Sn 11.778747678348656 5.6243112029730185 6.977393234927696
Sn 7.943279478616906 8.557887848369596 5.344031539580269
Sn 9.098031083266742 10.621116912926583 7.522526341783999
Sn 6.455954202763134 5.321003467360939 6.355573614328982
Sn 9.038833370499583 6.305916493412182 7.629993653587123
Sn 7.726976990128555 8.543823145297969 9.235219835539231
Sn 5.802873086767169 5.535738738106205 9.251014998785381
Sn 5.994522414703684 10.491305667811103 7.382281167119373
Sn 4.9190012622046275 7.925773844044553 6.511245780771535
Sn 3.356545368680871 5.642690403327034 7.579483602087931
Sn 6.1954374759401265 7.314518126440517 11.533035376514094
Sn 4.653457682124367 9.128491401724292 9.64923869028903
Sn 3.2267732077313314 6.644222870548064 10.448574299298093
