19
Energy = -66.4923187 eV
Sn 9.394342003783407 10.84079585072634 4.000206910865322
Sn 10.737277331393383 8.053014495684165 4.940580131953747
Sn 11.430454230288158 10.791741299369539 6.207555449025185
Sn 7.577585940038077 8.603374941198501 4.457543283919498
Sn 11.496338963290782 8.299516095036525 7.976991634934803
Sn 9.68658706271251 6.040738813959582 9.70379358568897
Sn 8.698614089309089 7.0921321321473 6.925136808577549
Sn 8.27452097027067 11.513021506026499 6.659682636262406
Sn 10.269022363129022 11.122273303886411 8.960878380425994
Sn 8.386343855849683 8.957451348951048 9.322758692612629
Sn 8.01605264868355 4.251070703403944 7.529898312015464
Sn 7.504803497345578 7.303720867709835 11.74139900398671
Sn 6.174432027162762 9.196204615857772 7.17722385936599
Sn 5.359925086585537 9.164828546374734 10.172005648853531
Sn 5.85188842743099 6.163544153135356 5.987092816162651
Sn 5.028842098372996 4.364704839097909 8.445866937361876
Sn 7.240915568327653 4.377227529508641 10.57389902945417
Sn 3.863832412606076 7.29163137133454 8.150806438684729
Sn 4.74730601505796 6.24883281638587 10.911048723280114
