10
Energy = -33.09681827 eV
Sn 5.781707681560435 4.454498799919852 6.373628849867739
Sn 4.42718494059493 6.739129980835979 4.512175498848403
Sn 4.762084226550737 7.181585878951062 7.3206116720410055
Sn 7.262663797367157 6.64275164658443 4.8075810032570665
Sn 9.669862779292039 6.690261863097853 9.954095062191408
Sn 10.07293577146024 9.81271665853843 9.666980341507873
Sn 7.3880914827221105 8.766673247084531 9.60565434054215
Sn 7.0200869482124 9.268607218415474 6.508281456508717
Sn 9.887829215382748 8.272876350691789 7.2652880442112515
Sn 7.684441703008308 6.203179079399585 7.870880795149685
