13
Energy = -43.96074284 eV
Sn 10.216439568158203 6.5491234724691685 10.990266515252687
Sn 9.368456731679297 7.5787263505292435 6.845216938557014
Sn 8.935441433434887 8.936147474205326 9.705481177777507
Sn 8.28278790399974 5.720025160855486 8.956626323813662
Sn 6.468452288037181 9.186768943386843 7.6852822842088795
Sn 6.030004928096871 6.555443660744245 6.250928502106892
Sn 8.327000351907644 5.870391734406022 4.450770961375295
Sn 7.572340470133504 8.985576991861166 4.7175042477048645
Sn 5.261486629875244 7.236155286344823 3.543399991183698
Sn 5.248203200766315 6.414534107114616 9.113161049697363
Sn 5.6934784227467805 9.085241960983598 10.563591679402293
Sn 7.422531136395315 6.9871490619734455 11.631571078476142
Sn 7.783780382294953 7.4442865333613115 2.0977851016098747
