15
Energy = -51.50594935 eV
Sn 8.716432340796763 12.411320841504608 10.058991908034713
Sn 8.001150046484968 8.399219853911392 11.960977301808862
Sn 13.668982359357866 12.892728541879956 10.209199129456154
Sn 9.296599279389389 10.42655768843896 7.524440330102735
Sn 12.584826650281009 10.71644649545566 11.885294428329495
Sn 10.494074270784662 7.162653317893246 13.308414715704924
Sn 7.058209639057625 12.48893360977417 7.70020899133632
Sn 9.86195451770869 10.335165559203729 13.426369892253069
Sn 12.660314532002896 7.615371311061683 10.972986091631837
Sn 12.796720344801308 8.841266500468201 14.004992433071239
Sn 9.652924000773764 13.829950206975363 7.386254073214894
Sn 10.257784989348796 9.643206782478158 10.396027097631196
Sn 11.716145505846496 11.86356825276199 8.403188812636591
Sn 10.971393627940621 14.350996516674947 10.12128715572495
Sn 9.849995718353563 6.666463660321963 10.311186593022377
