10
Energy = -33.89050227 eV
Sn 8.856755641475708 7.66757395223478 11.499688585765767
Sn 9.760533621294858 8.375536359188395 6.582127445158671
Sn 10.731472973764888 11.120208097020983 7.861680267328951
Sn 7.466313141045155 10.141177189420818 12.52989135853126
Sn 8.106346800544074 6.955631763869844 8.686479836162345
Sn 6.339338342676885 9.037872694722575 9.897795958500852
Sn 12.54738167278606 8.63843058553348 7.223413816239245
Sn 7.688518098990482 10.333722646725176 7.431571283961446
Sn 9.026458985993962 10.617805787184462 10.225517760456194
Sn 11.146470143092735 8.463360556313855 9.722394767786563
