13
Energy = -44.03960612 eV
Sn 10.349473450645545 7.046216052962362 11.068232748005148
Sn 11.32657795459256 10.131024196469573 10.399315533878907
Sn 10.561696280102842 8.373847771280692 8.195909740322033
Sn 8.854966155673031 5.718985039309814 8.909090768562704
Sn 8.28398286159618 9.003510601855329 10.518555593128363
Sn 8.951050780381781 4.283654871513658 6.507703794351684
Sn 9.071444284263919 12.017432519182044 11.422423715507497
Sn 7.347095628214972 8.772926420407519 7.583342800598031
Sn 9.1279272269281 7.088239320107882 5.776314701983145
Sn 9.3579521480075 11.600225226155265 8.487505382215481
Sn 6.814525592859104 11.548415598129594 6.961106942711439
Sn 6.377012095769782 6.052281522724189 7.273438185992991
Sn 6.567632133386206 11.4219125864968 9.982725283426731
