10
Energy = -33.54498057 eV
Sn 6.837429879930185 7.618046263477628 5.916753641249175
Sn 7.397801406839312 5.954891979003776 3.593177209859803
Sn 9.316486163285838 3.9769321475256882 4.4308685764163185
Sn 4.137873647015264 8.692004424784276 6.191527190512911
Sn 7.053493005943807 4.383631220850591 6.45310865122305
Sn 4.907039465660082 6.186588694519972 8.147776980502114
Sn 9.565778352529366 6.322456347809903 6.125251065161362
Sn 6.4449079212538205 8.954559401680394 8.598039789613702
Sn 3.576617516026436 8.815505542903797 9.007209481458316
Sn 7.96344867536752 6.296260011295365 8.737163447854893
