15
Energy = -51.53674845 eV
Sn 9.180986236255581 10.203104819964345 11.938908727940287
Sn 8.037440519094663 9.148482400687692 9.263978938147323
Sn 6.628731956555742 6.692069121646095 10.390533035215856
Sn 8.635559992895352 12.259689499350111 9.585079157460648
Sn 6.944348330433265 6.616341632324709 7.169295266945896
Sn 5.180249691386954 8.827537200162311 8.583707901634806
Sn 9.597179971608195 10.435291699111254 6.854932225337042
Sn 11.743402153442235 6.523163567503975 9.231608636572892
Sn 9.627053578968876 7.116393339771057 11.46840121906994
Sn 9.040444144968339 5.307641841088187 9.03117996175188
Sn 11.339424549124859 12.076151305356122 11.21992678251755
Sn 9.908274958061508 7.449940322298625 6.9165375818392825
Sn 11.207600016801793 9.477892085861438 9.550825020453242
Sn 6.6973829353954795 11.15499119676271 7.372661093128134
Sn 11.418009245551332 12.333297262461066 8.175527404913687
