12
Energy = -40.50634111 eV
Sn 5.209889659471549 9.909750005000678 9.485252911210038
Sn 7.184334383777764 10.188889719994458 7.112212039906482
Sn 7.994315794981419 11.176015469930546 9.864206717923704
Sn 4.419028987243579 9.229242269340979 6.68892068286885
Sn 5.8647164530352285 7.095732886044676 8.125470269817667
Sn 10.349994364775167 9.683396935278363 8.477668249369374
Sn 7.908202947139331 8.195332118387956 10.09185694615689
Sn 7.264293023951137 4.899457914114043 6.689841276233342
Sn 11.648610220698753 7.534425045708682 6.682558955481468
Sn 10.563733141772136 6.852643151991255 9.569571808894382
Sn 8.725433343486154 7.484673027182723 6.730565003969306
Sn 10.203382222575536 4.881063641733304 7.408338533323252
