18
Energy = -62.53426499 eV
Sn 4.025219283386476 3.3090409596476045 2.5894423667796564
Sn 4.889792224201455 3.970977290253958 5.393440284365672
Sn 5.7549637113944785 8.341101013533684 2.6725618000379363
Sn 7.381834430976316 1.9237958839513756 9.17341190317418
Sn 3.3334394577075406 6.392450865455109 6.636367713827379
Sn 2.081182900291837 5.024806552037845 4.229497492212867
Sn 5.952487726116025 7.483087536450426 8.441285473339715
Sn 3.5081340111995365 6.273239003320191 1.8246630524416698
Sn 7.616350622402555 3.4458345822485867 6.675794534440939
Sn 6.864204789399208 4.797963605244586 9.497708346981215
Sn 5.977178414905042 6.804787197802355 5.365525654003652
Sn 8.469827662505258 6.314107448298408 7.133114158475758
Sn 4.7349960934053135 2.835396145057505 8.225968429515884
Sn 3.002749027518654 8.154184869927763 4.2300656045354454
Sn 6.291440582773202 5.1702765105746575 2.696321203814007
Sn 3.8166830556940914 5.475585019397129 9.433228081618372
Sn 8.49218058727391 6.773292171746742 1.8704694850406027
Sn 8.487187092237217 8.140569706453547 4.489921024123262
