19
Energy = -65.05466782 eV
Sn 7.886317051544038 5.112778584511449 8.51305395029756
Sn 2.7160447493822426 4.413438848709715 7.1633896201428495
Sn 6.818570544017978 2.2788538481868508 8.487478989055464
Sn 3.364843938352749 4.319773759261476 4.03953296024106
Sn 6.320802278487216 6.181286777292516 3.976167810320329
Sn 5.542776452060521 4.279004696612958 1.6405268395141333
Sn 7.477974366862515 1.9831665570258938 5.469314449156552
Sn 4.908072568150036 4.627271978603277 9.382384386843691
Sn 5.574382930973951 4.039984424925464 6.231029207201947
Sn 4.168763806349778 6.167863752502202 9.63225544297198
Sn 4.475913522221185 8.621097285003597 5.131970846249566
Sn 3.63122851332928 7.1050597483683875 2.6105142053245647
Sn 5.24377911297975 1.9364643140497488 3.3821316650458417
Sn 3.8091953116859796 7.312915326746267 7.845631637929499
Sn 8.477684936104534 4.9001616068167015 5.523795956080536
Sn 6.938772016615756 7.705632618279972 6.6672335039496105
Sn 6.718019679711294 7.036731650788733 1.1694780435353793
Sn 1.9492949448002246 6.796700369711342 5.510205260912703
Sn 6.315761030434008 7.416361763294028 9.63225544297198
