11
Energy = -37.01178747 eV
Sn 5.6061120047935855 8.095507159191751 9.473541829671781
Sn 6.800664105588505 5.60665288388614 7.852253898706052
Sn 6.785929289877386 10.292550693524518 7.445404468966912
Sn 3.954067572441755 9.454301838199243 7.45032822851198
Sn 8.546356595359594 8.304903543873273 8.916132010448669
Sn 4.183379831436415 6.5311407178892535 6.879864375595117
Sn 9.883602346652136 5.837739344820694 7.461379674198579
Sn 7.598253310751616 7.856801578942559 5.90494757251998
Sn 7.977909696487342 3.504848176918278 6.1211252595498
Sn 6.079527651791123 5.540581784094604 4.7396708209522345
Sn 9.305499710184078 5.708749583399779 4.538781479201278
