11
Energy = -36.22861094 eV
Sn 8.113866279099073 7.323144832205224 6.510240203995993
Sn 11.4272297803594 9.919446434019639 4.3041008055567245
Sn 6.35513604986531 8.013692597456757 11.448145082708585
Sn 7.076940679292042 9.307665148656834 8.793867671981209
Sn 11.078932205347082 7.800657437777182 6.2662412635209925
Sn 3.8327441068287524 7.012926518496549 12.249231154337377
Sn 7.736785750668237 6.286098404667267 9.29091276086254
Sn 8.929285444422536 10.166712720906254 5.999022940206355
Sn 10.032231390652282 9.115210737786175 8.738260812328171
Sn 11.66611912369669 10.929833517160679 7.115663347544708
Sn 4.9903745630665215 5.691172671821505 10.0290029948274
