17
Energy = -58.94867859 eV
Sn 10.943320257995646 8.030195941151236 4.538659934455012
Sn 11.701756880554594 8.413668621051533 7.5829263486533245
Sn 10.152010396827823 10.59102146767811 5.952068431435946
Sn 7.731083041363668 8.842486389027354 4.549655730668638
Sn 11.437151513971036 5.5913855641195305 6.3713587317164135
Sn 5.364282569444131 7.755525073299494 6.459733875897455
Sn 8.549579430388855 6.235742754926682 5.465544551551791
Sn 8.547591267474928 8.78569502881368 7.526561520301327
Sn 9.646372840002517 6.328377646143008 8.857867684665038
Sn 6.217576333302442 8.4332790782315 9.40480709032163
Sn 3.7091735344764487 5.019871646574203 6.722758361869102
Sn 2.382341606216327 7.670785680162922 6.431319227686855
Sn 8.822182150876024 3.9336023495860233 7.133363469290274
Sn 3.6866329482587865 9.677713554376158 8.314203149921925
Sn 6.274960480347774 5.4150527011639715 8.248202846360853
Sn 3.1953728077949877 6.8259683620915395 9.181818134661478
Sn 5.509472192060619 6.038129654032487 10.972950659201574
