22
Energy = -76.69634542 eV
Sn 7.4266563345368235 6.180200228446801 5.382118075014468
Sn 12.039553707827912 6.271460147081792 6.651707357932531
Sn 10.366621664445491 6.641291028262591 4.238818361980218
Sn 6.5861806849132085 9.079544031924257 4.709323833315866
Sn 10.036762372547393 3.861299341976253 5.64082862901497
Sn 7.157832190988592 3.4969773457192015 6.518523751361083
Sn 8.898418544591376 10.716829743380575 6.124486770850424
Sn 6.022262821501472 11.002951863736177 7.1923496199533155
Sn 9.422627087097132 7.886357874118689 6.836634025563529
Sn 13.373713384546113 5.623408038298007 9.088116893460384
Sn 5.718223162610211 7.783020914468532 7.426813096519191
Sn 11.357792280790074 3.5740286051805445 8.294992756415997
Sn 8.69691233727427 4.8789976168647 8.496518904672305
Sn 5.543624686183297 12.09418022674104 9.9266544584307
Sn 10.65839445009197 6.9919642868587655 9.478465469991113
Sn 3.6202467935325333 9.400241112578987 5.925769831898853
Sn 2.849818812429548 7.9889198904394085 8.630241410971733
Sn 9.768338280052117 10.015405836566345 8.984316602393331
Sn 5.337038431331799 6.902500039135801 10.212978227045891
Sn 3.084184820221642 11.093421640596466 8.395867145022889
Sn 6.970757850045161 9.430100726571034 9.725709663015492
Sn 4.108992024371469 9.581326031501302 10.965181038364785
