25
Energy = -86.87928821 eV
Sn 8.037029534849106 6.3849141849638364 2.7897617703080817
Sn 5.825541701722717 8.446887271293667 2.0423278201276784
Sn 10.627165047293435 7.824155817257373 3.60482306166603
Sn 4.3208815505006495 8.76914149608342 4.639868912943349
Sn 3.0936021267364775 3.776578701763294 5.111539062030555
Sn 4.614586443241356 5.954881001214712 3.479565420476895
Sn 8.328171718398453 9.566967929243553 3.2001410362961455
Sn 6.192119671102289 3.596857733100682 4.617063933318918
Sn 11.5187447620148 7.345516006599582 6.430713278561668
Sn 2.3268626433966513 6.772506486874575 5.612219729637405
Sn 7.231235311143355 8.830131410376795 5.883927834694079
Sn 4.716383057758525 2.5465580656285485 7.264033770962658
Sn 8.72697076763244 6.218234370754424 5.730603160749545
Sn 9.266134108745556 8.243980508591017 8.234055906691854
Sn 5.301940122467551 5.865168678554697 6.691928235253276
Sn 3.277338427945616 7.431856831167392 8.445421774426118
Sn 7.527316440896982 10.711245203612886 8.381196274158928
Sn 7.912546060372217 3.4160029180019187 7.199017314045206
Sn 6.262490614582603 8.149429596171657 9.35097902494347
Sn 4.705546082137823 9.9682463770121 7.381452072406733
Sn 10.470938213528287 4.854826855116054 7.908692436709408
Sn 3.57087330169287 4.525722812327546 9.309861458311225
Sn 6.357537818467663 3.4037642404614457 9.83018768322784
Sn 5.679984608868941 5.956382038347971 11.258564006443283
Sn 8.469521169982377 5.801504770959944 9.963516327088543
