29
Energy = -101.14320406 eV
Sn 8.468458691533614 14.610711687762153 9.750383637224699
Sn 7.81556061282388 13.714939239766387 7.030153343428187
Sn 10.525696150172376 12.85504509004522 8.505532975268368
Sn 8.105663602761027 11.65595126255926 9.830090919433246
Sn 4.71459703843674 9.889440414014546 5.681232329980922
Sn 5.446674582823599 11.989156007556542 7.9672909627952375
Sn 8.820110251150595 10.945541812409001 6.9878939037602885
Sn 6.852704677425983 7.842731805527833 5.413634963975472
Sn 5.665377320166522 8.875021465341618 8.569352007107891
Sn 8.227075895761145 7.419227386619773 8.539406264535783
Sn 5.252201120162964 5.876730162165351 9.597921585277478
Sn 11.341052558112207 8.249704711050667 8.696944859644322
Sn 10.471362233259034 3.694476376616765 10.325923543037366
Sn 8.138662653403019 3.340446831927995 5.543457055639813
Sn 12.45159488827272 5.4143366257443475 8.727508834475403
Sn 9.957649104939867 8.436498716494551 5.599630794273252
Sn 3.61598481416281 7.413127997095691 6.804754629098711
Sn 6.879698097656792 5.344151007852805 3.3098531832402416
Sn 5.443834751397207 10.865761247529633 10.819982187201155
Sn 11.458303050509224 6.409452188283092 11.434057551899462
Sn 3.371592300147546 4.6469446680094935 7.53227008297065
Sn 7.874455109194708 4.360835449216016 8.76195586225735
Sn 9.860234232378309 5.349202005682417 4.00758947437308
Sn 8.478804675501946 7.850715624315007 2.9034316564293943
Sn 5.9089516114183676 5.155121820575319 6.197571571867348
Sn 9.37426719460058 8.616808367242065 11.061685079064702
Sn 10.140279657315231 5.569752321051613 6.999243580975687
Sn 6.388228914175912 7.949708970653767 11.715104722369775
Sn 8.527576516802016 5.653718610689349 11.619092225385636
