25
Energy = -87.45410612 eV
Sn 5.6225203355744755 7.021019434797598 4.353884951016375
Sn 10.095036471663432 8.748727596815591 3.5476547898625994
Sn 9.714460247321924 3.8248675897969764 5.325170444919158
Sn 3.412671653851231 8.470893511654843 6.129323621230614
Sn 11.47569980286618 6.356891358285935 5.1082369195096
Sn 8.519915067544042 6.043588059376866 3.592938193821955
Sn 5.884781973948125 10.09005273581153 5.092040121827638
Sn 4.195582288633284 11.085830009043706 7.502545372003542
Sn 5.439928834919191 6.720807320284724 7.540887598131781
Sn 11.424342535051691 9.427903705702711 6.147290634688571
Sn 8.178945305744689 3.3221323651712096 7.983449713051151
Sn 8.357131229998402 8.524635818027582 5.91549685320843
Sn 6.542188665025086 4.208755551680968 5.388606601669589
Sn 10.16394548602459 9.726777746219527 8.860185840243505
Sn 5.174423760015508 3.771753975452423 8.217078266910612
Sn 12.018040325191498 7.149691554960866 8.068946928465031
Sn 7.39792226148739 11.020976408323817 7.682819705544086
Sn 3.2513050801048515 8.602910561030509 9.247841114337634
Sn 9.210931474277968 6.082431865487603 7.403088894544269
Sn 7.265356996492353 8.287139244481056 9.257735051028153
Sn 3.8029586631950956 5.6709898132618 10.09154363202194
Sn 5.574123968337972 10.688971029953548 10.181361554669877
Sn 9.899042718538324 6.990639381605151 10.254939879012596
Sn 6.932862881127965 5.156934886413454 10.449760784896133
Sn 5.3622592936103395 7.9210557969053275 11.573549853930947
