20
Energy = -69.68114071 eV
Sn 5.724396175130781 4.029535664526145 2.941419417960515
Sn 3.747929330495761 4.319314204950237 5.2004774903463655
Sn 6.138235713152229 7.876497967767626 4.675206922753637
Sn 8.123679977903492 6.407371666911342 2.9565095181934784
Sn 5.159316619495844 10.428866146432291 6.283668415048209
Sn 6.086285989022903 2.122093993727697 5.309992953717797
Sn 9.127544823947458 8.564087030002824 5.3597865019808015
Sn 3.1929866349523435 8.210097603082469 5.14030448131501
Sn 10.45857158078231 5.841844115714621 4.965711005315839
Sn 8.608387413675544 3.490299965984354 4.098878071391476
Sn 6.542081604428897 5.255772448671746 5.901045910738619
Sn 4.847612229603365 3.5901526391437053 7.903352481997053
Sn 8.938153233029897 3.853320375070536 7.102842531054677
Sn 7.082289241998324 8.194154357489957 7.666308118393234
Sn 2.673578521097605 6.136538652623464 7.484479645181248
Sn 9.8525850122894 6.853763861049286 7.847455488313589
Sn 7.24390711738102 5.430639844372804 9.153306580308906
Sn 3.051008181401932 9.129717570129687 8.067860187527545
Sn 5.64731551828949 10.161679407903891 9.298733527546093
Sn 4.743446193063425 7.093563595586812 9.631971862058004
