23
Energy = -79.72091121 eV
Sn 9.735822766895359 4.194691190117942 3.714174142989888
Sn 7.029725369140679 3.0285669415216234 8.02220826936258
Sn 7.48323129617356 2.7644086646321706 5.004378437963601
Sn 7.768608990837014 5.380899413321965 1.7027275243016864
Sn 5.493170618128665 3.8434206312497037 2.9949988947052204
Sn 4.058692408561255 2.734437735645135 7.728575305731005
Sn 9.28243325112496 4.8767433566909215 6.687391283015989
Sn 5.359138313106588 0.8304814012485412 5.8760599644673706
Sn 8.544608516768163 7.0198562731935 4.095832811360423
Sn 3.297456346968913 2.2924066057905517 4.2096919250074105
Sn 7.333372417314824 6.285052921194837 8.790237726228476
Sn 9.277546758858922 7.9160564418446375 6.882384430159994
Sn 2.019895914422042 4.673310588411305 6.703882061770324
Sn 5.429347478222412 4.88340167284187 5.976138989973152
Sn 0.6444924904620964 3.723379554627211 4.2891607142665915
Sn 6.440360090418317 9.140850131325664 5.034307793715502
Sn 4.979466094273332 7.474627774521625 7.3108425539263
Sn 5.539616306978934 7.164280634868578 2.784983297024834
Sn 7.050966981544233 9.476122879775543 7.981841680541657
Sn 3.32020134033213 8.521980057145555 4.86550479566962
Sn 2.861861034444671 5.55422002313201 3.143828796546801
Sn 0.7793085486019172 6.8834372481627994 4.86839757074013
Sn 2.0638680046965807 7.5686167361674395 7.625536007515417
