27
Energy = -92.87199362 eV
Sn 8.45917739374665 8.321658990486776 3.89969220682738
Sn 0.9534944677250866 3.86238667395254 5.431365571325551
Sn 4.602804234928138 7.397577863767283 5.3367336536503425
Sn 3.620290424084522 8.47278275038405 8.009052411260235
Sn 7.049806425855696 11.075072567221905 4.702223232938441
Sn 3.9522304780769066 3.808064302680923 5.170195120551652
Sn 9.569763207835734 11.0818388230346 4.356467364359331
Sn 8.360103271929185 7.5453772784850495 6.880438974162507
Sn 7.013225388747844 5.621970847262746 4.782300395593415
Sn 1.8587503331925592 6.3886427952713 6.747220941248378
Sn 5.45488978245124 1.7056389676114296 7.948287820159561
Sn 6.604842125367205 10.038401873557934 7.7223420357043615
Sn 8.09395080999457 3.066788276924023 6.69256232413449
Sn 5.0085721226458935 5.928136595047509 2.438672999160039
Sn 5.15162070090157 2.782888237153744 2.642477195894041
Sn 7.732283598574835 2.171265326706594 3.884180428744543
Sn 8.594879426273442 5.344894692095762 8.745911770516505
Sn 4.1845191049022565 10.451374287104475 5.5056356263129835
Sn 7.407257789720655 11.075072567221905 6.36573510446317
Sn 9.406106056894796 10.207590799755165 6.366267710528116
Sn 2.6915757551692923 1.4607660139586331 6.681598814322868
Sn 5.611954131343164 4.708717114095466 7.507621250286612
Sn 1.539954931828461 8.65205206145707 4.853039480623458
Sn 4.903520553873061 0.6615903648633659 4.868115899082388
Sn 2.1835686875097733 6.056651262065922 3.554556151581199
Sn 6.141335320627229 7.183296932916377 9.16646907591918
Sn 5.5911233148901776 9.088916006546235 2.9325014774253777
