25
Energy = -87.62684534 eV
Sn 7.450552901299742 7.8504245143459706 4.207670141000063
Sn 7.066191641012136 5.526582368852555 6.038659449273289
Sn 10.183521298284909 8.480498170666964 5.33383389475966
Sn 7.465232575108568 9.179835458309359 7.073960665950671
Sn 5.715614293901961 10.361688532961528 4.694480952398444
Sn 5.494951004632868 3.0526445161326468 6.134173676459881
Sn 9.986974325627651 11.076301839760623 6.731431946347549
Sn 5.1367512534902104 5.044728576448678 8.438515230401107
Sn 4.510048243787326 7.694855071135929 5.658651850829134
Sn 7.212119002377334 12.361312867690911 6.668812877775495
Sn 12.148637014556295 6.870866023838899 6.8458951479493795
Sn 9.8869416868715 4.975206782059866 6.879830219614446
Sn 6.559662187327523 11.47227971382573 9.73408136843408
Sn 6.599501783573351 2.208404781050534 8.922833159133598
Sn 8.49531913591618 2.3834787591171325 6.580962216653206
Sn 9.020677569306503 13.01535958528759 9.189614975787629
Sn 4.4070980180339365 10.462169660337816 7.46453315173422
Sn 11.63752384273844 11.443420330700873 9.175704270523312
Sn 6.066175441406832 8.485884806022119 9.651642789935407
Sn 8.133842326672047 6.287267965644234 8.955039881914253
Sn 3.4787427872834535 7.596567437394395 8.47524964307292
Sn 9.376319315369818 3.3953287606717013 9.462800629463116
Sn 10.454059981206015 8.527538985117905 8.606355619238887
Sn 9.258953995635906 10.305807138528047 10.73313409695113
Sn 6.8191974473233605 4.50615642684159 10.906741217143352
