29
Energy = -100.60511892 eV
Sn 8.517170219598619 7.823860992456945 3.463180036299569
Sn 5.789950506972442 1.699615899783671 4.309234522997222
Sn 3.204485999444612 6.619518092634718 2.9094750285414346
Sn 6.422894483060303 9.05549164113591 5.5984970083883345
Sn 4.246917297636287 3.084527507206595 6.562838107232593
Sn 5.6328962779240035 4.107678651959615 9.345692272732878
Sn 3.8664904045791086 3.5821646028755545 2.930341861494003
Sn 6.890051337587029 7.4138098023332795 9.003478523141144
Sn 5.904809871797795 10.460552310674167 8.233486008911127
Sn 7.140602344705456 5.11262419096399 5.522667225207864
Sn 10.391860381463326 5.456300431336156 4.698662921438713
Sn 9.03614368691447 5.046630127521425 1.9358538844349584
Sn 9.386610785441386 4.609416377408413 7.50269469850455
Sn 6.135270005489295 5.6897811023189995 2.828211122856553
Sn 8.9452393948402 7.5783938006119245 6.621779155839227
Sn 6.745778768688193 2.9755298772481935 1.5938570786199695
Sn 8.513066001146933 10.935987381344782 6.457278856183076
Sn 5.464166169410727 6.530359367595525 11.694687973560862
Sn 1.9346877485844822 7.229686722016068 8.022960131839149
Sn 7.36298806101314 2.311044904430943 6.801020501022735
Sn 3.106826522877268 5.462596211788419 10.155109236253596
Sn 5.555615743017676 8.794611285271344 2.7730130323619866
Sn 8.113275706142034 5.159230182179037 10.482376043840029
Sn 7.952205508373174 12.249435949999864 8.91608043491067
Sn 4.773862574637466 6.214944240498425 7.213884304895301
Sn 3.493675761783967 8.35187759076544 5.402870336031301
Sn 8.82259733097594 2.700089039625749 4.004086572864328
Sn 2.358076639535328 5.2352677695240395 5.608946565427744
Sn 4.106472390090463 8.568464964589719 9.926893917422587
