25
Energy = -86.8417516 eV
Sn 2.412760036648759 8.135339739763452 3.160774622800248
Sn 6.768136554023024 8.011592192679045 2.4356215815385767
Sn 9.618913794278045 8.73834932050698 3.396807766199871
Sn 9.046417432876114 5.923390415989103 2.3645459187396214
Sn 0.594868966772981 7.298898590365107 5.492776341304661
Sn 2.199851092408176 9.853993354584846 5.7466904058702255
Sn 7.296315526542544 10.114994593090094 4.942132736265047
Sn 6.930503672282748 5.461473223926678 4.31947506483765
Sn 10.113805364067083 6.155958320360427 5.175145362955236
Sn 4.97259635665343 3.4102679451746205 5.289288917296388
Sn 4.887948576164961 8.024827330398711 4.854245973432496
Sn 3.057246716841683 5.642442197437438 4.900603108504512
Sn 10.458508091904053 5.077937886549188 8.296897441705667
Sn 7.379624413399387 7.111771925950786 6.736102134508777
Sn 2.9271354842640642 7.354935276079154 7.386517864446027
Sn 5.107718509537265 9.80540722103036 7.2905767098395025
Sn 9.652845679378904 8.917845462601653 6.51716437732479
Sn 9.809044152286447 2.30037378787934 9.795644455701378
Sn 5.203000343697237 4.6515681900090495 7.960248537855262
Sn 12.072504989215506 4.099773362649649 10.513974990639207
Sn 3.5377646781647534 5.998152955538205 9.898633777542871
Sn 5.972039568969499 7.572812177630854 9.282744609769644
Sn 9.025740279793629 7.402033958625433 9.689472580288838
Sn 7.766623136029764 4.246211336595348 9.283211920733232
Sn 9.483234881072283 4.984797531856752 11.565851097172608
