21
Energy = -73.14784766 eV
Sn 9.011184534964219 8.845977029536344 6.164103399262294
Sn 8.78370382664327 6.42370534041163 4.262099912564898
Sn 7.267582743796422 5.113444306273812 1.830929477316352
Sn 7.041239573958766 8.092714536075084 1.7354609746339837
Sn 6.430595833173895 8.52317643123376 4.628862845838787
Sn 9.064309989387807 6.20110362053013 7.73714445240283
Sn 8.46086431930553 3.664909690636209 5.907650185760558
Sn 6.665195425752408 8.50655858539897 8.014813530166094
Sn 4.5458764264073945 6.536824115023732 1.2867061676188674
Sn 6.070356833899858 5.316771808146074 5.16158101960968
Sn 7.017074812930109 6.275027841145843 10.126735435734583
Sn 4.054400958850631 9.05089383079985 6.482395770398134
Sn 7.96159923642992 3.557047070153552 8.90507491138082
Sn 4.708586543323415 3.897283238137015 2.8193606259948205
Sn 4.94501000283224 5.973924898836737 7.788424334939178
Sn 5.53074966683965 2.6858650321733926 6.94232416481942
Sn 3.650130631743187 6.850205306501071 4.114952565593289
Sn 5.160454553425781 3.6945928428086074 9.908872646034963
Sn 2.091536674805254 6.616194672659904 6.68215912172544
Sn 2.664656339926123 3.8503185789445955 8.14145485662926
Sn 2.57423287934039 4.0081499768777205 5.100728152929167
