24
Energy = -83.92714731 eV
Sn 12.150963502392797 9.100526080431004 6.35343022651391
Sn 10.722412417155379 7.1607657995575815 7.89798079712415
Sn 9.822008455494418 7.823023586411036 4.839177664788995
Sn 9.621768069479105 10.604198121349992 6.158740423213683
Sn 7.8384813719202295 8.375828041145217 7.262568265735438
Sn 10.74504465341263 3.874035997544541 7.916194476339637
Sn 5.410159373820468 10.13138880883059 9.692448718092868
Sn 8.834674167327716 10.825591994140535 9.080106755792999
Sn 8.214748186425437 4.942037291973639 9.190111511175521
Sn 8.587320767370107 1.8844668794213084 8.983041858462478
Sn 8.834691091139268 7.7691919648130225 10.193041137339927
Sn 8.7550335645491 5.2289405466977 6.0696373195756825
Sn 8.016899813003443 13.135787294908042 6.621855101433271
Sn 9.22225058784484 2.1479637463447543 5.8637621153339765
Sn 4.906642324238316 8.238926691969711 7.001136887988806
Sn 5.80708651840015 3.276707887752438 9.57452644443851
Sn 6.597389119291107 12.950732712572085 9.521954734923208
Sn 5.8167889757381035 7.1462986722520885 9.78049731250122
Sn 6.8448872995153085 3.6462290318469877 4.479009317996329
Sn 3.5838066373946185 12.326415701272781 8.741773027220857
Sn 5.671689924868947 11.283485189013286 6.782488973560516
Sn 6.275873580958443 1.9703387947432816 6.898298206244396
Sn 5.80564795340406 5.092560992906577 7.039820545802035
Sn 5.128372150336514 14.267824632578677 7.182816261859906
