21
Energy = -72.86325204 eV
Sn 9.138806992133201 3.410499507170901 4.016389199327762
Sn 6.945803498162295 1.2949566743772658 4.508009351812154
Sn 6.48718236588697 3.3086677568139415 2.1541794761996838
Sn 8.22943838406649 2.533694003089884 7.026995241200976
Sn 4.044853815959691 2.196555046616329 3.987570530712166
Sn 7.657598512208423 5.979856407540046 2.9186146875506846
Sn 5.744275964472481 3.8239867926629456 5.910558445149188
Sn 5.464925358612117 3.3003944722636853 8.796337365512182
Sn 4.443278730897424 5.248915176843034 3.57457876064343
Sn 3.181861741440812 2.3782193061641057 7.035277100910319
Sn 8.199807273916186 5.527534807002406 6.018527832915982
Sn 2.8883908688303825 5.188910139522381 7.933425787387577
Sn 2.0249808243966254 6.926225941134288 3.059789002976156
Sn 5.122295830129691 8.218711586954683 3.1275619140833357
Sn 5.2927053277209035 6.296911491131216 9.377649223042145
Sn 8.166083063478318 8.39583650908051 4.757559481503747
Sn 4.521358318304994 7.041262078195226 6.119825505935755
Sn 1.3590962055958242 6.83628888625468 5.916956882650097
Sn 7.319765725325832 7.8265794729562606 7.6925588853268865
Sn 2.7277892266578307 9.329941797779362 4.962230203666408
Sn 5.67260754536656 9.820434432193844 5.8314827503991875
