24
Energy = -83.92122929 eV
Sn 2.8973684086730374 4.672263348417158 9.189044779706808
Sn 1.4076819815840278 5.719741543156482 4.207750967009225
Sn 5.170235558545828 7.4223264020579185 0.7545502189170985
Sn 3.73537528705138 4.578813421349839 6.365917089326462
Sn 8.01622733934754 3.8605385983128397 8.916625122776345
Sn 3.3955924813542073 1.8242503620092596 8.09102411563353
Sn 2.8085002326566224 3.050769445525394 3.4490891803635564
Sn 2.6602594323932167 5.720559059426987 1.4636073643104197
Sn 8.393906954545717 7.095216981075796 4.8404589460703935
Sn 7.001476022319877 4.577307259746611 6.223095850409237
Sn 5.443210545876418 4.142072153818529 1.1618597290742818
Sn 5.1521877858639575 5.894742625787908 3.7864494869904033
Sn 6.547505929796243 1.297115024490813 8.10716413987218
Sn 5.71336136883627 5.797469962422957 8.843783321966306
Sn 5.6843726945197535 7.831546992120857 6.47140667410233
Sn 3.0577525514840866 8.245903964263812 3.2491182137941492
Sn 7.825544871225017 6.243685744955384 1.8820798743345544
Sn 5.343551309642017 1.4724732518053887 2.7491280830596883
Sn 7.47233277007636 9.918852871291918 5.559464296101925
Sn 5.237652740936319 2.0998133418575677 5.58544711907358
Sn 7.626955969244409 3.477926946534114 3.384249425364891
Sn 6.316023153394318 8.887924372223406 3.1131611678755777
Sn 5.281917646186359 2.9908816165134127 10.224309129335767
Sn 2.717381384430334 7.55778896453957 6.270709429653977
