24
Energy = -83.90739308 eV
Sn 13.889440753579708 9.468950953871536 6.241935315883006
Sn 11.971412939301743 7.396868753275528 5.137856751158595
Sn 11.26810010805588 10.649231290862422 5.414335730814515
Sn 9.265201514409517 11.071437286041773 7.738153987782242
Sn 9.16413144697877 8.441415433821895 6.00727236026198
Sn 7.166084567100745 8.151907231746222 3.6985727548135223
Sn 12.80513215680894 7.408625329120971 8.212350114155488
Sn 4.380456102604354 8.857834163202517 4.684373130569021
Sn 10.379961071950737 5.856565733581322 7.3254859792646005
Sn 6.708493921746871 10.54006666465119 5.78152426064589
Sn 12.083888216758833 10.441115409529276 8.48414748139276
Sn 8.168233121822277 5.437287302168817 4.856478338950384
Sn 9.80070347328646 8.283131598904784 9.085006918050981
Sn 3.9330308244818184 7.232498059820737 7.229479902601002
Sn 6.169557430938013 8.89123436586897 8.171657373480501
Sn 6.908966310889018 6.015929759387959 7.491918417278734
Sn 5.200145307139405 5.928855157200575 4.6507498665468
Sn 7.204380562449562 8.640434349790455 10.905283209545301
Sn 6.8462394355806495 5.650158719327178 10.49597000585776
Sn 1.9636587615138967 6.096979620109196 9.229287177550098
Sn 4.482727376244824 4.325924265007976 8.171619662235338
Sn 2.3609283975586863 3.1132162433213453 9.693449167018672
Sn 4.297527491457357 7.684122572802537 10.616493557737178
Sn 4.0408963252554395 4.813397675794791 11.360774177256385
