23
Energy = -79.13299407 eV
Sn 3.4916328427483734 6.116981487421427 10.313372203983258
Sn 2.002532067801112 3.8674183050784374 9.27410799903966
Sn 7.561442113118025 10.945542074334778 4.292342076308454
Sn 3.5925129079876217 5.211720217769367 7.180255631251471
Sn 6.837234801145239 5.2916550722716895 7.7841185280782055
Sn 5.211149376605012 10.157445736948684 6.257867178823203
Sn 9.720934082884243 7.487805456942534 7.231703472629317
Sn 8.495848718151844 5.094868544636552 12.818844720695774
Sn 4.913913763891646 3.31460097723399 9.291517453606021
Sn 6.316733914745696 5.245042611195452 11.10819455787351
Sn 9.643623049111895 8.30757541174046 3.96738827361607
Sn 8.40735943001433 5.7680356713378 5.159619980806721
Sn 9.26005608948485 5.526100640137457 9.781583636000713
Sn 7.418161125072419 8.021749852641504 9.291318662813415
Sn 8.7558171178232 7.891635017002125 11.861539541104714
Sn 6.381074533105345 7.871223470982048 4.800134352407029
Sn 4.795885825657447 7.768607628927897 8.044178246957468
Sn 8.019566890990331 10.347535733576347 7.452332145822703
Sn 12.253558504849961 8.590711930012992 5.475301503123473
Sn 7.470360374274513 8.881401506744968 2.1616344861447336
Sn 10.36879060506459 11.169803821734035 5.118531632273291
Sn 11.027514250679177 10.168259256030286 8.116345354128942
Sn 12.952676283772298 11.408210624033913 6.258572102416646
