26
Energy = -89.46461103 eV
Sn 11.288941342637154 4.980289291559983 5.141329002340401
Sn 9.29383887562186 4.892920015349299 3.0428665929675636
Sn 5.733679440845462 6.770704465965374 1.185470180210355
Sn 8.655951340661522 4.440117354544914 6.265342989979597
Sn 4.9228472072048 9.562803348839754 2.158516339278591
Sn 3.8465064841343493 4.690141740467483 2.2189457715932366
Sn 9.242501367360134 7.382806772518507 4.963522416119865
Sn 2.7243296084414355 7.503500266949807 1.6852630281607899
Sn 9.097786598822054 6.832053327314734 7.988625677425656
Sn 6.4652750336668365 5.558817238640621 3.846666753435943
Sn 6.093765892681571 8.515872293051576 4.605189711409931
Sn 6.956620810160905 2.5716590795740197 4.621497135033492
Sn 1.8024548295793066 6.007851681141934 4.2114866755114155
Sn 7.625578536123631 9.558166445225613 6.931377517684318
Sn 6.668269068629898 8.186286704683578 9.495575188978142
Sn 5.459930022091871 0.5759678763884032 6.936178088908431
Sn 3.902027356841626 3.0099833403791205 5.080801774442986
Sn 5.62667434447359 3.4690530815273655 7.538961640949655
Sn 4.222475681769125 6.352038272582992 5.80676827194576
Sn 2.9187820841090164 8.9422681751445 4.500039395686855
Sn 4.539994427787864 9.383610100610388 7.3826862836377805
Sn 6.7911080259821555 5.120996272403252 9.642899395967232
Sn 2.727341194064492 0.3794374818027362 5.808916889323194
Sn 2.8986480776812114 2.3600886306630198 8.01093434487869
Sn 4.131643961821365 6.681770027010371 8.661302633914174
Sn 3.7500003957332297 4.162406651258183 10.199790101484442
