25
Energy = -87.33061084 eV
Sn 8.555473428720667 9.440246204503996 3.6795619993666002
Sn 11.456234554592848 10.106526684965285 3.1488973109694864
Sn 5.101652915228776 6.162690670678497 8.089979497605375
Sn 6.099407134111727 7.961763579311884 5.523180330060247
Sn 10.705372170687973 9.916070476514015 6.001994864327111
Sn 4.247887266423396 9.089268837043578 7.974634549071144
Sn 8.028763466406478 6.3668470670013315 3.677029165280452
Sn 7.732622122416444 10.410186317901157 6.57581976689964
Sn 1.5021135505283838 9.043788041540001 9.299637973289267
Sn 8.968737436137564 4.894679813777341 6.264440396216786
Sn 2.8042519645348425 11.67664691553009 8.6152866072191
Sn 3.369490464883151 7.002025999112094 10.525274675874648
Sn 5.69061437980243 11.370540078826682 9.408721757522862
Sn 3.5294212970648746 10.159222647481862 11.297392368724854
Sn 8.579126574859794 9.95849883352127 9.580362176415253
Sn 10.858573955734116 7.3481562566959004 3.8864654576662754
Sn 9.626137614311196 7.200346309351559 10.261667025546643
Sn 6.041167383603377 8.415480363844656 10.562437885205068
Sn 10.353590167366065 3.0041344578322637 8.59028085130057
Sn 8.049403528010274 7.46615979484296 7.679291793281589
Sn 7.567073287535089 4.622073933370384 9.031618411687058
Sn 11.910176251910606 4.407078274456124 6.440144374749086
Sn 11.050439785884938 7.173929098330337 7.12029853372212
Sn 9.642842078905671 4.439394719053428 11.152250563486298
Sn 12.188581802308796 5.497291873693508 9.372091556759106
