20
Energy = -69.01165152 eV
Sn 4.348959745325034 4.462600367820599 1.3800385476833565
Sn 8.086332873013331 7.149262593180571 3.308823862639131
Sn 5.5273074525004 7.1286134946630755 1.8578442672367848
Sn 4.849188695892017 2.9287997461808457 3.9537965596956925
Sn 7.153789854553586 4.374518241651083 2.1846863858044454
Sn 7.282424217924582 6.579724025482185 6.260018116628751
Sn 7.367827515381715 3.470822409450848 5.1833122136686605
Sn 4.932380330887866 7.69284955910416 4.665739611727026
Sn 6.9819130936564475 9.655199888215723 6.3506479708237435
Sn 3.954692795126751 9.7983676922038 6.4961928460249565
Sn 4.523052399394712 5.100375348380058 5.963538390747066
Sn 9.830719502749188 5.237516688800645 5.507234103409557
Sn 2.957877770971123 8.028539315629557 8.904354589183079
Sn 5.487222148503382 9.76238255788302 9.201478820758162
Sn 3.3955342136303255 5.047403739138169 8.730474739591576
Sn 7.738867784472522 7.776259186496963 8.965975631287602
Sn 9.953902516184705 5.599095899397727 8.460031660585988
Sn 8.581600700263293 3.0019230760433877 7.875174448859989
Sn 6.3717187110984845 4.793841583460012 8.674410568126557
Sn 5.2076986685889235 6.94491557693579 10.60923765563645
