27
Energy = -94.39160951 eV
Sn 2.7902142409575026 4.305837345942749 3.4016734630041756
Sn 6.736017525894141 1.3663570835653973 5.784911932898695
Sn 4.595805668836388 10.299515685704646 9.782962688961394
Sn 7.751826196330966 5.412879300218395 3.0611331478240804
Sn 9.63730554910923 1.5011680948698458 4.526222690976347
Sn 6.079168178560481 3.962651344550076 7.969165776269069
Sn 5.035628150100859 5.084879741492326 1.7406384154402856
Sn 9.77042804491992 3.412457572657776 2.1902792090926795
Sn 6.606861767884704 6.063544065158265 10.38135150648465
Sn 7.219072442943076 9.031638026413129 10.827821269312661
Sn 6.991094512515312 8.687462689599643 5.685832327924044
Sn 9.007572113591173 2.9290673196113493 7.092133306992683
Sn 1.137521773720351 6.153033297546877 5.021279442937395
Sn 6.996863994983988 2.3079539113382253 2.7656484164765476
Sn 3.2620642876618615 5.6532694477280705 6.992196342180114
Sn 4.49881408393236 10.448712015333312 6.789848401041288
Sn 4.439362119459333 9.883688214441506 3.9121280280445587
Sn 1.943963864608264 9.069147138859583 5.437702606301367
Sn 7.822927933292727 5.691215022442821 6.113979776411585
Sn 10.431022516710799 4.581223640600965 4.969692623487374
Sn 5.484236126154218 3.9735420118830316 4.816905339609278
Sn 9.207750064157977 4.835718598135802 9.419414114534414
Sn 7.477201471536368 10.514130094397476 8.139484091841519
Sn 4.258305906705019 6.931153348849697 4.4228494708392425
Sn 2.536473439768949 8.468086918985705 8.406132503373065
Sn 5.424569938190983 7.611173664462622 8.108542829912572
Sn 8.792973775243253 7.68113021446656 8.596343242271793
