28
Energy = -97.8290148 eV
Sn 2.5235985387263877 9.998038550076783 7.938690071425944
Sn 9.979203316697971 2.862509606742733 6.790037942631636
Sn 4.804953774938209 8.772846050881409 2.3059344494419127
Sn 2.337069687113414 7.084822342554899 8.77128592062695
Sn 7.466795254160783 9.873804808245717 1.4571075486564358
Sn 2.2531141252769507 7.855430837654354 5.795540474246772
Sn 5.028753143936385 7.107104929306835 4.900089358861254
Sn 7.163468111858552 9.617510519548686 4.4550223531844155
Sn 7.313054384812068 5.102450829650234 3.4991771941607315
Sn 5.570373661737496 4.285799096579172 6.660898265832012
Sn 3.194020161076224 4.027679070719792 4.78733045792906
Sn 7.915164585760674 6.970072170868001 5.934537039559383
Sn 4.259906454781233 10.292731363693944 5.099414839666242
Sn 10.128405368513919 5.035903355658193 4.648053630587047
Sn 1.2244779581180547 5.136476727213883 6.7261326100426295
Sn 5.0183529475616595 5.875700455201491 9.120168476225013
Sn 7.238825624389054 1.6682431900393466 7.314237241774074
Sn 7.140993306257544 6.945763692193029 0.8949106768790506
Sn 4.609826859303275 5.664977641628895 2.234603869228943
Sn 8.732817152367424 2.296880335551505 4.044004098403033
Sn 5.3861074332396175 2.639380218515731 9.471011919915053
Sn 9.187755120390245 7.647928011921529 3.0245099135326057
Sn 5.118155133222063 8.58187080524021 7.656226038568786
Sn 6.918254160093011 4.758056520012949 11.000822779325693
Sn 2.87232542548343 2.742725603402681 7.795607356098629
Sn 5.831186247953649 1.877798813680262 4.766759937275608
Sn 3.0510897631298883 1.1017265537542722 5.264611209994737
Sn 8.110356754440147 4.632619061546083 8.290751563228861
