23
Energy = -79.72137722 eV
Sn 9.84984875019623 7.401060416792937 3.5513408114826195
Sn 10.090247273870856 3.9084173113688494 7.372908887594704
Sn 9.367671617288176 4.486603034067702 4.519868430110761
Sn 7.187427697189709 6.656228125133805 4.9145813457062575
Sn 8.081570689528872 10.09964889093909 4.292774142640355
Sn 7.249632755869111 8.070064707738902 2.106541636935776
Sn 8.412338124169292 6.313146134120296 7.705173248455735
Sn 6.646194471950795 3.617869192962058 3.75172044009509
Sn 7.320688559269156 3.275933681927953 6.789905860789515
Sn 6.470723825567676 7.836023278713236 9.326710480763484
Sn 9.690858161400648 8.64462079594755 6.394357356961
Sn 0.9711174128749696 2.4811980078465647 8.004690440359765
Sn 5.223494116971891 5.334427396692743 7.520848789061154
Sn 5.29245089414063 1.5386816472283817 5.634798768225096
Sn 5.16378496592521 8.929671713207577 4.443940412301789
Sn 5.10526436734463 5.845137105984683 2.472410674738216
Sn 6.886542271921132 10.079260324162938 7.056344656687218
Sn 4.318815673393106 8.299406671797323 7.389765978081181
Sn 4.040383469846093 2.705050796598297 8.481512034949095
Sn 3.6153901510152395 6.067871795110548 5.0988290162644985
Sn 1.5358181841165248 7.500741402834565 6.673387218377342
Sn 2.763185741393733 3.1382724018701182 5.679848724634207
Sn 2.009133186779846 5.092312069783277 8.272339337873936
