29
Energy = -99.80353468 eV
Sn 11.66505407154391 11.164645091250158 5.7592816360924
Sn 7.081104794955177 13.140548316759833 5.94809585117622
Sn 6.9657286526025635 10.77472171892918 4.112349063763166
Sn 13.423589946141048 9.79366645121141 7.6535373097468495
Sn 4.430719162341925 11.640414651789115 5.808439601643126
Sn 12.027034057419195 12.180129949899513 8.75177388112496
Sn 9.414232572987123 12.080958846073381 7.5737022868684996
Sn 10.6026535579908 9.361439669195894 8.338796947657194
Sn 5.035239858920563 8.594263221096007 4.8195185983351
Sn 9.2080723031538 9.361061478197557 5.635583633771813
Sn 6.658009504039389 10.20102808248066 7.2778312265831335
Sn 3.5275268720438584 9.090988356963804 7.385204478499422
Sn 7.265520450971995 7.016120485196739 6.24024901867906
Sn 8.24898857995422 6.923281698808862 9.157242197870419
Sn 10.155310566876576 4.656229931770707 4.569525106524407
Sn 5.829523750554552 8.565832004882925 9.950561562236544
Sn 7.13934625766468 4.034136512078545 5.122309519271995
Sn 12.025958808249857 3.1983999642228325 6.9019311913235
Sn 11.708484824382863 2.0821944713446543 4.240608946983785
Sn 3.3506339692337246 10.089681067806968 10.42915399461088
Sn 9.472792689360576 4.398268694574862 7.517186843573123
Sn 5.76872284230125 4.945120513899556 7.885006001357118
Sn 1.4289267977292868 8.100706047300722 11.674317541508405
Sn 3.094200344408298 6.9552551179732935 9.555430832627238
Sn 6.887587937850192 2.1211950501920684 7.643029325656835
Sn 9.314089071009839 1.754770941097473 5.846132138180615
Sn 4.2566718033029485 7.7836919234016335 12.482909473408201
Sn 5.408186910170216 5.4195214713398565 10.901192518602569
Sn 7.90493560557296 3.9194336457800536 10.078938525193315
