26
Energy = -89.94511886 eV
Sn 6.824456177044042 5.962452658159487 1.8552082859550676
Sn 11.617887126222387 5.991368961210057 3.310268933503378
Sn 7.919480072952414 7.690675129162094 4.050207932561476
Sn 6.79447126769237 2.917040206740319 2.9495216797835635
Sn 9.275229814182486 4.395319139111107 2.221626092326402
Sn 10.178194485667383 5.1882029767891895 5.6349453230619435
Sn 10.621054317126301 8.291106143561631 4.953936989584017
Sn 7.196120843910405 4.910353399741099 5.048075398477638
Sn 4.489928391685393 4.866528036140075 3.2999145072694334
Sn 7.080314979300326 9.45965207095924 7.269443411986921
Sn 10.464003419633459 8.858010591635768 9.991284662100119
Sn 9.270198295013518 7.368051021839482 7.57280709376088
Sn 4.65251493876903 11.243241474452123 6.81204357500994
Sn 2.813485238318403 9.29741021522802 5.324130106600141
Sn 5.761743147623748 9.88455558803885 4.349802239784685
Sn 6.368115176263662 6.30709090114979 7.9146366216763475
Sn 8.817867257393868 6.005974010056832 10.460995787349386
Sn 4.810860056442016 7.104272040654156 5.341799381696918
Sn 9.274394815814398 7.994771436402348 12.877201233087796
Sn 11.475704736648453 6.574054543842693 11.689203663679468
Sn 4.168183325348403 8.55291155310097 8.042934971433727
Sn 4.2027907354145855 6.462160159749202 10.19290990835915
Sn 6.409672678300207 6.566024841077671 12.41024048901478
Sn 7.452651153469456 8.976981626747373 10.426297008691465
Sn 6.843856450534843 9.389049894734908 13.663924301636253
Sn 4.698726833175753 9.12880523272975 11.598189092102508
