22
Energy = -76.23526573 eV
Sn 4.366263039953299 3.9165378400001263 8.617758641027704
Sn 4.497385166170726 6.886128425571233 8.460713864190414
Sn 8.655694392964918 4.32699447953118 5.850958979880237
Sn 5.646325284943701 3.5229869779726264 5.43614026212031
Sn 5.924836280326063 11.08583205178428 3.9573572325137487
Sn 6.905308649953639 2.512688697743494 7.973737115745245
Sn 1.7868674059041234 5.5145134933146585 7.991051696429753
Sn 6.07428705333328 9.94879164819615 6.714866509335837
Sn 8.414222648180557 9.58875053320141 3.1190289954297183
Sn 10.38896838091345 6.686746146725914 10.205403590850066
Sn 7.5699679382911835 8.003201324721282 9.612651981667401
Sn 8.129898391254011 6.4169268687227 3.562939331236061
Sn 10.30645189871353 8.172261860456688 5.011594189230853
Sn 10.871022519831294 5.70793952590562 7.539161967845844
Sn 9.999231494462613 8.818779587071498 7.997203577734592
Sn 8.644097067997507 10.999475492580006 5.778013907148844
Sn 2.607741669772217 3.4240804569073457 6.136921255940025
Sn 3.954456932112066 6.070752697775105 5.759535793443883
Sn 8.020805488076894 5.145288759706527 8.785506398413133
Sn 7.696439840286018 7.353772245827409 6.531336195004218
Sn 4.980378162928494 9.549282420855956 9.44081421783849
Sn 5.673179139150389 8.066664105406891 4.234649197402973
