20
Energy = -59.10757082 eV
Sn 7.514183735832891 6.927199465161768 2.434270880374686
Sn 5.688982077073648 2.961018968090867 3.241002748933465
Sn 6.531847361098166 9.672078210184731 2.9331688234445914
Sn 9.9546337894152 6.7673766834011415 4.144478466428415
Sn 4.994669126738795 5.691311839444761 4.040926581584355
Sn 3.9576105132126425 8.789241194422665 4.099952751135228
Sn 7.67780206088731 1.9110862411499143 5.242193210122528
Sn 2.453007388074412 4.747165482340188 5.000557846656114
Sn 8.737772812556692 5.088503432067088 6.1770921816289635
Sn 4.655332902750223 8.966712559094246 6.982165161563152
Sn 5.551727357619983 11.813776195594492 7.000606588196901
Sn 8.366734589391156 11.071243557992133 6.392332216005275
Sn 5.541984262509989 0.8505868848669061 6.946983068991409
Sn 2.6865201421804095 6.41459691423472 7.553281507680744
Sn 10.184446312147687 6.4450840276486705 8.421430264820417
Sn 8.248154140851176 8.130783025839134 9.657032534709352
Sn 9.397227032429972 10.735613599321189 9.09724043892991
Sn 6.638693635581227 1.8512968951272384 9.47109705739821
Sn 3.191496753120948 4.480870169259027 9.774959355998382
Sn 6.047302039353959 4.704582687585597 9.409356348224394
