24
Energy = -84.2537238 eV
Sn 9.079908456895327 3.2298795611780844 7.155379203929102
Sn 4.308745277136704 8.767315276523048 8.454266998546439
Sn 7.523762772380408 8.303517937820486 8.488177805731944
Sn 3.553279998448984 6.481253618421765 6.333080099187647
Sn 5.191006823732246 5.484973947680715 9.140327161273751
Sn 7.388769570583064 5.883870807178501 6.361712790758643
Sn 9.786442557777518 5.195510959054692 4.817845225629975
Sn 3.2046357083615464 8.41626537054895 2.412243326275149
Sn 2.9873262200446673 5.482168968118753 1.9187945918215692
Sn 9.226714813971848 2.266281411052833 4.216810816137829
Sn 8.12682690839712 5.496773169136529 9.365781144869436
Sn 5.321522196776353 4.849493971293107 4.0580391097498145
Sn 7.324674512698013 0.7318748322552303 5.970624697100201
Sn 6.195820904037278 10.11771447220256 6.6164136382857155
Sn 2.488970921884155 4.091528062127732 4.7436684277903
Sn 5.91761734790771 3.1792159233475825 6.561249125263611
Sn 3.248018391862061 3.710902624975991 7.801142980955729
Sn 5.843169910977246 6.8317289631377 1.8059147393568766
Sn 6.2036142699157555 1.953038532482613 3.4271500560690296
Sn 5.617988571416795 8.072765101861549 4.534965663730815
Sn 2.780441149483124 9.201549141293409 5.293530292040224
Sn 1.1743359458235094 6.817168319750071 4.075328573120856
Sn 5.7312342061666985 7.758354473761875 10.852650157208105
Sn 7.975052002160259 4.371536941643035 2.4421295406788506
