26
Energy = -90.11184421 eV
Sn 3.871228140918072 8.96822299697028 5.610045573800928
Sn 2.6557724872407875 4.464217834523579 7.971160453311744
Sn 1.5166417122597553 7.347789472559607 7.0337643704974955
Sn 5.816447043308492 2.533683100640626 6.044004063642412
Sn 0.4336302853162033 4.719402420589825 6.079862247920593
Sn 8.014140348755134 7.737468175890468 8.895230030580327
Sn 8.674536585269545 6.173812922097272 4.504293276300842
Sn 4.958600105323689 4.375920920106723 10.021993451488639
Sn 4.2258572012153595 7.2786055304181705 8.193753726574615
Sn 9.560456527195374 8.483415641197807 6.3469501413649105
Sn 7.943013423965864 2.1635638363797853 1.5403064590413784
Sn 5.285543864512791 3.116607055718627 2.4627289563008663
Sn 5.334939675790681 5.745964953323469 4.41079464504647
Sn 8.045211398264591 5.086268829773698 1.733383946150967
Sn 6.752978318674299 9.670772658141273 6.86829717703588
Sn 10.873087900035715 7.359405815518001 8.77191835738081
Sn 6.673137466775634 8.437976293396881 4.111070163423841
Sn 9.319956165358029 5.163100709377648 7.460811023139519
Sn 2.266519424459135 6.453166317336433 4.08607486585975
Sn 8.092983540731328 3.0886544093307124 4.320511426888669
Sn 5.718014321904823 7.200257648998639 10.717732209930967
Sn 6.3150570340442 5.474920286965008 7.335320750482405
Sn 7.203309378625467 2.9835121879291435 8.641144795250096
Sn 3.1729123978737737 3.664225146217123 4.998489607202705
Sn 5.188731957006729 5.840476829819854 1.3081975245571837
Sn 4.131850444958277 8.355104283459726 2.4275472887868768
