21
Energy = -72.6142907 eV
Sn 9.125706957099338 9.669666868823898 7.717299394838126
Sn 10.3094880045863 8.387621082155144 5.1670651824971685
Sn 7.612852885963011 10.028460398595143 5.283351602783396
Sn 7.638781045536483 7.251260477821649 8.470978056584157
Sn 8.938563597890688 5.8988221849000775 5.894109982391133
Sn 5.288869133966536 8.933148106688995 3.6224890012642956
Sn 7.994046315851753 7.505203221346409 3.3387798375638127
Sn 5.919735525296108 6.960802690748109 5.96799161806106
Sn 8.626670665423491 4.33154145128714 8.553679033046519
Sn 8.619102670269374 4.532396968998319 3.1810880517884907
Sn 4.337121052531741 7.570428479865558 8.608462379661699
Sn 6.109475914607729 5.224707790426982 10.078777168221349
Sn 2.9147121478684044 8.017775511714852 5.571985711227538
Sn 4.228253002907775 6.020791781061284 3.4188485195262697
Sn 7.844793539294245 2.959026071565244 5.632204878919887
Sn 5.808916573697631 3.390853574885999 3.0747991820883227
Sn 1.5217122685858702 6.483495543289761 7.757629389388203
Sn 6.096161990971733 2.6880014240584438 8.232889149263066
Sn 3.4739339742644773 4.432387643453419 8.64059153441667
Sn 4.8913886604700325 4.133778304187797 5.810998944168892
Sn 2.015684969433546 4.895708145168563 5.244750416873742
