23
Energy = -80.38657756 eV
Sn 4.508654006410863 8.50575647943853 3.989208236749468
Sn 6.071193771008077 1.666156520624299 4.530308932016947
Sn 7.7843374792104445 7.3332435444017126 3.2967612493501117
Sn 3.895118840992517 6.1036818317755746 2.023636101045036
Sn 7.040104646325203 3.7205863263879544 6.968027068487506
Sn 1.5208416988635742 3.8073679436056445 5.245765673048542
Sn 5.481555824596443 4.523077918774981 3.8523247280321806
Sn 3.4273649799200685 2.225252451430682 2.9381509919827105
Sn 3.7751942723479575 7.938051357797515 7.222761381423738
Sn 6.169722872301606 7.7731755145789325 9.178198558401503
Sn 3.385713885404539 1.5909211478839436 5.990333405114012
Sn 1.4838551635918262 4.467270587925238 2.2802286060715153
Sn 6.7412140471650694 2.4296261682337135 1.6436363795304192
Sn 8.553880933415826 6.1595577034017746 7.9073784593757575
Sn 6.651455005932495 4.9348563988946 9.985155836775556
Sn 5.815018579566806 8.288562908191121 1.271623163690284
Sn 6.831041832645799 5.3304628006585135 1.0086900504958545
Sn 3.707935214558856 5.818528861398661 9.61035032120349
Sn 6.416823728141394 6.834536045785854 6.041498607982526
Sn 1.9673451541253897 6.788603988603372 4.588190184691666
Sn 8.453748303100003 4.343666065598454 3.4968280595813708
Sn 3.892776796039934 4.979328674452176 6.656636876745316
Sn 4.66950396893962 2.9577216858207893 8.761349742601098
