22
Energy = -76.00309289 eV
Sn 7.850336658086427 5.451200445587968 4.03978777046688
Sn 9.262855401743963 11.276290597870531 4.573223653953758
Sn 10.221071945036474 6.47988980893322 5.643384305392933
Sn 7.468031449273785 5.434088824907552 7.087172372081463
Sn 5.8429532094894805 7.405207614683274 2.7702934883859505
Sn 7.016831773527123 10.129318975107916 3.033679268698963
Sn 11.08642118126832 6.0284299265380685 10.959020522089283
Sn 6.108503466626838 11.926115404334704 5.291190666437118
Sn 10.373457178585562 9.577885862230842 6.841029432433445
Sn 4.9074087328478715 6.002130827484597 5.29266662525598
Sn 7.7382435138158305 8.425440032107142 5.432941487533308
Sn 8.247660758597275 11.993703664722574 7.350024291288896
Sn 9.802010501904524 7.114660010153473 8.543241264688554
Sn 8.526387675193003 6.0718562985370035 13.361914361613238
Sn 8.46913418393984 4.7709066746396 10.543478919424453
Sn 4.658196037086965 9.183411423589668 5.2208252298420295
Sn 6.4077946947307325 4.1033072624664 12.61382352151814
Sn 7.710277043307827 9.446213891946126 8.72918149850471
Sn 8.90368881305906 8.290198114854944 11.290624389836605
Sn 5.717523932499685 4.637450424005746 9.578379341918122
Sn 5.534059445615433 7.649766283986961 7.8309878079909705
Sn 6.1408917518699875 6.9962836858237365 11.460264279384862
