23
Energy = -78.99127814 eV
Sn 7.668392154531554 9.992851071550447 11.164393681652541
Sn 10.400313510155605 8.82709246622419 11.017718259278878
Sn 9.54412534592367 10.933744379156188 8.840923441443893
Sn 6.021098957287427 11.64904214356893 9.013045291108194
Sn 9.352738814272106 9.306766827624777 6.2140148670796576
Sn 10.846360038682382 6.515265073704024 6.28114702377821
Sn 11.711899061745783 8.682428486400953 8.23047076861234
Sn 7.17377201448805 8.715758359606344 8.275374545634046
Sn 7.779503070202352 6.8775324195979515 10.710605819733884
Sn 8.19323877944305 12.986080693408457 10.44143571936953
Sn 10.630707264025043 6.048212035095001 9.512671087956624
Sn 5.214058724052115 6.509070934713597 4.433599293843414
Sn 6.570275829111935 9.087298965624555 4.759756372101714
Sn 10.46427381833971 3.4252609172237887 7.605711700795855
Sn 7.999253743532318 5.992029720063344 5.346962121695851
Sn 7.662972277236054 5.307614776901698 8.18244034974872
Sn 10.043488137680948 3.8918272201635595 4.6314455942004376
Sn 8.122833282178199 2.546878574756758 9.170795623447498
Sn 3.6539934679502553 9.798262973172696 9.0353753108703
Sn 5.0515041415341795 11.126267203276068 6.341883450705266
Sn 7.741982153942435 2.792971057010558 6.251766293571705
Sn 4.550301033823865 7.789419294559187 6.973006561658234
Sn 2.4328787074467177 9.916455959311236 6.387637804547865
