21
Energy = -73.38828492 eV
Sn 5.151242072986688 0.8323484010964086 4.326006750184993
Sn 8.100691631208992 1.782255767144536 4.283674420326925
Sn 6.017521610191458 2.6970748508393787 6.486540645046767
Sn 6.1523574337117655 2.526880680484661 2.0533606930215083
Sn 5.09804276058563 2.807057464730106 9.31464385395026
Sn 8.51545463427703 4.358323591455133 6.022331559335952
Sn 3.7625718792530045 3.579228529552444 4.016816175741227
Sn 8.633592270966085 4.367077252175733 2.872952813648114
Sn 3.0897072195629094 3.929519954701963 7.332159895908284
Sn 5.459030399272919 5.610685305281314 5.6800081393935
Sn 5.107109583253963 5.711642600754837 8.759956115468142
Sn 5.7832733339496265 5.491960961384578 2.452830422810631
Sn 2.684825135163753 6.514370943848374 4.728062513970776
Sn 7.898780116999261 7.190751003450295 4.321042689245486
Sn 7.54925565668193 7.112007820975803 7.556666711965176
Sn 2.379568992059017 7.007161023714821 7.989026995772745
Sn 4.910476225544007 8.764860616730708 8.676586073028403
Sn 3.3871789913579455 7.098950085392924 1.7428334984445237
Sn 5.076585422040601 8.432657320363731 3.6841254231895424
Sn 3.3251469835370906 9.24566811288628 6.11638654478165
Sn 6.439154649806115 9.621426886752193 6.1620205622966875
