26
Energy = -89.14933881 eV
Sn 9.199944401342348 1.2966782595086903 4.410076930788276
Sn 6.706931370669892 1.9623395739463767 2.972424188891913
Sn 9.372856235158482 3.4953333278454837 2.3530358924210075
Sn 1.5902992599663621 1.0102296850701094 3.2819343548168685
Sn 2.843263556909886 3.3006016583392457 2.0078971616348804
Sn 6.754440760753113 5.058657688758686 2.708575011506708
Sn 4.064114730989716 5.900682221636698 1.5161519407161144
Sn 7.477178917698653 8.09202642197563 2.561799196402265
Sn 4.15615520967184 2.188832085261563 4.5890729246251825
Sn 9.543636666888613 6.261607138261828 3.6890435501515966
Sn 8.603493920811228 3.922691148329307 5.416103815971771
Sn 3.170447316247914 5.293455003858539 4.283536663204207
Sn 1.2021087124585215 3.0647647580176125 5.310954422147068
Sn 5.7281304473556 4.727195326727577 5.7280000109692395
Sn 5.860957856307353 7.632222234903073 4.969203224007978
Sn 8.95510342527403 8.98540237691857 5.257734797777104
Sn 7.994073376675004 6.855837638554725 7.086239352172866
Sn 1.0412575677324352 6.14810625644299 6.21055966164911
Sn 7.736233236763289 5.598685929250678 9.733746800929055
Sn 3.7971703895413453 9.544292872953621 5.772303001453018
Sn 2.1348134879669347 5.237165287648581 9.082569650083654
Sn 5.109791477938602 4.940903989429322 8.570257698282706
Sn 0.01746981277091261 3.645959764452525 7.803729430920378
Sn 3.540199467610228 7.491642102444961 7.830645767414448
Sn 6.57314237207794 9.807588101067614 7.065451301798211
Sn 6.007971279907733 7.990948810275695 9.425463360815522
