22
Energy = -76.32527244 eV
Sn 3.877470237942377 0.8526446676565482 5.03642473157399
Sn 1.2970659808694398 5.669319349233188 3.49527072699074
Sn 3.891972610242243 3.6880799053259263 6.167399958844432
Sn 5.5351825519199105 2.9146712429244865 3.303631893117758
Sn 1.831718894200785 2.782398427847363 3.8463490544601022
Sn 2.6078634195249326 6.520853389592225 6.162124657888783
Sn 6.745216051432399 2.2378603714407954 6.012362718876611
Sn 3.4697659442968405 1.0850004289958537 2.005278595060451
Sn 6.20288832542116 4.2591997750909485 8.265155382527206
Sn 3.9100766292853475 6.263778776236566 8.904988665850384
Sn 6.530609000979692 6.3071274444820355 6.193124895637895
Sn 9.074414840534807 5.52384741087781 7.888657081967905
Sn 4.3792579120451345 5.727319677517878 3.6862959355021476
Sn 3.264149835893406 4.124713553008032 1.4013528279430933
Sn 5.2728573789423665 8.728500104573538 9.603544405388416
Sn 8.724653207355333 4.554691541598707 4.766578202016545
Sn 6.624215698239422 9.169645243820602 5.091222139799794
Sn 7.9292178252060035 8.389296960512722 8.007072501599781
Sn 4.169242258798905 8.862464993182021 6.908488431201921
Sn 9.873992957872806 7.2174848274814165 5.555406956761168
Sn 7.237732989707489 6.73238633518371 3.284024411938593
Sn 9.246691987971264 10.106178057680994 6.070236394366115
