27
Energy = -93.81524483 eV
Sn 9.688888151166957 4.223673649350632 4.683184202712882
Sn 10.259397601741862 3.9498259635347264 1.6438024280380101
Sn 6.748222868760132 7.397960839067888 13.000076887338727
Sn 7.529973843545364 3.0433737002077224 2.8491438707794283
Sn 5.112867397613213 5.435278673899437 11.240897914288949
Sn 2.7338956588668673 6.879481739219307 9.633414135491655
Sn 11.235935934134266 6.37271067162403 2.8746809909502873
Sn 9.342510274572286 8.31992964739655 11.89903462616806
Sn 6.3469656726473245 3.5461259099660203 5.7795379039772445
Sn 7.3429016528762725 6.174593222607413 6.998213674771643
Sn 7.993109669743059 5.957127449669436 10.136917925872647
Sn 6.690044125379601 10.142056343754774 11.506120569502338
Sn 4.068502974322083 8.418556811801444 12.034500771953631
Sn 9.250522501410094 7.26820108107111 4.911093080119091
Sn 8.62231640373654 8.9486108720549 9.195031366082553
Sn 10.20128434513395 9.571357264953992 6.59127459071218
Sn 8.102714985075796 6.017074982733251 2.413086222681603
Sn 9.308249082838833 12.057366378212926 5.375468438866292
Sn 5.613566667840487 8.670412439909327 6.424897881671592
Sn 5.66896690025094 8.035913058049985 9.458847385760478
Sn 7.714377076880571 9.80446961247226 4.410710814514528
Sn 4.592161567894033 5.050138887920272 8.043170534027063
Sn 5.437498589233181 6.236986479145216 4.469437399130348
Sn 2.8979476619261164 7.33567334381815 6.565286186597798
Sn 7.352158697675885 11.04871383133585 7.377887972387215
Sn 2.9541239937035133 4.433632101841452 5.655136127319096
Sn 4.538870105581795 3.7873659850337114 3.1533285651571625
