24
Energy = -83.73693391 eV
Sn 4.17560044543778 11.238478708594092 8.902252631079794
Sn 5.47410476662513 11.089638942920566 11.674469345401496
Sn 7.079940717208698 11.972305350121946 8.897347867125152
Sn 3.507492720891163 8.47705045715313 7.748309343847175
Sn 8.187704179894586 9.797150393467358 10.95709678605605
Sn 3.2293248428738073 9.054303512870021 10.83267175628804
Sn 5.882636112218605 8.0101564054486 12.105007413102923
Sn 6.306661239814356 9.406648322558036 7.41385097267329
Sn 4.633678771100487 6.485297215696971 9.76570273908525
Sn 9.642590040133262 5.280849118576275 9.987662270818765
Sn 8.99498060803042 6.949906557886067 12.489155433020555
Sn 11.86576762264888 7.0478814732226995 11.293909690897529
Sn 11.202345246264235 7.27775598372417 8.295468601668908
Sn 8.983349508082936 7.862025204246874 6.199650877471966
Sn 10.749469975531314 9.235603823943867 3.922853003543231
Sn 7.492274506993966 7.308606352982348 9.359969179552891
Sn 12.078509580336979 6.8871014925123655 5.427608115932946
Sn 12.33194042699697 9.732597178430117 9.947399770847557
Sn 10.628118992298424 9.562722414229627 12.61220477640805
Sn 8.57216713508287 10.88444878872715 5.869734873119814
Sn 9.82775423117938 10.124338517292657 8.406345365333314
Sn 14.10429230050633 8.15698546931421 7.682058768660255
Sn 12.243263189680416 10.220062154972585 6.2489027852496895
Sn 14.26437946195196 8.812454883442259 4.679837212482699
