20
Energy = -69.0129807 eV
Sn 5.297276363582931 6.905933332313911 2.994283315111749
Sn 6.177842798742981 4.057984875776208 3.8563434326731096
Sn 9.711880002661843 8.940018315351432 4.320654958490317
Sn 10.795563105906371 6.181042770403799 5.277600393323232
Sn 8.258625964007413 6.380989265387954 3.4651781373744734
Sn 6.0674748458702545 4.778212436413621 7.033658180190647
Sn 5.2147292259336755 7.920835979000736 5.769553210196314
Sn 7.771445009255242 9.201634466484348 6.536823047654073
Sn 8.78668234572454 6.119904568399139 7.855416370293221
Sn 3.694248221468836 5.279072689563288 5.1560290307934595
Sn 8.685627123798621 4.0187491336075105 5.556201847310585
Sn 7.225740368939812 11.06451149270662 8.81623592026813
Sn 3.311629292413562 6.270672181775804 8.007068712618837
Sn 10.69960758264438 8.477194730475857 7.260814869772155
Sn 3.058668850793719 9.100386532815161 7.49511979763854
Sn 4.5535723582409 4.048497779801959 9.464223562540058
Sn 5.376752553745577 8.840143946007721 9.244435608903453
Sn 8.887792868590555 8.861617973341085 9.671490393559901
Sn 9.090536120138665 6.150235581566551 10.79148032921405
Sn 6.22198971044199 6.290046661709028 10.315073594975539
