26
Energy = -90.36414268 eV
Sn 11.321467624558682 5.073880637827063 6.693835577028083
Sn 8.285563120685232 11.927632981984855 10.734997400263014
Sn 9.102541914897511 7.652317110365174 7.354459753345187
Sn 10.307844771230034 3.259229440559841 4.478065103293623
Sn 12.000956513340123 8.191106786405504 7.775895551133054
Sn 9.98672950227338 10.516627384520675 8.525015722363195
Sn 6.322484403570169 10.393032370087743 12.358539491110388
Sn 7.47332220386451 8.740682394908285 10.198862412293714
Sn 9.460514272611466 2.3845684553030013 7.231203381190773
Sn 11.93684730320922 10.618680440213348 5.896955928385375
Sn 3.6826638768886553 6.257816792776851 10.811560275059922
Sn 5.7040316431022475 11.45701117407121 9.390554226591231
Sn 8.377409978413795 5.297369504954742 5.2885345296646715
Sn 10.978711721699248 7.812128898379683 4.83281306727488
Sn 8.630295635830073 4.954144882297971 8.535143652043562
Sn 7.823753552932771 8.295192603396352 4.602527548684664
Sn 6.664301203743069 3.1131709272814914 6.590700165845936
Sn 9.164866682891102 12.023188382669526 6.124858170034025
Sn 7.173780381732771 10.031407910262432 7.056856592068743
Sn 9.855230022147003 10.439913497944136 3.693666553642132
Sn 5.580840589125784 4.537832180880919 9.176585296590588
Sn 4.928631482276598 5.547567211590839 6.155819755395086
Sn 4.041593388343658 9.40042289508189 10.779854156879296
Sn 2.596552679525828 5.2749379583669755 8.179247880813419
Sn 5.29309911951642 7.528943194447592 8.311208870957582
Sn 2.406308380591595 8.175895213369591 8.459873316487823
