26
Energy = -90.12194451 eV
Sn 10.401586699010238 8.086942032226409 7.327729102405333
Sn 5.156514248471643 3.1907118770932223 6.905389783456678
Sn 4.825668287451657 3.765689248069853 3.410567774109565
Sn 8.728198658419043 2.344249108010772 8.877666992010523
Sn 5.687216453794255 6.42946008164202 4.326498010918071
Sn 7.212355074917499 5.044749050932281 8.525883978256799
Sn 7.7504640591156475 3.906206859100873 2.771349214791762
Sn 8.759994842168823 6.214164877127055 5.483614436177016
Sn 4.087423808574147 5.893215651746269 7.053103609452223
Sn 4.000508789666254 8.796471191483535 7.270118380933918
Sn 3.3936823705251733 4.139840601029149 9.512662196666689
Sn 6.045951819835053 5.774478629812452 1.1924569557689557
Sn 3.9174852290521187 8.923464693701881 3.185350321049953
Sn 8.061953569823864 3.3566840516157685 5.929540619109302
Sn 8.493504673393105 9.721469016495032 8.998857429581607
Sn 8.525950431805517 7.102890703049461 2.5483480206153883
Sn 5.957379879634044 2.69518633874224 9.894804801782481
Sn 3.186548828963554 6.160836705787239 2.1772727676419494
Sn 10.254958058820112 4.9111856829101885 7.906849587861758
Sn 3.6438788609600277 7.180491108895534 9.902557997593112
Sn 2.1714778437738866 9.97627331097702 5.279122112987155
Sn 2.1193400004207295 7.0190732606376525 5.108145261064711
Sn 9.651153359265953 7.0146546628687245 10.096631794656378
Sn 7.046187877834262 8.379139990882624 6.791415688073026
Sn 6.591999419192792 7.5786080896500305 9.826242868181323
Sn 6.7809075128799545 9.160400911140078 3.8505119927120632
