20
Energy = -69.76539391 eV
Sn 8.279701767154977 5.336425225982583 2.6943910047215036
Sn 7.0980559410442 7.937144213066068 1.3304735430245145
Sn 5.207864236040881 5.834226684000491 2.2108381020603023
Sn 9.090775318016368 6.598976763244004 5.507158528437845
Sn 9.728857850473032 8.073227107667492 2.990158426435885
Sn 7.570653256364798 10.328036903874514 3.113713677425237
Sn 4.984980744135788 8.741176295145788 3.5100184775944054
Sn 7.3722966871248605 8.991929890528748 5.751142790971098
Sn 6.075749829714807 6.264199190565878 4.987466140391346
Sn 5.0508528454351085 4.714691347637896 7.515504014525627
Sn 5.483942400038952 7.80861898515301 7.819313415982501
Sn 2.9425330645710295 5.989238281242091 9.301074582206533
Sn 7.330030279140123 3.3269254499632295 9.05188435359569
Sn 3.2843773523677062 8.976450180394451 9.305538140891377
Sn 9.739698640620123 4.92806611544889 7.824059882542802
Sn 7.67546654831392 3.7830993871555774 5.716894108764418
Sn 7.670831173291607 6.457000505627812 9.363884558237883
Sn 5.132561564793424 7.61726540704965 11.103083674108076
Sn 5.126684016960778 4.45728021188465 10.836877992961355
Sn 7.296872693669756 5.978808063639358 12.209310794394728
