25
Energy = -86.7831304 eV
Sn 9.097123835990617 5.675385048900065 1.3238196935750113
Sn 7.311011980551234 7.528227907014963 2.7901369036447954
Sn 8.347601589948134 4.535853640848697 3.851166216674959
Sn 6.198885943475306 4.917038849257875 1.4752412253676603
Sn 5.543176279111579 5.375690710888195 4.2162681339529975
Sn 10.737003546870307 8.215233704786511 6.462640921973906
Sn 10.155236396486183 5.299762224898916 6.625132742248143
Sn 7.883182465955881 7.279752586768764 5.721713474571678
Sn 5.676814030497683 7.442729301413948 7.804457647986856
Sn 7.915439612246467 5.412392620854976 8.560828027880126
Sn 10.502471732202267 6.850476188696294 9.372796034501382
Sn 3.604189310671562 5.744697221713948 6.435076080460949
Sn 5.851039766261755 3.436773596826243 7.2528386807314265
Sn 8.579784928137245 10.563961872863302 5.879488889614852
Sn 6.62594476315662 3.6134206486289546 10.55446131066481
Sn 4.6532160408208005 1.7688153650116565 9.4537421446042
Sn 5.50482859230085 9.825329406828276 5.887539705865387
Sn 4.124288328763256 4.945656123314002 9.640649491040024
Sn 2.662095326928153 3.182724556595712 7.7390871457127
Sn 9.44140534200979 9.561305287220723 8.888491025529936
Sn 4.672312436060312 10.041993065025201 8.92574622017163
Sn 7.334355948472169 7.919128905165836 10.365383342423678
Sn 9.304745107370294 12.38844039296211 8.458212232178663
Sn 6.41314006064652 12.11463967138776 7.571766370869131
Sn 7.1675510420882675 11.081107102926017 10.401711496798839
