25
Energy = -86.98263184 eV
Sn 10.304331115882606 3.0106537474690467 2.9806058556112482
Sn 7.2117366439980755 3.5290293609420753 3.4199689683498087
Sn 7.4883154199843425 9.125912019560069 3.133983251227664
Sn 10.321195112777696 8.282012353665651 3.622646939062329
Sn 5.949384598757969 7.432691432972497 4.827395497133834
Sn 9.42887579692294 5.530500886816119 3.9176402522457408
Sn 8.53271279051395 1.0284455123086886 4.210442047774177
Sn 8.956130474289534 9.448700443447507 6.003229628940872
Sn 3.5128924605588705 8.897577370684514 6.111679034165815
Sn 3.572561836157835 5.763662908558395 5.4551104304018265
Sn 6.026996041426818 10.675335731578027 5.267526050629471
Sn 9.451896103665653 3.256954022819403 5.950045615770414
Sn 6.873551984733366 4.893161483272464 6.167040687187565
Sn 7.846804155532212 11.62644950560081 7.5966383441509135
Sn 8.15774525699817 7.135410897652788 7.719626289081382
Sn 4.611832818651564 4.124076708687475 7.927521927541671
Sn 5.715657765504922 8.92973952650654 8.178794820403372
Sn 3.026996454085614 6.752263358189788 8.301575475714232
Sn 9.39703788422965 9.752330379975527 9.838575376084819
Sn 6.469091158811283 10.930071442491302 10.332731377110045
Sn 5.885241188381598 6.173168345283223 9.562393281742368
Sn 9.113626560573236 6.757692836729763 10.53048597084387
Sn 4.762905667107628 8.612707678938557 11.307789411303688
Sn 7.794036543159548 9.053489510431195 12.317280814212133
Sn 6.599586208776228 6.289104576900289 12.330414694792095
