27
Energy = -93.88877286 eV
Sn 4.335650838163536 8.114502189945545 8.672747874120065
Sn 2.373325032254915 7.648799209218091 4.818417984673345
Sn 1.3658207421161925 5.209371969572771 3.2571837674134745
Sn 4.193470349739362 5.805215226381415 2.456466153078044
Sn 6.879042048473777 0.9919378446694349 5.7176574476912
Sn 4.837825974668317 8.036682351686096 0.5937725980360812
Sn 9.51158555834183 8.338619539058554 2.4984559966036968
Sn 2.7991995296410046 5.401837220257748 9.257362059485638
Sn 7.810126175744746 4.327901210978229 6.6054599556449425
Sn 5.289280232000875 7.827956902062465 4.370747685206386
Sn 5.095623231970914 3.1566985390382793 3.9261881075332625
Sn 6.7752905956808505 7.6149722851514445 7.028680044754025
Sn 6.774666188986119 9.426513493423856 2.344253922056751
Sn 2.016143257054559 2.5706600333421012 4.364762619816558
Sn 1.6018363253420556 7.869239844931791 7.762474153295997
Sn 8.67789718570857 6.168690875068276 8.722085762995668
Sn 1.75105459909697 5.023275219971192 6.39253474154708
Sn 1.943113185562816 0.0035191218891961534 5.722654505147353
Sn 4.460994838300145 0.23639568509465875 4.0478401544615625
Sn 4.0088900817530675 1.762477983073059 6.756221947330236
Sn 6.21031116068001 2.6300670661956427 8.502740215035216
Sn 4.763659309799934 4.985359917020876 6.4465688744694365
Sn 8.253603281433136 3.1551081727850336 3.9339452841333795
Sn 7.812899135195652 6.25267205476018 3.71367089728869
Sn 7.691606890726949 7.017877826323496 0.5689083792114951
Sn 6.707259598781082 4.301896121285662 1.469569213287889
Sn 5.806792695258478 5.621605480275577 9.480506305958297
