28
Energy = -97.77743273 eV
Sn 11.383020115531698 7.05363750274084 10.976673058433635
Sn 11.391875884529805 7.582926901892874 7.864689284755214
Sn 10.178312671343713 4.915509956348066 8.859519764485764
Sn 8.443099740586721 2.5271899979183097 7.707547019942239
Sn 8.355840118706974 6.555203404965746 10.84463103107912
Sn 13.064133859977906 9.231024975710062 9.717694073571101
Sn 6.860479502745353 3.3689566164737177 10.060404814744924
Sn 7.208271045773945 2.4084787308272886 5.050096334257498
Sn 8.371613561455323 5.221224948002112 5.410121379508841
Sn 4.5278174105974625 4.836217185539128 8.771478411948042
Sn 5.278837587839453 2.06731212147131 7.5778159581402385
Sn 9.869793755663608 9.52388427207551 10.115934015711286
Sn 6.745959133978119 8.919243286185182 9.355903832114816
Sn 7.32786816790467 5.782593558118913 8.126083990130777
Sn 8.770135005719782 8.835930260000028 6.945706771829999
Sn 5.210091817160507 4.512941698236111 5.694062867488289
Sn 11.346550738603321 10.747363940030583 7.7962516963194615
Sn 2.480868014915783 6.272655488590154 6.858926601403849
Sn 5.100567932108964 8.102212404141717 6.959004375993923
Sn 6.389292163277936 7.432222509273054 4.371801575081577
Sn 2.9360509865567814 5.392894949777361 3.9748413445078996
Sn 9.386281036712186 11.904777915624825 5.882803822453799
Sn 7.053444630125045 11.436519060532918 7.651081977480533
Sn 4.485450420231546 7.128373948557001 2.1376955523258503
Sn 7.295554405830766 10.265957657257793 4.51717703887916
Sn 2.4047266154040376 9.322901567346797 6.967038590888797
Sn 3.160689645002521 8.661258187420069 4.18123238477907
Sn 4.647361155391916 11.089167392643395 5.8459911972110925
