26
Energy = -90.4539529 eV
Sn 5.826826126126818 7.07249582752079 9.474066112914878
Sn 2.818059678390669 6.3139319838717425 9.036261557018777
Sn 7.965601824331444 5.1509846022077435 8.061125684278958
Sn 1.0693690529726558 6.624110441801685 6.585443379564358
Sn 6.39300026845829 9.007981395722165 6.841783692500866
Sn 5.216451039662912 4.076958373324338 8.715460550598884
Sn 7.144108578507296 9.13892618527631 3.784721431026271
Sn 5.896626003533552 4.9494006841986895 5.726295146847366
Sn 4.038877014127695 7.152505027443976 6.284531660127636
Sn 8.558766709930397 8.192721147989426 8.65285242639492
Sn 8.48855820021098 7.0224935934470425 5.759429465104765
Sn 5.821261561081913 1.5991415429323113 6.327704353775037
Sn 4.515446112148468 10.1783704578315 4.765791555075531
Sn 3.573295186695211 10.296653760754143 5.401261564780839
Sn 9.176072654199139 7.149218536683594 2.9095160013046653
Sn 2.1585413383516108 7.828571936317738 3.8526339511942806
Sn 2.665333140542226 3.959029890706435 7.006510824426014
Sn 1.7728526636193063 4.6409652102763435 4.2139676435915066
Sn 4.694947847111484 8.500530499034982 2.183666024101915
Sn 4.064981132551768 2.289791291642316 3.8247395530344446
Sn 7.200564062755514 2.6768159994910237 3.791319401276671
Sn 6.482961886468971 5.9279537613367825 2.8756452445187186
Sn 3.601200704610998 5.654715641651707 2.058267444903639
Sn 6.276489096742526 10.24836648887139 3.888213193157821
Sn 5.7354366777243415 1.4222300683019453 1.4031612399735967
Sn 3.5724784179850713 10.1783704578315 2.4129150472865764
