24
Energy = -83.73537066 eV
Sn 7.603076662951301 2.833411240409069 1.9785650005861193
Sn 4.851006363285693 5.538383354687024 10.144468889595373
Sn 1.6906428570157097 7.8146656103203656 6.762952048201141
Sn 5.7442809971960616 7.005999070433383 3.0448704891996887
Sn 5.13133481360891 4.481897993994598 1.4908475845421245
Sn 1.2191127772204327 4.726096314086552 5.4912424916883475
Sn 9.94467804497429 5.786320865728505 8.711127513358578
Sn 5.793747244166861 2.735623984939495 4.2688518710089225
Sn 9.4637390964152 8.47717178255112 7.304767341488726
Sn 6.086590679707752 9.809710532240878 4.099582021874407
Sn 8.479898127022302 3.7177816982666427 6.72662250890424
Sn 10.348400701509728 5.927861482900424 5.722752503841655
Sn 3.911292896346047 9.780267750604667 6.1738292114192115
Sn 5.527297035093268 3.167058736397352 7.782564256405544
Sn 5.882889441368198 5.523716035348552 5.836958348750468
Sn 8.161020674781811 5.167091736669281 3.7375391716563238
Sn 3.1656767424879098 6.757465515792717 4.384193348371551
Sn 7.500922250744401 4.342576899765324 9.752909497691688
Sn 4.010332399898457 8.193002598682432 8.854121633395815
Sn 3.1483843405375778 3.586489162844945 3.503395443440257
Sn 8.704176002712988 8.276149056120573 4.28129667194364
Sn 3.3467252599151944 5.285702711188923 7.489539989160103
Sn 6.517526644915868 8.183400813339528 6.735655180664616
Sn 7.34722492833356 7.487356682316214 9.684393580941233
