28
Energy = -98.01653661 eV
Sn 3.1047992230525976 6.734517558282084 9.325249992663693
Sn 10.881246587119442 8.201807785403703 5.203216971928588
Sn 9.524102226957448 2.943590821031292 3.4409820118450756
Sn 5.8949267792002376 9.876558167933533 3.151865072952926
Sn 7.769747744642113 5.2263754681625425 2.70754195106024
Sn 2.063755825398368 6.889813289155522 4.178882509879592
Sn 2.517908730781098 1.956049098339529 9.105635761076199
Sn 5.320488042949507 8.704353859541648 8.70289125848721
Sn 10.177868626898956 6.03624529970041 7.331757373583605
Sn 10.708384249272244 5.520792765239334 4.190033281896977
Sn 5.428999860416889 1.7916034306812882 8.295356801964065
Sn 5.700108458490517 5.754976768837276 7.974170020271926
Sn 4.632003282253017 5.062056287028484 2.7620893205417447
Sn 3.4045922509956057 1.5358469205208634 6.103456244130871
Sn 8.25543444267717 8.45395593243954 7.835956205591661
Sn 2.8418904359132084 8.424797985305778 6.692481121860544
Sn 3.925102643347137 7.885471982939303 1.999620547764798
Sn 7.498978066451164 3.7109204447978024 9.12427968838043
Sn 4.4977333933026715 3.9743816910541034 10.340131985180905
Sn 8.189534309732123 10.037353453227169 5.24156462700479
Sn 8.436936499930157 3.732077717073021 6.084362935140759
Sn 2.656059254542742 4.369408158437566 7.428336725292599
Sn 5.04980316160226 10.450513881196946 6.091426667555452
Sn 5.353455223506682 3.9824216102192636 5.60583395360293
Sn 8.896845487314312 8.097021124699292 2.697435002864378
Sn 4.993474341363673 7.4397624793804615 4.86393170663393
Sn 7.86534930413431 6.813402350912637 5.368452542715882
Sn 2.3485526057567077 3.861914514985791 4.262680807333875
