20
Energy = -69.33004001 eV
Sn 7.851421863359186 9.504188163889522 4.016221332657005
Sn 8.168533825179704 7.447021190513886 9.144745740593164
Sn 8.358055308529485 6.319686374475919 3.4682456319251367
Sn 5.778954119000376 9.170632302888098 8.485450150179883
Sn 5.578662259625823 7.456257096743216 3.2407476699621056
Sn 10.940178473045282 8.663913073986125 8.547918159332857
Sn 7.982377930277597 4.616452419700353 6.06836289122184
Sn 5.2954247225402185 6.537387166163155 10.044046159863225
Sn 10.171436637979644 7.793726826342481 5.507346484608701
Sn 6.804385989554903 7.277892411598542 6.091720046706757
Sn 3.8018829633094517 6.59565234859828 5.471340958158698
Sn 10.337322361945864 5.644344645923714 7.869661742300403
Sn 5.055570480456434 9.619961464629554 5.413608482884949
Sn 7.733670761021953 4.46054481521346 9.363395372978124
Sn 8.411321023553997 10.566809969914292 9.269978686670195
Sn 9.73036594935438 10.568900339448119 6.452190140071137
Sn 5.2334447168144616 4.709725283798819 7.459469964080541
Sn 9.633512374451065 8.78799499505227 11.493329988070503
Sn 6.550307054670107 9.084818998661445 11.701528324479161
Sn 7.725729287527966 6.316648214657043 12.033250175453562
