24
Energy = -84.28508538 eV
Sn 10.863377025210326 6.169959563363579 5.311355756092441
Sn 10.252971761262685 3.5262449531281765 4.0019003255907215
Sn 4.946403775272298 2.6565797828803794 8.132913843377606
Sn 1.554841423635172 2.2871881460427295 3.2509730667388506
Sn 5.381790817574171 5.5947334634376364 1.4256377610523097
Sn 6.333791778581929 9.179155523457881 5.180725114642883
Sn 10.863377025210328 4.923176145114608 3.5230519902437427
Sn 8.362733505129931 5.24182647436466 2.3229716631903865
Sn 1.9830621820823122 3.9609701787146174 8.196010451570233
Sn 5.555744187420097 7.694323782515996 7.733209531291869
Sn 8.778663966785107 7.842454488211531 3.8213242496510924
Sn 3.0603257238753594 4.979326348700582 3.2313499875959586
Sn 6.610593062355187 4.910308479603996 7.1828275329950575
Sn 3.326526834938816 3.0692733909300918 5.558201689016474
Sn 4.474282862476174 7.97649194847408 3.057752597222995
Sn 3.2048489476765587 6.1124007545228665 6.438274482872202
Sn 9.43666008369349 4.016329241881767 6.983810936965386
Sn 7.452618503395884 3.161000470399774 4.690744800315032
Sn 5.517946590944418 1.0998124005000136 5.611207315300205
Sn 0.23936580245308944 2.8582554058970593 5.902815200736515
Sn 1.5552726352210178 7.423850304981474 4.284519817621835
Sn 6.3551838058102765 6.096878665183436 4.425136868808634
Sn 8.675459545848025 7.281261435192472 6.993266154851847
Sn 0.04957728210427177 5.895908272801435 6.535933089684498
