27
Energy = -94.4014898 eV
Sn 1.600332313961791 5.521956674377522 8.234528096724032
Sn 8.863795317627547 8.732355584692211 2.98327537898033
Sn 5.293724397236634 1.9237793915953285 5.920766186040996
Sn 2.818226013829277 8.2854867811693 7.276165687651361
Sn 10.77452062997807 6.3348802864048865 4.169683195491507
Sn 6.564983937815708 4.71873440472331 4.775575641284575
Sn 9.4274988128725 6.0828397598756005 1.4973168843065996
Sn 2.7152518999652124 2.4972553080746356 3.8544448762285253
Sn 8.40188893142596 7.64950356016707 5.6619796455640055
Sn 9.210307707736472 4.6567535791082495 6.098791781649817
Sn 0.5916821308407051 4.042836717764858 5.588677053053684
Sn 8.763472566738068 4.6867146849334125 9.065874948239399
Sn 3.844366239814555 5.492453881831242 5.8940597639653065
Sn 6.572685297302835 5.0001004535961435 1.7081042254395093
Sn 7.815511007595031 7.453080912521045 8.540236772437908
Sn 4.638761983761723 6.339722432173426 9.027859544936211
Sn 2.846575571335134 2.826509349898838 7.334283126513161
Sn 2.02331715340055 5.511684032105895 3.370896396896988
Sn 5.747275363988732 2.273740752447954 2.99099119006624
Sn 3.395013017266948 3.865144314755181 10.140700411744707
Sn 5.3106061180593205 9.180445642060931 9.036152465266271
Sn 5.666258591578156 9.144014055741643 6.024723945030641
Sn 6.17862821017621 7.493748537418923 3.275878028050025
Sn 6.034829158857864 3.977859884785971 8.114785929802117
Sn 3.416777950463931 8.245250747216643 4.20485167184246
Sn 3.6411045807890114 4.035583721926017 1.3584219130284145
Sn 9.159361500705632 3.602860586602594 3.2463452507213937
