20
Energy = -68.84975149 eV
Sn 5.6981263609256825 8.714315347892034 3.746640160076292
Sn 7.217881073542793 6.9302068975589375 2.049398519459934
Sn 5.080890095776538 5.57661344126992 3.5978928175468736
Sn 10.579794381200859 8.926976051636247 5.448806379221589
Sn 7.786558628425254 9.994582286797987 5.51668399185421
Sn 6.277372524660897 2.4923813668249735 7.328579465900727
Sn 8.636994684168489 6.964939797497782 4.615613908761813
Sn 6.889636172393942 5.0293378166049925 5.993991464078437
Sn 3.1185221579540587 7.649652684704205 4.566037128945372
Sn 9.444190391559777 8.72692543594204 8.11457478052227
Sn 6.359008174469195 9.36962726230102 8.192517291927754
Sn 5.152036902100745 4.876585677915366 8.790793237212776
Sn 8.325846028326731 4.049499872229464 8.61219020778713
Sn 7.238903624276749 6.861525689895189 9.61043298128246
Sn 4.876570333802035 7.141694885201389 6.794053839795526
Sn 8.248280903528677 11.309158876417797 9.423037579298681
Sn 10.28039914459744 6.264228922718399 9.587469665446712
Sn 6.8118654353982055 9.311238029979737 11.448746587446186
Sn 8.789228309409104 6.992606746686124 12.163346529192124
Sn 9.923703427124346 9.553711663568095 11.135002217885017
