27
Energy = -93.78881059 eV
Sn 7.103319243871494 7.35824460747317 8.291684457543997
Sn 3.698090275928451 9.569260940435012 4.734876180668157
Sn 5.500398960071049 3.311497375939111 5.76531113433638
Sn 10.10414960860953 7.377513769523849 7.954360534282542
Sn 5.847179036335122 5.010195964767096 9.914578277808527
Sn 5.485696063068391 9.639693015193535 7.089758215782095
Sn 3.9677322669150037 7.80073470987718 9.033210432065058
Sn 8.51457526018382 4.513839289487012 8.562209974953966
Sn 9.843176321828443 10.441327479778867 8.82956929858644
Sn 6.188160753773701 6.2626154563260075 5.558160201935069
Sn 9.26414138062068 10.487106202192917 5.834697876261207
Sn 7.334000738043589 11.805801556742527 7.847077691299115
Sn 7.800095478201484 1.8490856053346385 7.3437757515336735
Sn 10.434912345335261 5.712115249417893 10.409376733095913
Sn 6.694881798787986 9.679888305480278 4.175959308620156
Sn 5.917856161034628 7.54978423561793 11.350134307705241
Sn 3.117889121501522 6.969975371298789 6.082201176352289
Sn 7.287764267153472 7.085027189819056 2.7136876144792788
Sn 7.667145932379471 1.6710578868459918 4.334731838147934
Sn 4.98309574197005 2.4643123410750447 8.539757995420208
Sn 3.0902690911692265 5.046605791257763 8.354564005857391
Sn 8.800337287803751 8.2397950018028 10.72373378144588
Sn 8.651865915021087 4.34181074511799 5.4013029823852365
Sn 4.331209056745337 6.80257556771829 3.19872813452321
Sn 9.309749437946985 7.57836183972693 5.001043145413566
Sn 6.2168264409380765 4.139159787542251 2.993677417084939
Sn 7.433641351999895 12.529595264592212 4.924676635252783
