22
Energy = -76.28703164 eV
Sn 12.956627004276612 7.270740960143511 6.518227987349188
Sn 10.799322575686688 4.983256177143977 6.0536304486519334
Sn 10.858363151308092 6.8875917861281595 8.374504291318173
Sn 10.198474088047055 7.32308781096866 11.188413857643924
Sn 11.888564287689785 6.5848971210519665 3.833070395761902
Sn 6.924997976442981 4.429536310037505 8.324150846450705
Sn 10.11609087080017 10.302757643047736 10.343524340428313
Sn 10.221984970875575 8.302366325751924 5.528045800007723
Sn 7.609446790118717 5.813280978340447 11.189535702949206
Sn 5.31156072049719 4.566102872244657 5.535447690187912
Sn 8.691686505071418 9.461005018679732 7.989169336813811
Sn 6.429952138978536 7.3813520093670215 8.783573385361052
Sn 7.358366824577864 8.816566028239375 11.249101869562526
Sn 7.22893426144873 11.588958664450626 10.14658990659379
Sn 7.943618409247138 6.2529767472350155 6.243960941884459
Sn 7.0781187101313625 11.628149192417899 6.828038603543133
Sn 3.9815570690608317 5.224809318572524 8.247406144753409
Sn 4.7023120176933135 11.13545768325989 8.640008400368979
Sn 5.632003899262517 9.087810568962261 6.308505307767031
Sn 6.118705406324601 7.201874897077116 4.081145920697495
Sn 3.546878767978728 8.262321324173246 8.380763565613739
Sn 3.372922818426579 6.868548865452041 5.597159823553673
