26
Energy = -90.73183935 eV
Sn 4.472017093008811 6.023579634764565 4.8900156416584
Sn 6.367776704786504 3.723416575533507 3.679819929964668
Sn 5.20854319546841 7.310949242528327 1.9774231113448428
Sn 5.77800802717081 2.7583900152420004 7.389064286170265
Sn 5.737943661078367 9.134741346564903 4.51101131414299
Sn 9.438757096762936 3.835990973885801 4.375790884144335
Sn 1.8099812497069705 4.323703319560508 5.279985989851263
Sn 7.857738205316085 1.0667732297235206 3.556580516667209
Sn 8.173045127605903 7.974835982702238 5.798605396450725
Sn 3.5025894789378587 3.172714429049268 2.9969393011913126
Sn 5.3601652671044455 8.126753913278712 7.424086178821708
Sn 5.070180840001625 1.1727092931415808 4.958070429435642
Sn 2.594124877695307 9.118927017575983 3.0979932350698256
Sn 7.9232725763113026 6.398782928196108 3.1527585842768264
Sn 2.945608531548113 9.518112663624027 6.132338161891899
Sn 5.067837286083599 10.28308231769238 1.9567717692766033
Sn 0.9364769047468938 7.269500526486375 4.736501473200677
Sn 2.5223465822101088 5.416362981000474 10.067160826238359
Sn 7.260056918870441 5.213948070743743 6.2680182798316135
Sn 10.179797138232642 1.3220894868436346 5.660524610684745
Sn 2.9152140203467205 3.3645910579333136 7.960650400749811
Sn 8.915529911531578 3.1322109360784736 7.730072314613945
Sn 5.282834047678266 5.45292338489881 9.006221889716787
Sn 2.501084995200109 6.012972312739056 2.2924625717667975
Sn 2.525022997600426 6.639956842636848 7.4496482459708515
Sn 7.560441779278699 0.38420436083687487 6.660017879305568
