26
Energy = -90.42216422 eV
Sn 9.171253691046768 13.699620389560433 4.124654706232689
Sn 10.635087032123227 11.369701406901438 4.879037194133816
Sn 10.297537829228574 13.642353796592404 6.948479282198359
Sn 7.568856637149308 12.180615316725671 6.097737201738002
Sn 11.214799170644074 8.482751371641527 5.398339940862932
Sn 8.196073401211095 9.294897491215584 5.180329365541248
Sn 12.003362496991416 8.688671235865762 8.20840549435958
Sn 6.346320794511055 5.4799306042294935 7.921274426818091
Sn 4.397289981242998 7.951273517394185 7.18299153422489
Sn 8.260236490099082 9.732869426858747 10.485881383586843
Sn 9.686218729522086 10.922671275495546 7.830966126570499
Sn 9.520977309443465 6.295988272018342 7.002849201074123
Sn 7.304695187307775 8.374069864027712 7.873122941588474
Sn 11.396139122808925 5.876428888062525 9.376480833320088
Sn 5.2862274126965465 10.259009050513512 9.238462566465067
Sn 5.5762280509770665 5.530827357197287 11.04610468503787
Sn 3.4696054524263973 7.877245240883504 10.17691564282545
Sn 11.187188314080192 8.582086871243607 11.104756160959315
Sn 8.320190701597813 6.6230780780012335 10.144046074427024
Sn 3.620244704270953 10.275404378639381 11.81903916246043
Sn 5.935688237273252 8.453814493986926 11.94568165731012
Sn 3.4500878727095508 5.3638818785643245 8.777481922743625
Sn 14.27026664971599 7.286283578566288 9.827319553326506
Sn 13.592135895001324 10.39032587002295 10.07239149456944
Sn 12.538505348532002 6.040841886837132 12.154560881249232
Sn 13.919522329301163 8.72992679457041 12.47649920580098
