21
Energy = -72.86582126 eV
Sn 14.535379300606802 5.899168291049071 6.656205083681841
Sn 12.604191313462024 6.348336806964091 4.625530465190384
Sn 12.111813244699183 7.249311596213936 7.815717757129324
Sn 9.985604227259664 7.233333129026301 3.3983036122139567
Sn 12.230163824027954 4.026154134636538 6.8042929482335195
Sn 9.986201208487163 5.728836421369057 6.18764172273108
Sn 10.5614153346182 8.871844886943634 5.753334585042185
Sn 7.825180917735143 6.224456874936882 8.373995480803998
Sn 7.281513340545225 6.747020477316484 5.085267753694342
Sn 7.151484239737527 8.89016475209372 9.91146944989443
Sn 5.549554915215878 10.55026300450147 7.814389694712537
Sn 4.640178247325847 7.595118760865444 9.282973595951008
Sn 7.817545308539343 8.991933388057365 6.872160866709776
Sn 1.7446096472828472 8.069640040520696 8.68404724234007
Sn 5.163784578981023 5.486411595104468 7.161442890375724
Sn 4.01395301470125 8.385012481088136 6.4056079380657724
Sn 2.9990957255849113 5.057068207802941 9.4670935648761
Sn 3.989602182233719 6.215128977896656 4.399914458106043
Sn 0.4144328107347518 5.423400989667623 8.102093696706836
Sn 1.261882362113312 7.13363359045422 5.675089430064059
Sn 2.514103248962397 4.258369175530655 6.2351368938207115
