23
Energy = -79.90425521 eV
Sn 4.467394861852554 4.193540728017461 8.658630861727316
Sn 2.0200234707956763 5.88357995877827 4.447277709321236
Sn 8.213100197006657 7.182463894293525 7.192934836225456
Sn 6.375058268225602 3.9363523335272035 1.2424984833130632
Sn 6.167300632393837 2.1878506932149913 6.678218854606168
Sn 7.08684787680821 5.391874174509785 9.621618907094682
Sn 3.330517538210527 6.422191711788571 7.167280549574643
Sn 5.305324844715502 8.565758946602774 1.5031836051643135
Sn 8.985236822991627 5.232461274815011 1.1919047070352273
Sn 4.062949124373494 6.048078989054961 2.0669785294431096
Sn 8.473795654619298 4.124982842738573 6.879075881256187
Sn 3.623695459293008 3.0759482377679577 1.9330312397854066
Sn 6.528731412950104 8.378907524964685 9.35094479736333
Sn 3.5564549985823914 8.920902164834331 8.684202249043476
Sn 5.50647652492673 8.438602389870523 6.340128836387093
Sn 3.7870034183714583 3.4389468442793656 5.0370976906923675
Sn 8.27674351394977 3.876788270529232 3.703032044171387
Sn 3.37993028236214 1.7802559422018414 7.556471680412726
Sn 5.984015453556255 5.478841825614752 5.6512170371208335
Sn 5.983052194895838 1.8297633442665153 3.5512690084242253
Sn 3.559566219193643 8.463039296306178 3.9928259925125253
Sn 4.273695576865931 6.5253494330575075 10.508395912135377
Sn 7.0516160531742065 6.653875166997142 3.0578080393701548
