29
Energy = -100.66622716 eV
Sn 9.065210292402531 8.739494862487481 3.8968952562311703
Sn 3.7638922828630403 3.6785156539728203 1.5700284034650167
Sn 2.3783363269294284 5.798659148536085 3.5491588605025823
Sn 6.797002296521913 9.604705384971433 5.779277758679326
Sn 7.000541281997465 3.181461865325568 2.238350868844642
Sn 0.730854764203757 5.340589454771489 6.143533982676047
Sn 3.5017891303841706 9.480047170007468 7.141953587259397
Sn 1.3286168101784215 8.261200776421202 5.427256915633433
Sn 4.435476888387606 7.531333251660783 9.488274402633532
Sn 4.73013892456785 1.0216270538738248 5.804425369910411
Sn 8.724617659276404 5.024956443475527 0.773395656230022
Sn 4.916157679984906 1.0707963601761474 2.794111847488354
Sn 9.515510051913834 5.839033693069156 3.570760952304573
Sn 2.9581538696092613 3.511525957482859 6.991887759686769
Sn 6.900192434267275 7.440563133880587 2.3369095023200614
Sn 7.108270076995722 7.982600254775337 8.2449984558544
Sn 4.322854535201036 8.16255098052964 4.232044336029962
Sn 7.09900088971007 2.2516913943249426 7.265672546234279
Sn 3.953880899173177 6.3230284754796084 6.644809422640049
Sn 5.406206547119929 3.8591102218520192 4.686005633588939
Sn 8.77320773390659 4.899521792495796 7.499125001079063
Sn 1.5062826370527727 7.3875403083449696 8.408969196710295
Sn 8.883326038827041 3.287816105799493 5.064972882188971
Sn 5.798480039233135 5.6277480514113325 0.3745999278485893
Sn 6.018452594149181 4.996987484309596 9.51860093554923
Sn 2.463310833465834 2.507740199008706 4.089796605973016
Sn 4.751988475515252 2.4341043457701805 9.099111112571494
Sn 8.645907047469978 6.188423682792099 10.082142914773042
Sn 7.062589004141124 6.545181413636461 5.299717110260996
