25
Energy = -87.55432106 eV
Sn 8.050490627627388 9.392127289019738 3.1412843712140264
Sn 8.429923613608844 10.737874261327606 6.004518424845018
Sn 10.518140714779078 8.498458434058984 4.6944889813410375
Sn 3.4482652319592777 8.617426186172583 5.674173441867546
Sn 5.697962291489506 10.769590738757836 4.422884536860613
Sn 7.022563908002478 7.378666440166626 9.766833764711837
Sn 11.617335294357185 8.121798761367597 9.693462673482893
Sn 9.02634690866753 9.764338296960455 9.93509083248245
Sn 7.927179139270899 6.4166102562369405 3.8470933505608307
Sn 5.872283803567073 9.671874229066866 7.346927528071999
Sn 5.3400352632368735 7.898505300254498 3.3094340807097242
Sn 11.934423203602321 6.791034248999807 7.026712465591619
Sn 7.880827964812127 3.1182038400783956 8.491496954165017
Sn 7.880957255702294 4.719244711229252 11.048339390879523
Sn 9.036296007234714 5.22709297508532 6.869860593563759
Sn 2.941069601733485 6.180585783962165 7.607066127894294
Sn 5.513352973760925 4.943038484121838 8.578102221621707
Sn 4.026101744902218 6.942970364737925 10.54717017452608
Sn 10.723080039572412 5.073308714958657 9.633299545960632
Sn 9.567661174637806 7.096589318594444 11.69912000190805
Sn 10.728475598541134 5.4060519356836725 4.479024318900127
Sn 2.853792819984021 9.015363048449807 8.653197061711088
Sn 6.080336076597822 6.884853711990392 6.369103659073217
Sn 9.115364245557721 8.105330247973232 7.481028891921651
Sn 5.368378745809475 9.82970666975968 10.28093085515046
