20
Energy = -69.48407638 eV
Sn 5.030901484036261 7.542666165507405 2.7857700922497304
Sn 8.418754362537817 4.5521008461228725 5.163112713841229
Sn 6.886009559259865 7.209189258540025 5.080183379765966
Sn 9.104307412437377 9.777484255391016 5.687798180091598
Sn 3.46068061905463 6.112796551303027 4.826187193006822
Sn 10.354209984864166 7.111848448948928 4.906599237127231
Sn 5.641839150987882 4.403224570804246 6.370432180371578
Sn 3.7899519814706273 9.227330579209209 4.877627088410836
Sn 11.393218083135867 8.161626112491582 7.47827109448137
Sn 6.25930574543493 9.7446966483326 6.619661728083259
Sn 9.0190067469874 6.292499200991192 7.652996657962798
Sn 8.983195204046886 9.815349116473055 8.777287934946628
Sn 2.125735098894345 7.766863897798805 6.843962696423145
Sn 6.06081459779663 9.917156534146867 9.574065495681484
Sn 4.935735228580519 7.202062568641996 7.7223889284462
Sn 8.226989037392707 3.291566610324985 7.903488399620833
Sn 10.48627542167313 7.5547473388770845 10.277711713489602
Sn 7.365383212780513 7.273489630675109 9.803774663877281
Sn 5.820024720152414 4.6465478353713605 9.47331176378412
Sn 8.91155781433285 4.670649295905468 10.449264324195482
