21
Energy = -72.35353813 eV
Sn 8.180188665183676 11.182584334827396 4.644280815554847
Sn 10.300117877992072 5.0330627779629245 6.622856657938185
Sn 9.03801075184894 9.273238426089943 6.761355665325262
Sn 11.631726459117587 7.712451042944684 6.998956744122629
Sn 8.486042219599067 2.495526066316748 6.8846968273167635
Sn 10.054270872984329 3.4334595396430143 9.316536296745326
Sn 6.5968571880110325 8.27625370731442 4.859591356404906
Sn 8.059662500701224 11.980597000339536 7.688103789328983
Sn 10.298520155997876 6.529665598849575 9.39092111595176
Sn 7.821981113492232 5.446232530467903 4.8855094201750076
Sn 5.581211659814058 10.606665006991166 3.200094178314374
Sn 6.887926717182876 3.1007086218754347 9.400912860981965
Sn 5.664702332597622 12.514900579136974 5.8960916162991985
Sn 4.227726347866001 7.744338760190511 6.66822131527221
Sn 7.798940317283104 6.698318458524083 7.7622908800277335
Sn 8.164556864540245 5.346116142572699 11.080736501886342
Sn 5.886335098350679 4.285200730030269 6.759187865348787
Sn 3.6778394564797137 10.355384580428838 5.5103032522177235
Sn 5.93629800640961 9.890853267109513 7.901702655620651
Sn 3.305125367083241 5.168774922525271 7.786740792338859
Sn 5.552707711263333 6.047474253004739 9.580461933930765
