22
Energy = -76.73612048 eV
Sn 11.354340417286657 7.2083659455993585 7.09015475681963
Sn 13.500239119273875 5.150484205290768 7.584818954489601
Sn 11.144421046095601 4.668427378353437 5.660010603640603
Sn 8.371238276764297 5.549729812305679 6.910425389026094
Sn 8.302685133912275 7.862537497770409 4.730650716893621
Sn 10.770618107856965 4.274602391082105 8.712327509588881
Sn 4.436895555041733 5.167235105827192 4.598632025426133
Sn 9.238261752535001 10.40673809180806 5.768455227068216
Sn 7.869487034098364 8.511234617723934 7.7763849937182234
Sn 5.2281936008358 4.575161829723871 7.524608295389191
Sn 5.3418585137186865 7.961416088718546 4.089764195359095
Sn 12.465355077571603 6.5968787825029365 9.931277330419737
Sn 6.179620031642749 10.225602567627444 6.0599661717495525
Sn 10.592872503701244 9.597323280834658 8.562999309231756
Sn 1.4897296173963332 5.082933768261608 3.9520396654904775
Sn 2.3273790118409186 7.833466312472977 4.670112783674007
Sn 9.300900161457971 6.816873560138955 9.815235953593577
Sn 2.3991631153784847 3.89912401789284 6.620684028347647
Sn 4.712347575372799 7.484003600263133 7.004692854038925
Sn 0.44267842136630603 6.311871774579787 6.689530699406223
Sn 2.0303441734024488 8.787143077430638 7.501157914825209
Sn 2.691970471172987 6.079640982723793 8.823637600633324
