23
Energy = -80.71001043 eV
Sn 13.199514890226697 10.780453060135214 10.40269635911012
Sn 12.180205833405498 8.094962966893265 11.740752702271529
Sn 14.480650121396906 8.019294142991283 9.774367591281166
Sn 11.475801567137765 8.78584179509058 6.780277411720724
Sn 11.732287023485355 6.565340337741766 9.130163425572988
Sn 10.492496435416852 9.501608809125425 9.781968822725233
Sn 14.195895558697753 10.055979962628983 7.428744657858087
Sn 13.843411807191897 7.0076171928531625 6.96982085896627
Sn 8.735250919712112 7.466294797316998 8.290098710636379
Sn 8.148853635866995 10.71142699260283 8.098185036894979
Sn 11.609116528514615 11.618845925823999 7.919952225664007
Sn 8.676954266913935 9.157496565276743 5.663942842640758
Sn 5.239191766818636 8.732845751012308 5.822009792795345
Sn 1.1718525182592052 7.764121121492675 8.833131693098087
Sn 5.830138586842785 8.99549283500273 8.878975473655462
Sn 7.533922890260107 6.395101874101872 5.271544251283569
Sn 4.659714725814254 5.821579656674292 4.574892099249254
Sn 3.0987830675410604 9.8661812662269 7.8447658342261235
Sn 5.9117428610180145 6.429629499231321 10.491513568097066
Sn 5.637406257046242 5.9818347092564945 7.562384696851878
Sn 2.753312283613089 6.89398857477665 6.527356517630722
Sn 3.5005601903734633 8.346012614578214 10.742798558678368
Sn 3.142223115107084 5.493727016629355 9.50022561765147
