24
Energy = -83.63602609 eV
Sn 4.305347210482962 4.541784256432882 7.118250399592099
Sn 4.2944396889974 7.321844363802252 2.718238922852138
Sn 10.162018949003953 8.010523085689893 5.525979699872048
Sn 4.40991459465865 1.8108568529176066 3.4519717352805657
Sn 5.429780185709749 8.752038229568416 5.38099731181167
Sn 5.7768829301349145 5.696541346544971 4.829436895790219
Sn 6.510072166236315 4.646199497621583 9.249460873373996
Sn 8.903228178829544 5.975623341907666 7.65894489291352
Sn 6.474915569454552 2.116367020639587 7.6503056184306075
Sn 6.1782384366791865 7.439941470222538 7.844443575387661
Sn 2.484419908680537 8.80567275864665 4.998900302349822
Sn 0.18783756479083583 4.682961722557995 6.083647227430935
Sn 8.046005655781713 10.165150855785118 5.354621510440485
Sn 3.9646089018268853 6.37243645591564 9.496037206057904
Sn 9.205719350837795 3.05054844520371 6.891063188401088
Sn 1.6579124008170416 6.006710984017197 3.895143223783916
Sn 8.757209058530767 8.937903215216899 8.144061835106886
Sn 3.8032497201591062 4.425920670645578 2.3339342761200155
Sn 9.792057573898548 2.8416193793891296 3.927213097642248
Sn 7.765571942644903 8.00834793210024 3.2599253490595443
Sn 2.061442712209904 6.777366029427219 7.055217922179206
Sn 8.758342146438453 5.494355195729066 4.615394384260483
Sn 2.5420942175676813 3.050925833312654 5.2932381316157615
Sn 6.931108269738046 2.747494934943693 4.727022044776256
