21
Energy = -72.84432065 eV
Sn 10.892515445977127 9.202417311753935 13.023899049367976
Sn 11.791465680363974 10.885282640345878 10.535836134428031
Sn 10.983368178352354 6.547975703516926 10.809370693228917
Sn 13.217867292814379 8.403463617472294 11.149506820012473
Sn 9.285764777797768 11.57162294624655 11.856108090009496
Sn 8.938660242011112 8.69303579448936 10.734357463299904
Sn 11.081146160584337 8.496190567188979 8.264979421384876
Sn 6.215378895968792 9.858098908855151 8.982488185698642
Sn 9.181210530139563 10.96963709992013 8.706154887307045
Sn 9.098008692796169 5.672862379999538 8.225642526856776
Sn 8.053631544722867 8.290270323855752 7.167485164098325
Sn 6.6100201067826845 6.961350228935613 9.652726431421199
Sn 8.063803631827469 5.7796974038040725 4.9731904840852605
Sn 4.166128631687595 5.487222472582067 8.966821599379236
Sn 6.376145505471462 4.471557075281715 7.328403741459376
Sn 8.350290759953102 8.867056930740064 4.277193807648087
Sn 5.690204929945319 7.372978988806729 3.5115702164854947
Sn 4.306173934496914 6.773930471340638 6.3362904757482825
Sn 5.283699119783222 4.616343229849534 4.4067209802217375
Sn 5.449950413429352 9.55172240097512 5.992555078922558
Sn 5.838869964355565 10.24132583606891 3.2212414163918597
