28
Energy = -97.74654163 eV
Sn 10.329584580545184 3.4164762106424744 6.765778571084246
Sn 9.313196247489538 5.354380591695597 4.502796328351602
Sn 10.196918469122396 7.266999522079409 7.562640566857845
Sn 10.092845090074128 4.969494934282901 9.596999314139708
Sn 8.885254099337365 8.397842975735243 4.782737893879279
Sn 8.06214934229195 1.1687529822040952 6.250405760717432
Sn 8.193275383246728 2.6530388542470345 8.896031958167816
Sn 7.898100246032743 2.607855637803629 3.5979856130431798
Sn 8.510654015091923 7.6151716216895515 10.163359451127963
Sn 7.184914525404434 7.516646109452325 7.000480055761927
Sn 6.39490193719975 6.990998078666516 3.745636091925388
Sn 7.258852874461039 4.242204276819658 6.472081950047727
Sn 8.732134110189389 10.034329245144786 8.15139651012138
Sn 7.754235318394844 5.079628436530581 1.8572339487060519
Sn 6.319431400802303 12.036833162604047 8.57650823430166
Sn 6.00381202226717 10.280335759462131 6.184200664454168
Sn 5.233180651232301 2.3471842050280594 5.304533418047806
Sn 5.106905169970608 3.893809539153373 2.649656631014203
Sn 7.227214215747881 4.909823401967179 10.791418262529362
Sn 5.334158274533304 6.125206685073178 8.714129688018499
Sn 5.8402473302813975 9.170155850430866 9.480768146237091
Sn 4.428612083118174 5.516090925052828 5.522914074450527
Sn 2.3353719350080855 5.075375608683256 3.366919650989881
Sn 3.105745745296763 9.690836751974114 5.46217001216892
Sn 3.569461266756915 7.844365570053857 3.079139209327822
Sn 3.4955092210336907 10.949465810230317 8.176368375275729
Sn 2.8583030759467145 7.944096572402014 8.129873474973863
Sn 1.5862006653352276 7.091150000104595 5.463334733881913
