28
Energy = -97.20346184 eV
Sn 2.9897405824362524 3.852031751193927 1.935287958037208
Sn 9.750376907673749 4.853336209993077 3.5364409394276204
Sn 3.064326696627574 4.883264477782866 4.833446359961707
Sn 7.083775591899362 4.352324666310609 2.069286927421265
Sn 7.176740403909851 8.863834936194246 4.349812320026638
Sn 1.2032767162157392 8.735642314919517 8.055067361584085
Sn 5.303087635255008 2.795877625536973 3.7486703057567072
Sn 3.4368819603374887 6.36619649608999 8.054267451924646
Sn 8.93917750946687 6.245805389040383 8.392399938129872
Sn 4.877267902103441 5.474834718300994 0.33086498545087983
Sn 8.607070918710876 3.1272898586014137 5.620448571795517
Sn 2.1741884181640074 7.82036450275526 5.465581193101453
Sn 6.450122402603744 7.628622111178307 9.393862899913294
Sn 3.8639628583238923 9.429703006979066 9.259340648478988
Sn 3.762035312667854 2.414447736687262 6.439855758350268
Sn 8.074167071351592 9.116498841554822 7.298153569228015
Sn 3.1260223196747106 10.808853898353467 6.604246507905789
Sn 4.0262039213127325 9.534763020578422 3.8289284569422737
Sn 4.820828432412351 6.551686230487975 3.0860478494991357
Sn 8.629309655633367 3.2660169497578706 8.55602724245455
Sn 4.1155412110071 0.05206917492160762 4.50734333153885
Sn 5.099720401086189 8.478810696283933 6.582441549834735
Sn 6.667722073234569 0.9019690988736956 5.824459268913061
Sn 5.846113684557124 1.89681973948752 8.53258557296567
Sn 9.816471060417422 7.206751491370048 5.559161758481309
Sn 7.13592051757794 5.8285127182118375 4.888151939910003
Sn 6.1537445487398115 4.784085742456419 7.505470494176738
Sn 3.861775934840615 1.0372614934792932 1.7080027641515303
