23
Energy = -79.87133765 eV
Sn 12.217341204895563 6.808883738787231 10.102806595604656
Sn 7.064862792384518 8.122308561528099 8.309854830441553
Sn 9.530622985817955 6.474814325887531 13.930388156973018
Sn 14.02935500632047 8.854370521751141 5.833378219456882
Sn 14.248294374562816 11.863927792076234 5.806735041043659
Sn 9.558904909271195 9.031204398922991 9.804202531458033
Sn 13.286129144933275 10.784850992473602 8.30215988061796
Sn 11.205093553691837 8.575301942745833 12.363894868154537
Sn 3.660312028034308 10.411065457701843 10.422771392389548
Sn 14.492555093831395 8.15253319320771 8.761610727106945
Sn 4.048664156063729 10.961904982600457 7.444022429431349
Sn 5.719048191677532 8.9955215623083 5.8319548280423605
Sn 3.829478936775382 8.037625461022683 8.211102828555845
Sn 10.316787955539368 11.480242446831936 8.303398778650603
Sn 11.457921046266142 10.731869399815741 5.54069534793563
Sn 5.393282532545236 7.879831124949994 10.8241658830397
Sn 12.096219886323555 5.6263143186964975 12.790552791816664
Sn 11.407422405151694 8.312583476589543 7.323467934859952
Sn 5.332377673987312 12.906471004780105 9.213003944669017
Sn 6.736071257327868 10.566565672948942 10.295423702967934
Sn 9.38804542732115 6.1179736130897595 10.997791278750448
Sn 7.94474104010374 8.796012392253074 12.568655321926185
Sn 7.210942539693926 11.215928915361422 7.302654445297863
