29
Energy = -101.03528186 eV
Sn 6.2310018250780566 6.738405136616211 1.8596364080500978
Sn 4.883015397290973 5.799596717811251 7.0298167835307055
Sn 3.6596103187822453 3.325730936707967 8.587444544072323
Sn 3.3047579091803874 7.4853090818214865 2.509440524022053
Sn 6.948690686149899 3.7505017167947687 7.657841883604819
Sn 3.3115082825202746 5.267033181427709 4.498284248449169
Sn 3.9065601191525783 4.2841886582904 1.4540728404104935
Sn 5.314475019555384 1.6213365252199092 2.532079679791473
Sn 9.00630594573316 4.748516468073649 5.55674228575117
Sn 5.005260672372987 5.307040430916565 10.828950606637559
Sn 7.598164874103838 10.139503261351079 4.890488601579597
Sn 5.134327793380579 8.136085494180037 9.325098702300497
Sn 9.124596226528489 6.955042350076664 2.6974799508562244
Sn 5.146579346783383 10.220701421590286 7.13955753027094
Sn 6.8901189441787105 3.878858469537215 0.9508244461058227
Sn 6.745446758175552 7.492357351786367 11.756229418351214
Sn 9.598922263790259 7.7658234460321625 5.650151839944597
Sn 4.665065595137498 2.0486494565736737 5.641266291968334
Sn 1.802332654044159 3.325529591680611 6.150718081168602
Sn 7.887320131995747 6.026466307733419 9.421272289639663
Sn 6.04462817244218 2.56597915604683 10.206497656799735
Sn 7.687814509319303 11.611839669375481 7.502939006711767
Sn 6.358985216100051 4.150855350252653 3.9839607569992355
Sn 9.371767845755551 3.94437801336878 2.736947911831741
Sn 2.4740004245374214 2.369692326169453 3.3267434088749908
Sn 8.025524351504503 8.746768418826619 8.061752126371948
Sn 2.7446800867300905 6.302251284956418 8.923985369660521
Sn 6.776173940890845 7.003628260325106 4.967213541481245
Sn 4.792680707034857 9.188724715348297 4.383603631359527
