28
Energy = -96.98861324 eV
Sn 10.36338994105185 7.278086051382177 4.594240573023973
Sn 10.459778121718504 4.472971506397588 5.594849687568207
Sn 10.723137272035153 9.398596555345218 6.608236430696133
Sn 8.598709906109926 7.97074875955926 2.3074029579505035
Sn 6.7604891384158945 6.97160147453229 4.411538778156416
Sn 7.970608501681919 3.1909253144736547 6.7026189585787295
Sn 9.967154297374883 5.0790684129333385 8.37166240808204
Sn 8.791616293690035 2.3733498759715763 9.643878588511612
Sn 9.140639882051142 10.960290505520433 2.5628679403380583
Sn 10.332058306225933 7.980023567540969 9.327139790636785
Sn 8.814290832504547 11.522366994158544 5.454485995337302
Sn 6.529107647854922 10.281627955729183 3.52882395415608
Sn 5.990451600980834 5.292518122468926 7.761698680819224
Sn 8.292390536180141 7.648871303687129 6.861858626380793
Sn 9.32236414823529 4.980046428602541 11.248922772814318
Sn 5.865428541714871 2.0852544311225207 8.669206217743724
Sn 5.172060715436742 4.511676975990359 4.911904994527517
Sn 4.989837848422152 8.76316982206714 5.901265458544722
Sn 3.0838770357546608 6.889116812229259 4.454376337360112
Sn 7.401166455681843 7.118207073103521 9.872029758675335
Sn 7.849235752283018 10.210201974475188 8.24182025825855
Sn 5.943934619501124 11.912703500459127 6.057622658151201
Sn 4.109035868453145 7.116826163537087 9.299530117794504
Sn 6.476080257365424 4.096054780294154 10.953798684331383
Sn 2.856476322551187 5.225359526650814 6.964005267710264
Sn 2.113329084074536 8.166041692249372 7.026876489622902
Sn 4.7539329337785965 10.204449607681331 8.401207676592891
Sn 3.6915849059792922 4.053118889977169 9.689622419286074
