28
Energy = -96.84712837 eV
Sn 6.520911491240134 10.682220871827845 4.029229026672626
Sn 2.622987628200612 7.013739551040546 5.146413481915479
Sn 7.7393096306814195 8.450072218495384 2.429600835941664
Sn 6.723125948483362 2.578179538289092 6.116314867966233
Sn 9.654888007100004 2.757804818709629 1.9754596957962989
Sn 3.9272502142833416 7.682606043834045 10.55160036026085
Sn 2.0223273392405066 4.399794132200148 3.6744855085328005
Sn 8.87852149466374 6.5364357427017215 9.31278190428266
Sn 6.5161278586887 11.282977211648506 9.365432329102019
Sn 2.2295010238745983 3.3125351171369686 6.352741775076349
Sn 4.874385469190951 9.126819564694868 7.998363350528516
Sn 3.7724973736847764 5.789459034798827 7.572769823337997
Sn 7.683095882716711 10.33690524694887 6.771503234125231
Sn 9.853108637038261 8.242582193146 6.993967047933024
Sn 6.72884515346043 8.339791278777808 10.436551938360138
Sn 9.573134700939514 4.358427383993387 6.5403455587719135
Sn 5.592564242740013 7.4424740526964674 4.09581899763446
Sn 9.350612527057127 6.789305689044094 4.338997845006373
Sn 11.226132404211814 4.38205372084443 3.9190194841412658
Sn 7.859272282145842 4.2930133925890015 3.6744602460907525
Sn 4.757659547529615 4.534233628735057 4.804817180435684
Sn 3.898048308230599 9.741406132681906 5.198594272342468
Sn 4.565747845223556 4.717678228407502 10.361561159910003
Sn 6.958114419650492 7.2996838066792415 6.7801916856348745
Sn 9.53879329629373 1.9047154262163648 4.857830548004686
Sn 9.183610281638492 9.873040033272295 9.618510471357668
Sn 6.642572855781011 4.733495106618752 8.205447169904273
Sn 1.9276775406411137 3.970819717731665 9.102611244259647
