24
Energy = -83.24245414 eV
Sn 10.527051937144616 7.043357096610605 3.660037131434095
Sn 9.117545033579356 5.613350226712125 5.876838436178728
Sn 11.186992546180361 5.563399330478825 10.557846355861336
Sn 11.80539859285528 7.797176148269879 12.488953656985688
Sn 10.659320675302403 8.437587697383865 6.504492437356457
Sn 8.636456599658837 6.399978545534207 8.71729904622415
Sn 7.762710182599274 8.002214920002414 4.206056563061222
Sn 10.08137273942946 10.004174573641196 3.6221002337572163
Sn 9.893056642234107 11.432559808430225 9.177103967790767
Sn 10.415396414614003 8.517236977939087 10.041308740727544
Sn 6.14132178608519 5.991923168924766 5.536723810944478
Sn 9.077256845388826 6.7634272363346915 12.607384994538316
Sn 7.30203990377695 11.175220221149152 4.754715106515683
Sn 8.475196455537187 4.170420059881891 10.966844347154407
Sn 6.915887118088404 11.467933238825307 9.742807395044487
Sn 10.273385551338132 11.803273324683026 6.080746549655697
Sn 5.793405541759963 4.853029823541148 9.45268575140647
Sn 5.634501547299643 7.743264340360698 7.86438339180803
Sn 8.030260503207383 9.666698982037806 7.408656175542597
Sn 7.744386348449135 12.997354333181276 7.156884710215595
Sn 6.186965556930625 5.970797286530648 12.345299630098706
Sn 5.27444942486386 10.862760554236027 7.04379995522707
Sn 7.1410104511659815 8.521656945527528 10.693272619232784
Sn 4.280664672838113 7.387467855974634 10.408046525372777
