21
Energy = -72.28457908 eV
Sn 9.927500999786785 8.178187108463842 7.472001395888535
Sn 9.41729329765051 8.143359826622701 4.489459127629603
Sn 9.604931256167237 5.4601093989484255 6.415225008510333
Sn 9.886464165503105 3.2209791994013237 4.571161979616116
Sn 7.578387630228016 9.868838702195479 6.352810244120035
Sn 7.384722539084978 6.607262148092668 8.360228408988277
Sn 5.916913459434427 5.118317861699898 10.621721563098514
Sn 7.016665258830936 3.4975059300935425 8.316883820199271
Sn 8.1040426840761 5.4156815612902625 3.5249814896869136
Sn 6.443562623110264 11.40166766305088 4.049799679585888
Sn 7.484715542206309 2.0788835052646695 5.678900619764347
Sn 3.5828569262409204 6.985537422767348 9.578197353788763
Sn 5.066805006987117 8.198188018141012 7.3557792961844495
Sn 6.208748899231202 5.438013010960534 5.76062395377881
Sn 6.579611974058294 8.566462272573363 3.4959264529996763
Sn 4.631546179736125 2.8234092955220054 6.283272203943344
Sn 3.828826032814085 3.5921448623007475 9.137586963923095
Sn 4.096096592236563 10.17617878061763 5.38447651929103
Sn 3.969414178199759 7.410687625326821 4.322655108887054
Sn 2.996557771460702 5.691969358709726 7.042187556091613
Sn 2.8849044083915656 4.6390808532544785 4.373519822329218
