27
Energy = -93.12200526 eV
Sn 7.44813224408263 2.54219972716435 7.113869238469414
Sn 5.812663422285334 5.377184415942388 2.4492199541782806
Sn 3.6531218063124893 7.614909575648883 7.966642140875995
Sn 6.16402334080009 4.328042136894407 9.461263281260198
Sn 8.409786426253605 4.786711570170392 0.9564994030035417
Sn 7.952418108315328 8.983092838292292 4.577099204013418
Sn 9.325752324487254 8.31563788418631 7.162017823757825
Sn 5.322563645489194 6.154483326810887 5.697364825326179
Sn 3.039453865680266 10.144107522900422 3.765183268401291
Sn 5.3275778161556095 8.317059098841098 3.581308646379551
Sn 0.9503245207809619 3.5396019372592966 7.117794308881388
Sn 3.5397315719906697 4.506110133107074 7.93931120171585
Sn 5.253367497341796 2.95607923536627 5.1253167242922
Sn 9.732275858510766 3.789963706544768 5.513013024322953
Sn 7.865315799217012 5.687244551135153 7.078270465354164
Sn 6.8210221392104575 10.62139657154744 6.837582497417307
Sn 2.825356374826048 1.3786547475756739 6.052294436055947
Sn 2.4983809000135695 7.668335585842211 5.190691438339972
Sn 3.8764531167824186 10.277135865287695 6.630885046543333
Sn 8.337388640202068 10.24194444494045 9.280221590835945
Sn 2.609336876542477 4.530226039882612 4.841563970268004
Sn 8.837920279323814 5.975342639163671 3.7249495297934403
Sn 4.627450112061053 1.5916498740638292 8.337299496562336
Sn 7.069225227073225 1.437628927562446 9.812207978474872
Sn 6.533364653004875 8.008209659822517 8.723812758197155
Sn 7.705744112326095 7.747423979642421 1.5496502812389967
Sn 7.726238593177665 2.9923995282130513 3.304853376036688
