26
Energy = -90.34302769 eV
Sn 4.74197750141293 4.471960086250272 7.882543691581786
Sn 2.660037468734092 8.980334296718068 5.853470349213032
Sn 11.181856968138401 4.1894096929019 3.5353964458741487
Sn 3.7757562731918752 2.0929989052009605 5.104564030237485
Sn 7.166501156672822 10.848703506793383 6.9342915889536965
Sn 7.778250978682298 8.141022068785855 8.063103146620458
Sn 4.0787491733675045 5.390234970347532 1.5414916645161694
Sn 7.148799650679233 4.874044431418698 1.1975566094681238
Sn 2.83893378986771 6.920574708539515 7.94128090259793
Sn 3.3955941277274007 8.159621915466504 10.5567721465338
Sn 7.178565764511778 1.32539391691121 5.169479578732582
Sn 5.628381287835727 8.568099844773016 5.531783370597744
Sn 8.707470852033602 2.638534959351121 2.652790584040761
Sn 2.2979565468269496 6.548886434144581 3.7920375083293076
Sn 7.20629089714391 5.849523777990001 6.158746871695638
Sn 5.306585639344909 1.5580483013609772 7.683292541424355
Sn 2.14574030925895 3.4497949359223834 2.8302293207271636
Sn 5.74926799005061 6.639311435865066 9.677288231492929
Sn 1.9919147434560711 4.522579849896037 5.965388288488952
Sn 8.692755038979477 5.6801327086548845 3.5796899112771774
Sn 4.765189546937751 5.014191006425789 4.541533781341594
Sn 7.679050357829805 3.4362959408187943 7.920021886809326
Sn 4.29830260397264 11.43824652381 6.071635602563976
Sn 4.8634819538947465 9.688367865204786 8.4941925758151
Sn 9.514714289422455 3.147544496350624 5.648833274421463
Sn 5.389693144098371 2.669520375567467 2.573086953333064
