22
Energy = -76.07172924 eV
Sn 6.911459719600656 0.026625093662021652 4.0987584064624185
Sn 4.085501670780634 4.1765192954840265 1.4759864314897877
Sn 9.317372748843638 6.129056856897931 1.9774717546295506
Sn 5.7229424163906435 2.378607358119374 3.0313934971425134
Sn 2.5394467231459132 2.322873429569666 3.6213465493634787
Sn 6.359726584488216 6.564960522454882 1.8151043591403866
Sn 4.3595294502968045 0.7842118859086376 5.476183286088001
Sn 7.894459679079919 4.925379770008031 4.161427750033346
Sn 7.3306547154980235 2.468560534848571 5.772828848376561
Sn 3.0715194334256983 5.507393185900444 3.89198110342714
Sn 8.63817700543001 8.205596188900532 3.988546125686377
Sn 5.679738333165566 6.9937994960326515 4.6942525309732535
Sn 4.444653503963004 3.8454029478415084 5.915987266725708
Sn 0.9113716347888666 7.039487739472733 5.0089418605174405
Sn 3.5221344334214573 8.725445446123494 5.9320242993240635
Sn 1.3248383444144707 4.175492807200945 6.1838019496606655
Sn 8.03222874816241 6.43121335783943 6.780266252690243
Sn 5.043027895271433 7.085557197504893 8.048701948906519
Sn 6.405183252468289 4.24370611177178 8.27798192398178
Sn 7.09890872801105 9.279121981297271 6.2087087024106555
Sn 3.257629259191631 4.368143708923871 8.683253073227084
Sn 1.9088640219271027 6.955381563958707 7.81462097876746
