23
Energy = -80.27363015 eV
Sn 10.838401168186538 3.621277477774021 7.144024185076505
Sn 11.867472944039879 6.349130615731952 7.620398077121357
Sn 10.056078015345829 5.747263637003293 4.935816597607082
Sn 8.0465434269597 4.28918636060553 7.042719777126337
Sn 9.789951006132997 5.224322445805062 9.691268008291033
Sn 7.8959809867106285 7.398791895355874 6.401040303859897
Sn 10.571142663683217 8.643359929366333 6.110237695485341
Sn 7.030765737489066 6.470660314904162 9.135563608578465
Sn 10.173222733594248 8.282014176431243 9.271977946248061
Sn 5.844369156379944 8.192103715337966 4.312239765334283
Sn 8.085532146076163 10.128291640000862 4.740603912348489
Sn 6.311978534412051 2.5826338857432245 5.260569618426842
Sn 6.776756916417913 5.404418572872449 3.981106388022899
Sn 7.426807661538496 9.611531270894478 9.548271065855698
Sn 3.8694898007599123 4.654918944259024 4.9974530678831135
Sn 6.573664798866228 10.964520329771217 7.1215497044324785
Sn 5.081481366396161 3.9702313138094785 7.921792718489953
Sn 4.782073202768305 6.985434327869901 6.803488222552633
Sn 3.5820841121695373 2.064244033257266 6.300195824113876
Sn 4.581959514950743 12.58205792001594 8.673045139847703
Sn 7.52201273205101 12.648861666863253 9.529450201950606
Sn 4.476032436365089 9.48780221305732 8.746885323835892
Sn 5.429262251885871 11.118434906318239 11.209521136187348
