27
Energy = -94.33994184 eV
Sn 11.866498338958468 7.218234429018248 7.330159231373432
Sn 9.700990224548548 6.016549461599036 5.003258133591126
Sn 10.852450176992667 8.819690672524656 4.329467358492067
Sn 10.550972344556785 5.984984583859728 10.156299620902306
Sn 11.999272598992313 10.303289285938966 6.767513254872342
Sn 9.135960784585016 8.570160107739708 6.976280176958062
Sn 10.688768288820466 4.378800534267304 7.534073348022357
Sn 7.8238577423610405 5.654421093060383 11.671131737667222
Sn 6.80944916719358 6.585989292214542 6.078118353039618
Sn 9.165101058247759 11.094310939641318 5.135120356975662
Sn 8.051589161067797 3.6337512147333197 6.083926082988159
Sn 11.365851335002173 9.268778661000432 9.645885724579141
Sn 8.661640502342324 8.372890035207725 11.232015308615848
Sn 6.4581528432211455 9.71698030259517 5.525461040169287
Sn 9.770173171263359 11.896678300235703 8.122375445186272
Sn 5.306691798786121 7.701980062533826 3.6439031423187638
Sn 5.334530532928377 4.5355570593625405 10.40044982131647
Sn 8.207261628819372 3.672490435104575 9.257387834460813
Sn 9.476893853547336 11.157335598254305 11.118050560734023
Sn 5.920055481471759 7.151372071317807 8.909835956552637
Sn 5.403370649041111 3.904680874420127 7.42137774582612
Sn 7.462192314173079 10.04943468885404 8.987609737768222
Sn 3.342996717014642 9.509867568676748 5.260265598680081
Sn 4.867673480041112 10.926590978874032 7.691888775107808
Sn 3.0524179734636427 5.50466942802565 8.610342101819619
Sn 3.128548858374112 8.50062158215687 8.162184049912288
Sn 3.5710287669361382 6.445344665276339 5.7609458043772275
