29
Energy = -101.30970048 eV
Sn 4.7741941455331025 8.049243542697052 3.5840830950626392
Sn 3.4835977939031855 1.817823191699439 4.765771976980457
Sn 5.930817175059922 2.181386732676029 7.772910754316877
Sn 5.288007971680952 10.43476762800764 5.879381953565162
Sn 2.42567531416396 8.411001633719303 5.436960886702357
Sn 5.403376076715372 6.328871549776513 9.1113439113005
Sn 3.822914728367329 4.951834684432618 4.09580687074384
Sn 1.2436555742565758 3.473459328152656 6.052624025398648
Sn 8.081051211680194 7.986098720223812 4.286693311650995
Sn 8.608932572681901 2.6910947290791665 3.369428208955548
Sn 2.5204309613648714 10.910478431027974 6.8900392007732
Sn 10.017708944008726 5.702722765677929 3.797443391921666
Sn 8.494797029937319 7.012866322087984 9.404671584170153
Sn 5.9668104661728405 7.235321982118741 6.332088934098989
Sn 4.118789691534235 4.34740327703433 6.95379685493958
Sn 6.452773378453263 1.1502366823962016 4.993815970195409
Sn 8.784955522647365 8.957600374950633 7.031807366553172
Sn 5.274964766643646 2.7304538282068602 2.5523007457627402
Sn 1.6025866284258252 6.19209972173068 7.410192659874637
Sn 1.0245498083805915 6.0005060703523085 4.2696335553082045
Sn 6.193265205513237 9.379456827110955 8.621624525059016
Sn 8.215493859760498 4.2074094729182745 8.441115925979716
Sn 3.125124143549601 8.507476144341778 8.665811471857008
Sn 7.107473622559491 4.255740883185364 5.573181334531582
Sn 6.626343364823003 10.37740665045903 3.2798996306846595
Sn 10.457889826169922 6.441433913173615 6.9528590504280645
Sn 6.924476691877846 5.449118204583945 2.728031319964759
Sn 10.164489419175213 3.509321020338963 5.873044376127971
Sn 11.161442945467634 4.070768351757738 8.650155757228523
