22
Energy = -76.45120401 eV
Sn 6.000324727099511 6.2357191421752365 2.573552813112242
Sn 6.488908416045272 6.394480272171652 6.274287774455008
Sn 3.782556419306451 7.454374081740142 4.888781985925409
Sn 2.7524185140510244 5.535466745500751 7.160176415272696
Sn 7.3990821391942 3.3721932467786857 5.541404698923685
Sn 8.394939248493928 7.842767886221516 3.145496918522334
Sn 9.380384537498683 5.791718313280001 5.319261931863645
Sn 3.5873448880282712 7.838986847291467 1.939594989736453
Sn 3.228455281958062 8.453680559578624 7.904111115015444
Sn 7.390491994894506 2.059067690930572 8.335722637842201
Sn 4.609044204114798 4.414477836362594 4.709995454838939
Sn 5.877585447203794 9.390232572892819 2.935480557897835
Sn 10.631266543646005 7.294241988082416 7.658632786125193
Sn 9.584018944236101 6.1028278124498545 10.243071715300703
Sn 5.577233186506187 9.663195392635856 5.958357914096708
Sn 7.024901137249927 4.4997464599934895 10.208692812990499
Sn 5.781496085238336 9.749641003051327 9.002366750508111
Sn 8.48600112412998 8.794530533676213 6.228644456753339
Sn 8.605327390173752 8.831800989578008 9.401170955786666
Sn 9.531280013979883 4.116815375437584 8.026438490085908
Sn 5.4081109859956396 6.690833495893543 9.010330388459852
Sn 4.964806458219662 3.5102128689760237 7.768701965415555
