28
Energy = -97.39775068 eV
Sn 8.06892480538458 7.05907065399398 9.06520604408526
Sn 7.887465454189965 2.333602177746996 3.1005937943619966
Sn 8.95558349398417 4.961943662446953 2.3736796656651804
Sn 1.7551040668624183 6.311772578120718 3.875692537808391
Sn 6.480196270050381 9.840235022486514 9.073536087398386
Sn 6.114460674050742 5.117967906770745 3.5365899469705013
Sn 7.90143887930784 2.3568703521581646 7.0398067774063895
Sn 9.618232163367049 1.0141710576228629 5.097043159578666
Sn 3.019819116463178 9.762441479136191 4.752490528480525
Sn 7.037020700189213 2.8222719242672305 9.879326490943678
Sn 5.4478158721115335 4.985824293524954 8.695780459156156
Sn 8.911709468289128 9.351878249089104 7.401779444840787
Sn 5.01237030190998 7.386412903989821 10.335874179836075
Sn 3.704291323751546 9.445548764433909 7.913490579977874
Sn 2.410903729467124 3.3449142824216818 4.3158620207852625
Sn 5.369471481115135 3.274628207514647 5.72091692897943
Sn 7.672760456593505 5.522680898151438 6.509425166182355
Sn 9.910372286365183 3.9953327208352136 5.06393081044963
Sn 4.721109129872437 7.341535072873356 5.887338821804774
Sn 4.388792841237993 7.695596500859761 2.8472712289696895
Sn 3.4931239158690666 4.879983182026739 1.8016345750699363
Sn 2.90865827770976 5.046611421215804 6.81226702930908
Sn 4.8256906588173205 2.2582447477833 2.787542405207053
Sn 5.984736542448186 10.396278615835488 5.948388405826479
Sn 1.4854077713114389 7.856228104465872 6.526359552077195
Sn 7.4648947362991 7.634012578588983 2.0890324933723643
Sn 7.644731739140482 8.056031940993458 4.989522164365248
Sn 7.286900511898928 5.430783686125849 11.313120086361094
