29
Energy = -101.27612037 eV
Sn 8.050979903688367 4.118906626370832 9.171737079990699
Sn 5.5138190011857455 6.751020134610984 3.924522833844118
Sn 8.388471602935274 3.1032420070220392 4.028110513778285
Sn 6.434390022074978 4.4574779401594675 1.971885293942742
Sn 3.8415816091104644 4.9750719656431475 5.991525598337788
Sn 5.6506009560543085 6.992920387081909 7.452508030197219
Sn 4.004932691401409 9.162310051638784 8.936755780066086
Sn 5.468101155299554 6.973719705086798 10.62340130569814
Sn 7.318056705023143 9.053669435166896 9.095627893045396
Sn 10.99565704614933 5.169157321382434 9.52463421272619
Sn 3.6289342065228243 4.311203624222629 3.0945506455402008
Sn 8.528821619535405 6.588924645310386 10.923352572647907
Sn 8.50621846959637 6.138412409400537 3.4378448164982265
Sn 10.329896823837363 3.2275408859742933 7.202087008119809
Sn 4.366452062035649 4.565074205664134 8.960836851789546
Sn 5.391055712374349 8.936725206431527 1.6604289165099824
Sn 8.404760567859247 8.083485750032676 6.124308495658788
Sn 2.490339498123078 6.708244291489469 9.974998300392986
Sn 3.169194801596084 6.8839932480747885 1.5974904031886268
Sn 7.976285670215502 5.065735551238181 6.3902469483337025
Sn 10.204055024792993 7.989884930859938 8.66113027276819
Sn 5.958421413570609 2.054902948004974 9.015036805391322
Sn 5.678668060101773 1.8291289439764995 3.3417642190386725
Sn 11.004820183759271 6.060603389110284 6.495587032926088
Sn 5.896974153217636 2.8412100366097985 6.117019025989741
Sn 4.120118846275113 11.281718395924317 2.932892663734296
Sn 2.172118047347976 9.585587964039975 1.4223073811959859
Sn 3.234625398540476 8.825508782668084 4.16840903985421
Sn 2.5363355291809793 7.497666461946885 6.873945017207795
