28
Energy = -96.94898111 eV
Sn 4.533770643047643 3.7343617277615024 6.298824652859998
Sn 3.4763499511749374 5.767043741783503 2.273533035616491
Sn 8.557473878591823 5.119421177636154 2.87938246837592
Sn 5.834246002944404 3.796928428835546 2.7659520743913273
Sn 4.477028451078114 4.716308064697811 9.222482886594856
Sn 10.670195921387778 5.335678188672028 6.6022144835492735
Sn 7.172991343717528 4.9145545492402345 5.554513418542545
Sn 6.490729114587562 11.017437444139173 7.03482990868738
Sn 2.5794459840652797 8.358754737595453 3.65036756096354
Sn 5.095922300775621 6.841442561559942 7.145071423809022
Sn 4.897737646236903 6.322685088132784 11.906235369060965
Sn 2.114533949007523 8.105668322761245 6.690570007313773
Sn 6.376490791353096 7.852223498761113 9.974611803079558
Sn 5.897705935840099 7.016797537322306 3.430232164594229
Sn 2.403001162013777 5.534985437102451 5.091682550122801
Sn 11.18458550109445 7.712208998082182 4.984590788470641
Sn 11.88477849336944 6.086948827931371 9.322590695912654
Sn 6.577358591343211 1.9099580580744113 4.931925019998274
Sn 7.064614665084807 4.701469392451569 10.65016824398989
Sn 8.74168934379095 8.153809500390661 3.177624770926747
Sn 4.9249387368944655 9.199311036011018 5.331543277490499
Sn 11.097631758024995 8.539472790977332 7.918318422979643
Sn 8.531481314041987 9.64103148246038 8.865630697384027
Sn 2.761737416191816 7.332984115034144 9.58155376738636
Sn 4.3356538019669255 9.744194379103252 8.622542405063014
Sn 8.293073948503329 7.7732292100062645 6.2872545137198115
Sn 8.978318447722588 6.268132501606784 8.94924263161968
Sn 9.451355545189156 3.1020230261037143 4.89681845768446
