24
Energy = -83.38508695 eV
Sn 5.43181051828264 2.9391019291288734 7.347864526924855
Sn 4.579265742469929 7.796471263897511 7.704428662398032
Sn 6.86792499723024 9.737720832524403 7.784153073113155
Sn 5.105916360363561 4.59691927820362 3.8255181637048006
Sn 7.2606690569666315 2.2250511370187374 2.5522063170461977
Sn 5.748561608948292 0.9413380971236122 5.001898095101026
Sn 1.9052177158920278 3.9313270249205137 4.097158740484011
Sn 3.94308760598775 2.0562608514197773 2.73141796057275
Sn 3.180494197055946 4.797980517841114 6.838315522413229
Sn 7.504156588402957 3.825645235579354 5.354747651940903
Sn 2.6017968485637266 4.067971896892696 0.8148418910644781
Sn 5.276242843484792 5.2263917269512925 9.547847202626635
Sn 2.5050554859609235 6.3195196172855015 9.253313814042537
Sn 5.688721582693623 4.176032650606261 0.7090228032472733
Sn 3.4944241003061056 7.053017858163632 4.6992112865522495
Sn 9.406238857491168 8.009562897769019 8.588237897594961
Sn 6.713399402242504 7.358792815942672 4.143094064490855
Sn 6.8761410637457505 7.79871411705259 10.137153386583273
Sn 8.834288736802986 8.779539071901429 5.725896379464609
Sn 2.9234044081648207 1.7206419680196323 6.015199923245514
Sn 4.4102491796635945 6.6744388698548995 1.645121733797811
Sn 1.442164668681319 6.344941990608708 2.487766891536154
Sn 7.304549438698649 6.444660476992437 7.177778353767007
Sn 8.293498404612407 5.119336653557525 2.7371163191883086
