20
Energy = -69.72850752 eV
Sn 10.616098139440885 7.019358839484953 3.5427828752104107
Sn 9.981169775094449 8.752779838154785 5.890811369653892
Sn 11.807740432806142 8.433330998339377 8.397571374598384
Sn 12.89771834555958 7.2616148160391925 5.6223427243082265
Sn 12.57691311076212 5.414375854837903 8.077280738805765
Sn 8.829389801843956 8.799719158002638 9.853701598158374
Sn 11.241535384467653 4.605489171019249 5.334184773074998
Sn 8.729124984441727 10.80311712545067 7.738112265776127
Sn 6.7712359820621195 8.296207389140742 7.4169971722642645
Sn 9.66905481885466 6.06995672482108 7.567612922653163
Sn 7.302114897510278 7.77180184255412 12.287433158870677
Sn 10.42187506170189 6.278504716151375 10.40832319935903
Sn 8.189682700166937 6.1927731827725365 5.108649490382032
Sn 7.179495352696669 6.1190185913543 9.524968156918046
Sn 7.089818286795023 10.828772384427474 11.49975509434821
Sn 5.020587116484415 8.56908198396882 10.74056852687003
Sn 5.848503904264223 11.110396813658678 8.75930132991861
Sn 3.6977517042963304 8.813555585241362 8.141902651766893
Sn 3.36212867932076 10.994120312318104 10.748554846182687
Sn 3.121392293612157 11.76225833443636 7.9442636659952015
