27
Energy = -93.35898237 eV
Sn 9.917281943736628 10.622632851733641 9.621906076172982
Sn 9.201089115072937 5.802214285808913 10.142408186241799
Sn 9.75166517856495 13.47791271056112 9.674625907670556
Sn 6.837607505031088 4.303510975722439 11.236005276572644
Sn 7.02228247932915 12.018573595639271 9.619308082005372
Sn 7.593843685279329 14.294929181168204 7.759907226348189
Sn 8.860078050910957 2.659389545163666 9.542176205868143
Sn 9.88132750547147 7.846620918440148 8.02875526326069
Sn 10.416349869373724 4.4416908435219 7.595046389106101
Sn 5.7832196328040935 2.6759618198951856 8.885988299282458
Sn 9.091894974586634 11.907286620385694 7.021872421582634
Sn 7.808398699056951 3.0413042217063193 6.597512905451193
Sn 8.478762457638924 8.9755309112339 5.374301622447101
Sn 4.948360834316435 8.022755010364534 9.6746943205119
Sn 7.2698950059444 9.377994757889324 8.295951640181993
Sn 6.661716609798336 5.7182382785054955 8.468391049129071
Sn 9.126030239634291 5.806471237653904 5.205226328195678
Sn 3.5222588956934278 5.317707607020966 8.83728053056922
Sn 6.632570581907159 4.413246853911941 3.673861942201647
Sn 2.3772683522341476 8.176062576354857 8.180833507936594
Sn 6.2214407326933685 6.8058851101161535 5.607302176525323
Sn 4.636617321460244 3.795711679294086 6.175820493741326
Sn 10.182588069084169 7.849151048396599 3.1791296792012624
Sn 4.643569754813399 9.34583740608011 6.654330634366642
Sn 9.196444134032395 5.1477522257314785 2.287602218641983
Sn 3.204146981568447 6.408258394121138 5.869560644346346
Sn 7.149192999248463 7.512255208563561 2.6745559256623985
