29
Energy = -101.05241619 eV
Sn 13.948736257105521 7.975358599822588 4.878964358084973
Sn 13.957803873356017 7.9661964256162285 8.067565728169335
Sn 13.131486777204337 10.506534732770296 6.370866259999006
Sn 11.437290256796622 6.418670769899615 4.315225534462531
Sn 13.598265014205579 5.33843629602395 6.401784400928453
Sn 11.64405485288094 9.664279948796462 9.027887036041601
Sn 9.105774593891262 7.889262171243194 5.450091025109783
Sn 10.174761523628119 10.542458529373729 6.2735726779166425
Sn 7.408466803876669 11.520420243434078 7.559587089143356
Sn 8.835932654697016 4.79982653347627 7.06974403511595
Sn 8.779434380259682 8.885911154278686 8.711124948663382
Sn 9.569671668842402 13.419227919074837 6.350276088303094
Sn 11.078235004108794 6.647642513111855 7.5026351449242945
Sn 5.108514104918961 9.431544309228114 8.850930980462728
Sn 11.201604335241962 3.7534757401783962 5.561826538480684
Sn 11.934478740019118 12.83846250447846 8.281629398849002
Sn 7.864717978583599 11.021927995971197 10.60626748057301
Sn 6.588652528252943 7.167454924152134 7.004834661713517
Sn 10.872401689481686 11.72711013781686 11.006408595759725
Sn 6.19394114710166 4.288084325325862 8.08853261286401
Sn 7.7665820581136575 6.189938889701007 9.936384916866817
Sn 9.047556072869542 13.511059631693536 9.31117344991734
Sn 4.626042339187925 6.359897225178488 9.773466169238029
Sn 6.013919780438893 8.354220499582993 11.627769428401367
Sn 3.4022705430497537 6.384320282172428 12.5389491135366
Sn 3.011808877014779 9.126287668363922 11.085638233849414
Sn 2.447741520148608 7.75961819640331 8.205947519763361
Sn 2.187869552939732 4.7087605537165365 10.01164943748564
Sn 0.8167926398658768 7.141181968852178 10.772294299624383
