22
Energy = -75.70969587 eV
Sn 11.73669429379759 7.695757991434422 6.158506081821482
Sn 11.658741043823387 9.884468361812816 8.293865862837087
Sn 10.013054425807594 2.8852553879819314 10.524729030807393
Sn 10.872031751478506 10.666311697790421 5.466746273704136
Sn 8.96714180972235 8.746928454529142 7.523802862288799
Sn 9.484298901707389 5.527943411731504 6.592045161911633
Sn 7.053010137490694 3.0002407983819093 10.122508815406862
Sn 9.210870166187636 2.68738381686854 7.756674492756118
Sn 8.974726860257755 5.475733623467161 9.624676976495365
Sn 9.115280867777699 8.01871928680872 4.512598731893173
Sn 7.766680858971604 10.841161221718968 5.382538911674293
Sn 6.919174106210454 5.5398391180788495 4.966471772068099
Sn 6.640851628949398 4.545188170816262 7.754477133554042
Sn 6.107215253124963 8.256412889055143 3.9484329643894913
Sn 9.357817789917366 11.770252391810894 7.984780213072048
Sn 6.702244146953499 7.791217243692762 9.420111659990978
Sn 4.204868860516538 6.248758802468215 8.786116800802208
Sn 6.242462219502704 10.295373976087607 10.89371160703614
Sn 6.165638806557008 11.14005026402274 8.06041070400252
Sn 5.269007408038868 8.455537315144056 6.726501321718845
Sn 3.8243568832229022 9.48141135899648 9.331574712051221
Sn 2.392480681754141 8.00031974760616 7.213455864004813
