29
Energy = -101.14623568 eV
Sn 10.813192448933046 8.177178074329987 9.344544668309608
Sn 9.169507918349156 9.718347951190763 7.353341948723681
Sn 6.707227694650276 10.816038437509235 8.694838216603129
Sn 9.039970377707105 6.253929115075667 8.0921423778376
Sn 8.114747854942323 8.771953809339989 10.404497945129325
Sn 6.977026305310978 10.891011264844737 5.1508432633009065
Sn 6.704021928854885 6.139681721410906 10.002542007627738
Sn 6.26924228810113 8.076902273330017 7.521073572176919
Sn 5.136513635979508 13.32005714426178 5.196898597528808
Sn 8.136212183770423 7.776738948271028 5.143631206109534
Sn 4.09520719319059 5.912883182630976 8.19693923286621
Sn 4.197124990115163 10.604826635397579 6.508715288024972
Sn 8.538472668861097 3.5259374893232067 9.321418101420985
Sn 4.219277162151624 11.18321160464241 3.2486199256408614
Sn 6.69766614312168 9.747431314064146 2.24753042790954
Sn 8.599928128218002 4.522086135532738 5.699440924931489
Sn 3.7407173866236607 2.994233303360187 7.317686578444944
Sn 5.508628255510968 3.431133721449151 9.866907432616086
Sn 5.016938950599566 8.36528193213607 4.51121140307018
Sn 6.846240759345216 12.716947136344007 2.7700654838293883
Sn 5.579792704670566 5.160119612300675 5.578411492745626
Sn 6.800404829878761 2.594070940050608 7.094430867134943
Sn 4.589722597362764 2.708365979986222 4.152230696843513
Sn 5.282664516195715 0.05750896756345982 7.013628436761543
Sn 5.785223009815935 14.000205066076694 4.083581327665343
Sn 2.8137621259995997 0.35097078642053603 5.249492622579977
Sn 2.1635976947841855 1.9095844156347899 2.580813743108314
Sn 5.11454288971028 1.4466281289849472 1.5205196294515038
Sn 3.3255642628930895 13.32005714426178 2.452595309583246
