26
Energy = -90.54397336 eV
Sn 3.960030740034974 3.4677673393640114 7.992443005453077
Sn 2.2614658243363315 5.632512967391474 5.347921485511381
Sn 1.2332568155274795 4.863040111124149 8.068981881717384
Sn 5.3773256990775975 8.066843010614397 5.923377103881097
Sn 2.2069902146672886 7.795450627648131 7.539698543000366
Sn 5.170586796225687 4.7988019403526385 5.65976641138058
Sn 9.423726042870122 6.237370450626059 3.782329458283059
Sn 8.313202448754309 1.8587444704767342 7.616389963280612
Sn 7.180879116743361 5.447583069784043 1.6783326663713616
Sn 2.8027953381073774 8.669703904302997 4.500269119928426
Sn 8.760091473999436 4.54399151808331 9.073352159696542
Sn 7.098051683653818 10.73827709142494 4.2369650214593175
Sn 8.63471858893213 3.3399914715816412 3.186368190279176
Sn 9.716366048440557 11.024666455693447 5.49656379275903
Sn 6.470841944548262 2.1954027334054085 5.131201433573222
Sn 4.916999574518418 8.312054633767584 8.956066498670792
Sn 5.415315043971446 0.8464908711086648 7.758397182261743
Sn 1.9104073322608697 6.55922790367357 2.5938426855812526
Sn 10.065359561373977 9.420464408467298 3.133531938938651
Sn 6.401494271850171 2.726707049958729 9.936091622174542
Sn 3.253281344618982 5.982739977596975 9.968981976791582
Sn 8.145257676832106 4.670073960358849 6.135019780329768
Sn 7.281802775509289 8.21673196464297 2.805115655152279
Sn 4.7929460013106455 6.476195186830506 3.1355463086010054
Sn 8.498264973514932 8.343012889637203 5.876491044910918
Sn 6.061668002701182 5.644592842054046 8.48446973831531
