29
Energy = -101.21369008 eV
Sn 9.724692169869671 9.880012193548303 15.263615980529359
Sn 12.139387867749175 10.219947356326944 13.285399892779164
Sn 9.09177928589453 10.083150297172663 12.373724733844929
Sn 10.860919201502105 7.452780635247521 13.957186951536439
Sn 6.390727830748516 11.238414207660266 7.801788192936653
Sn 8.85834807799273 7.281889173777405 10.902470320175595
Sn 13.459371472870226 7.432228622209066 12.604511641734998
Sn 7.959677118077042 7.6041610840947635 13.796434409262028
Sn 8.937960074440461 10.092014230561613 9.244415554291914
Sn 3.3222255136283056 11.763195162155966 7.349396783753094
Sn 11.60309212085445 8.969166865395376 10.556817163377948
Sn 6.801127163976546 11.49792589412558 4.7984626096238525
Sn 6.778649884407268 8.645859422193707 3.8017071583778477
Sn 8.662453480098934 9.282292168684275 6.294089921671882
Sn 3.7640250348755857 11.600667085444064 4.29561113151894
Sn 10.707522478624155 7.133317621401394 5.319068507062655
Sn 12.599374108053508 6.86706366420962 7.8522730555379106
Sn 1.2120627788621885 12.714053445752953 5.633840318663254
Sn 4.881176188341262 9.201440856937245 6.060773738918265
Sn 6.680713279838586 8.06488983330875 8.511532989517768
Sn 11.560901045026936 5.854642504357619 10.946932574856111
Sn 12.50864792463661 3.8377150297621645 8.83565412320137
Sn 12.278212786508387 4.4757711507442375 5.869080897552054
Sn 7.355126830480819 6.537880793849184 5.940120919533957
Sn 1.8552645473012728 9.52469233787404 5.872968690004617
Sn 1.2233524062649141 10.831153951491633 3.244696316289993
Sn 9.334136927346876 4.350440455083538 4.945929323168337
Sn 9.851189655428474 5.497756495694645 7.945428249332274
Sn 10.263824196206626 2.564924378678773 7.261716064190745
