29
Energy = -99.86384502 eV
Sn 15.595184157503377 8.972812567749852 5.800899987289768
Sn 15.065255847478666 7.708359711361008 8.500815281222806
Sn 13.818307034529415 10.65976220151162 7.239121404482283
Sn 12.948465127006394 7.537443239282724 5.943965493077526
Sn 13.51427988249774 5.273598669536958 7.703647014076825
Sn 13.142459306557644 12.441056115010435 9.492331631443736
Sn 12.153062331990908 7.919755355862519 9.084350115259227
Sn 10.36247934867447 9.137600751580685 6.725021772133724
Sn 10.827702399862073 10.631773831758549 9.591195854410621
Sn 11.215187902071703 12.026135960105945 6.772193382644304
Sn 10.782230985641077 14.125095984723593 8.781716036331307
Sn 7.175155513338552 14.121800555030674 12.261231285286364
Sn 8.60735776825608 12.548993884365474 10.21249420749493
Sn 6.166970744032296 12.503838089505557 14.618213963315844
Sn 4.742548599169454 12.200557758264258 12.14607561364363
Sn 10.925562320903838 5.233260907941156 9.702688399854988
Sn 12.234647689065001 2.9445435772373965 8.83724524417246
Sn 5.676559801341688 13.717882400800804 9.56119182606372
Sn 7.848557598376878 10.946276807386534 12.742396602277257
Sn 6.73155466583696 11.03815208453899 8.241831619384309
Sn 8.398173912427557 8.63709977081419 9.269011959933314
Sn 3.9333026448125454 11.088262552275348 9.454360349477172
Sn 9.283694582111265 6.938018912244589 11.521573352699216
Sn 5.883113443798034 9.430409831740787 10.95585901963374
Sn 7.735997813401344 7.385194607655118 6.54393835621104
Sn 6.261707699892142 6.484217923092147 11.407499801920482
Sn 7.834493594905702 5.4230909112744365 8.764539468989659
Sn 5.316323291962672 7.509600278168966 8.296203236068056
Sn 4.972158400727953 4.792642374488447 9.30038964236375
