29
Energy = -99.67802916 eV
Sn 13.937544288307464 13.0785992643415 4.554850673657062
Sn 13.283806390125246 10.251267005834654 4.077299678359782
Sn 11.378671980576838 12.394231967462275 2.7935987399999482
Sn 12.181288109624477 9.518501840975944 6.816869315447223
Sn 11.471183213023549 12.447961756586116 5.846295810414489
Sn 10.286803106190922 4.619431746473633 8.618522269888214
Sn 9.699503206970327 4.075334801040959 5.512236730248557
Sn 9.500891777312143 1.982208319235926 7.50657097692205
Sn 9.40715360100644 11.111025991699435 7.670939864521672
Sn 10.45425533811009 8.734414846491468 9.213913197079187
Sn 7.971388297797873 8.768353995495309 11.032638328327643
Sn 10.246605502797713 10.131923526956342 4.217179155322162
Sn 7.024446358034971 5.341222819078582 5.480025959385384
Sn 8.03327963487777 6.5518289564343 8.829314556097756
Sn 10.894885517032101 6.615795937656097 6.4697110119946455
Sn 8.589376576058841 8.56326250594929 6.26212011468921
Sn 6.652621933464898 2.7579084930125854 7.047866803434404
Sn 5.523630452514757 4.8597353069927145 8.785372303065689
Sn 4.527591150754539 3.5970312778140126 5.031937366806961
Sn 5.700290819614527 7.809312552658721 7.232032764862256
Sn 4.877033054128711 6.783053724496886 4.334289959270897
Sn 3.4287464417094613 5.765248103702649 6.8438585680097965
Sn 6.539766707064596 6.134719948927012 11.69763211041994
Sn 5.145832380401141 8.842662019673408 10.326385737132068
Sn 4.330618606768168 7.723810028062243 13.23137394123567
Sn 3.525143206092276 6.126775225635534 10.643339865627969
Sn 2.916500820652208 10.04593747886843 11.985292665661312
Sn 1.317234527983894 7.549623830007386 11.969800205285983
Sn 2.3778263995111377 8.526972883396692 9.13668336638028
