22
Energy = -76.82564906 eV
Sn 9.055308427846235 8.430772195955397 11.325144478769968
Sn 11.546120664020554 5.851971758313948 5.759492240511759
Sn 8.845644580789786 6.300876216159654 4.150535182944538
Sn 6.373395892698074 4.316570479692848 8.022343785371179
Sn 11.156505941723143 8.459323982938352 4.059377137238089
Sn 7.3554518939938465 6.590552032361786 12.947879471328143
Sn 6.152515699692775 9.39986864164934 12.482207597926077
Sn 8.975780653079518 5.337307881848813 7.143929404264313
Sn 12.565739403249184 8.485445073141175 6.831810832189249
Sn 10.287155672950515 7.741526150412549 8.517544535098153
Sn 6.317279123443121 4.610475725025888 4.8534350807638305
Sn 4.457846901386868 6.816655359889595 12.188747607013484
Sn 8.223835327464078 9.418655453759675 3.9878587876639955
Sn 10.055085444139392 10.23643340236315 6.424355802521146
Sn 6.564413556208466 6.749232190159376 9.969456547997906
Sn 4.155659976938297 8.758285305378864 9.95016801741124
Sn 7.830215283617791 8.011798496496505 6.641156235235452
Sn 5.555155535168612 7.38785921144815 4.006990162337722
Sn 4.397200711873432 6.186780571670191 6.6370038017335915
Sn 7.00295156395905 9.732848732417791 9.546369082054253
Sn 7.21345116156484 11.252741579082565 7.002475139031018
Sn 5.058928524491854 9.06737414590798 6.6922240489638884
