28
Energy = -97.88541271 eV
Sn 10.163016282499338 4.790870738322025 6.839839120957947
Sn 8.965897374372561 9.464622212034746 4.440653703068983
Sn 4.345238079757902 11.866783572498282 8.545001461392513
Sn 10.435351252063782 7.8888171674305845 6.648607533288254
Sn 8.38134736847576 1.8316930089633523 6.418813801455854
Sn 6.7072059026394015 2.410070196785427 3.488821713884695
Sn 5.53019366869484 0.8325215700149585 5.8653525456694675
Sn 5.826755462269244 7.057500229934685 9.896167512496021
Sn 3.3674718882177808 2.9270952610220378 4.752006006873239
Sn 3.6728039235098504 8.942671939290106 8.591559183182119
Sn 6.009502937003006 10.294527112845346 3.941918502729929
Sn 2.8387909653288443 6.040326215449826 4.753427627603028
Sn 3.6982235539028983 10.626044081006697 5.854298020063117
Sn 6.888291054504899 4.585530823967688 7.681610893847462
Sn 4.067572351314678 5.717432371869415 7.8436423290377535
Sn 4.864364410712353 4.840170743454768 2.8197760830339402
Sn 9.789831911896709 6.436704605575386 3.9858963846005597
Sn 6.843123115178899 7.552749623658743 2.9244294462121823
Sn 7.453230518133559 8.447886503395248 7.043583839829394
Sn 9.636087207148574 3.363485545386397 4.0550606764518
Sn 1.6460977792772473 4.396706823633087 7.0179948476456495
Sn 8.769602735663977 6.495464628279523 9.049735400312306
Sn 6.775364565903095 11.50181275783302 6.688060050912296
Sn 3.42190284509938 1.9457980757041642 7.657028812456656
Sn 6.438444308055891 1.8632080755953693 8.649325484775158
Sn 6.596271453136406 10.007529637397633 9.50504638293294
Sn 4.959594039920367 7.857540181744503 5.646326029366139
Sn 7.163691657803191 5.12322815148211 4.843876278923655
