29
Energy = -101.57286811 eV
Sn 13.991320424194278 10.263948480755847 8.56449055716922
Sn 11.51121331897435 11.927948005264938 7.870286647747306
Sn 12.861517554547468 9.946390465625988 5.701066513034884
Sn 12.348261609475653 7.863734779376022 9.717618005850198
Sn 13.999275993430995 7.504111140480443 7.203253106042224
Sn 11.592486969660447 10.610386097584936 10.59857958644865
Sn 9.83943684210246 10.213470958596996 6.026421516397631
Sn 4.96562150458004 10.486155084321387 4.090724067262875
Sn 8.088907959886173 9.875268751116298 3.675110700785754
Sn 9.5027303455999 9.358462858934647 8.877649534383423
Sn 6.568435222000051 11.545657932778571 6.516306074385132
Sn 11.105212581273381 7.443000125737628 6.599020555658586
Sn 8.698654573361036 7.150114516327539 4.811394549562275
Sn 7.297694061528629 6.8964541637032495 10.305724712441393
Sn 9.900744991475195 6.04903462523812 9.031258333704853
Sn 6.25193191646859 8.441063635501932 5.972371116547619
Sn 3.1886286429044572 8.482664622426809 5.595728212992285
Sn 6.325164126358365 9.349400922878045 8.855174318138742
Sn 3.3686065450762923 11.563556274950116 6.449561168705346
Sn 4.819800645848769 11.853142085869138 9.128550102409504
Sn 7.457660345185378 5.407299390571937 7.323948486071812
Sn 4.425410816164253 6.879771712262876 8.027129321104727
Sn 6.922794802361082 2.2627508344419707 8.143663382800625
Sn 5.763767402322386 4.3422439178382355 10.057482061642679
Sn 3.0299376857427687 9.4282807299191 8.641177938031943
Sn 4.793940384451093 4.150682284134733 6.709825025177883
Sn 6.003143467516328 1.6601021834586183 11.116689553917753
Sn 5.133345693868385 0.03675784530647083 8.81843926222293
Sn 3.622485980585739 2.5497100340879033 9.06414672435728
