27
Energy = -93.43525371 eV
Sn 11.431217437287286 5.653770004235457 9.816983923727648
Sn 10.526564873878026 10.12360195312136 4.227409589089315
Sn 11.607452356894784 12.149172378500461 6.2823439454467715
Sn 11.740383033285198 3.5918027078082733 7.6794608924427
Sn 9.567949844204538 7.270886288031397 5.5670240350898
Sn 8.808241532487509 12.58607386390112 5.00421964881679
Sn 9.119711178707215 8.682092946970496 11.413795675357587
Sn 9.266663067678675 7.422106337651641 8.632875056105624
Sn 8.448971344260531 11.521750231187058 10.638353002369051
Sn 8.92325963080632 4.380123279487869 7.8419407191991235
Sn 10.218788806753624 2.6748688122174546 10.046759099983284
Sn 9.580301848286338 10.202722856010007 7.214381366819699
Sn 7.484453480137362 9.802306021788585 4.786422373810323
Sn 6.672131721754501 7.180864592885898 6.411898294021158
Sn 6.313620706291176 10.131331346818882 12.055327734993485
Sn 8.526186981987872 4.98934204576354 10.749462051417698
Sn 6.7698820276774 11.5326171445148 7.268192877304161
Sn 9.289314557749593 13.186997523494991 8.063922988307386
Sn 3.820089914850266 7.898413511811104 5.714040949276501
Sn 5.055800500767126 6.569761413309332 9.000851198039959
Sn 6.649463201603916 9.148658504961176 9.29474915150903
Sn 6.432981387577978 7.035927649962185 11.71899708561183
Sn 7.829954259259765 4.622664793151265 4.862690198366632
Sn 4.9266047819377325 5.465038058692894 4.27334525716064
Sn 2.341535305984331 7.225750302960806 8.187746847580035
Sn 5.811470916532124 4.159749684130029 7.095182902581152
Sn 2.901469733381603 4.922652740017295 6.334965502353324
