25
Energy = -87.48592164 eV
Sn 5.79208015345377 6.796675077651818 2.9573144441798767
Sn 8.817499756839846 7.7002987054028775 3.2034305371030456
Sn 8.025009896331976 4.716088423261469 3.5890268318033396
Sn 4.213002368614619 8.749351716702447 5.205515700070583
Sn 10.68478353453103 5.609094582772173 4.879251840300344
Sn 7.163136964059674 6.493850039911778 6.075184833867599
Sn 6.4305716351548865 9.812764560435543 3.302989269585288
Sn 5.960532504536546 11.21381836539589 6.012371559157123
Sn 4.218038429877678 5.613063316520086 5.244102019261354
Sn 11.129053988977308 8.641855194463941 5.312417813815015
Sn 9.035073501608306 4.119125158497747 6.942383263813663
Sn 8.247180150546546 9.317578779099502 5.887570881287346
Sn 6.23273145086361 3.368381193163831 5.938266245999513
Sn 10.430411720570369 9.638419180146375 8.086035517304412
Sn 5.539410987322219 4.614728315034472 8.604435319137764
Sn 10.819958264758231 6.6633488995981764 7.897921558934945
Sn 7.380118781071512 10.523200333983432 8.791063559444668
Sn 3.4532784728400365 6.898431319014042 8.04731595772617
Sn 8.468093953813513 5.317081138042042 9.756713145954228
Sn 6.168646795336218 7.627479900756915 9.328127937102504
Sn 4.012114413610334 6.089142918566741 11.067504301927023
Sn 4.322658650435784 9.86029307746563 8.226434743526294
Sn 8.999923846674418 8.218502549219005 10.391524684310491
Sn 6.3558899820902 3.9815775069930335 11.429522297771776
Sn 6.5651900316261536 6.880239983445139 12.287965972159414
