21
Energy = -72.14754621 eV
Sn 9.034952672114253 1.9759006755306274 7.256860087005485
Sn 9.328809973768786 4.747961600430284 7.13906961160259
Sn 9.663323279784885 5.708441300616692 4.207099021115455
Sn 9.728514615746183 8.456009840234751 3.967802545039127
Sn 6.568089192251396 3.432690167750514 8.448070234068753
Sn 8.674410865064694 2.9354441873876644 4.449475571242205
Sn 6.3164076984698285 4.649151016655405 3.839440755229887
Sn 8.850527685175035 7.60791686209949 6.778704991566232
Sn 7.283300292482534 7.206190637388366 2.533219238550011
Sn 6.282716084567897 6.059674922354063 6.647579197195231
Sn 4.383987562437499 5.9466614238882585 9.099507013482851
Sn 4.343562186484925 3.6395184666644096 6.502469369547503
Sn 4.7848937891941725 8.568045407463888 7.421906288372012
Sn 3.8795114121747525 2.8834932281294594 3.5671916542181292
Sn 3.754328132854065 5.811077474712091 2.265800262605986
Sn 1.3820841519971967 4.068211839196456 2.4400634659524565
Sn 4.96705700937576 7.659033392354532 4.320507442559621
Sn 2.0266015448874493 7.730659976816851 8.291108931607429
Sn 1.9255912813443743 5.338908019398816 4.929906217832093
Sn 1.9033613252235917 4.705463942284053 7.820707498160965
Sn 2.3237167334836353 8.302555629154392 5.3312468016392724
