21
Energy = -72.98281372 eV
Sn 3.949263998037444 5.839675872217631 2.1807769935036463
Sn 4.724749065736812 6.387607136965167 7.342473668965397
Sn 5.879127761552313 9.619325336710572 8.421849628009497
Sn 7.220189238273125 2.2918276204829353 4.466545260241558
Sn 5.566097544861718 7.627520654965759 4.021748211587231
Sn 6.143800232797172 10.204020659739115 5.589161669708705
Sn 7.882080824507078 3.019711933466638 7.5700206475551814
Sn 3.468208713573807 8.850752515555913 6.439969894205378
Sn 8.867470961823795 4.488879947210422 2.811024117562681
Sn 5.983138073740074 3.584878440383991 1.87535364195053
Sn 8.676420779087396 7.419575389299677 3.7499558778858257
Sn 4.793868228853797 4.407833456774758 4.670818596346363
Sn 3.451277034339862 8.349501217193708 9.49812363818773
Sn 7.471008757034229 5.341949976439831 5.512569066422052
Sn 6.877054085465464 6.458578637347912 1.3566680789097902
Sn 7.4576526430682035 5.962237157540516 8.526488421765269
Sn 2.9290413853573996 3.8220256098693826 6.9238508697238395
Sn 5.149213164617356 1.7692136586638256 6.774331237542663
Sn 8.367356110181053 8.340251710832876 6.767602344335788
Sn 5.236930741569241 3.8162359514056856 9.160381418414595
Sn 2.665268860246712 5.5204776937107045 9.569208837748548
