23
Energy = -79.85016724 eV
Sn 3.673564565081729 1.808941766118547 4.7013590665812535
Sn 7.3491075588864305 4.215372758242934 1.9355346264632793
Sn 3.258531268829623 5.74610857851961 4.881366517887282
Sn 0.6998944229372889 5.677356462195287 6.285663702918074
Sn 1.9831807312274221 3.037201334012331 7.0454424172435415
Sn 5.0961825554783236 7.026623850758229 2.68927115341249
Sn 6.938972495007316 3.9895675931320027 9.097466025180367
Sn 7.462273926938344 6.910354342907342 8.070591100047093
Sn 5.014316442913289 3.996505789106588 6.522924480576222
Sn 3.9013354952551476 3.3437149762975764 9.37750062206943
Sn 8.429949679587798 9.320893217857842 6.372391025520382
Sn 9.816154870594804 8.123988447650554 4.046995797036287
Sn 6.573559908836195 2.3395208115724224 4.332880795772442
Sn 8.021859720291761 7.3141671067580045 1.7279454542271153
Sn 4.3832849610775915 3.9521117812345548 2.6700638396039347
Sn 6.858176245644751 9.67803009728595 3.7904694520381605
Sn 2.2549738980940695 5.8940322012664 8.774724196164106
Sn 7.082118566605123 6.781312557945404 4.967095709748675
Sn 3.962893410781015 9.020143993092173 4.80239414597641
Sn 4.993441493564399 6.2877495396608065 10.002568830419065
Sn 4.54920622398186 7.370915587048421 7.204639665710091
Sn 8.134528770203405 4.154089900518553 6.23944392465315
Sn 9.586635598361205 5.17670164097484 3.786337581380923
