29
Energy = -101.48072715 eV
Sn 7.460710315671151 2.2592256936942405 6.919000937429679
Sn 6.867486302897333 2.5161936639608533 3.872494921423517
Sn 2.182165006433237 8.597631839828841 8.83732879899292
Sn 5.938883069180838 4.992178492708149 5.571817227151976
Sn 8.73914031644168 7.773521584355342 8.909108091528493
Sn 10.131041301616614 3.749241308200084 7.312033844031229
Sn 5.149689225701757 1.3104904666887345 8.465184929596608
Sn 8.10117378899255 5.267132404583176 3.4930302181120987
Sn 4.399338250754449 7.24313765593161 1.067207983509014
Sn 2.506055001303817 9.72136412071269 6.053683180183529
Sn 4.514596883118249 10.710938937165977 8.231281534635022
Sn 3.6458225345603763 6.104733568539437 9.849801892171275
Sn 3.646117397678089 5.36005201579189 3.7325651939177815
Sn 5.633695870773236 3.8809064426589357 10.056146376178013
Sn 4.219285418770387 2.3166852181899413 5.585559954515906
Sn 10.85711626439116 4.615255589961749 4.467585589753244
Sn 7.432875374816684 7.153922877897606 1.2297706296598907
Sn 7.516808833440702 5.138069933787745 8.086113733317223
Sn 5.741226663197174 8.304051372475952 9.80316560481255
Sn 5.977754403014348 9.7308182492728 2.0926444175069823
Sn 4.807677954501629 7.612994791909472 7.014182392920339
Sn 5.646645632229208 4.528231453874642 1.5004041757214188
Sn 3.09970114927108 3.5967107706815455 8.113684887099282
Sn 7.046601509120266 8.164257612120354 4.460121708007068
Sn 4.035690505816176 8.412265001243359 3.9090939451276254
Sn 9.413294334880993 6.689904634328497 6.142179384163701
Sn 9.68731318746651 1.805193588121224 4.952486350012926
Sn 7.095261692941071 9.613492679481629 7.120238137543561
Sn 2.241806278891721 6.2730897439265805 6.681759281348653
