23
Energy = -79.90649687 eV
Sn 2.2060608112794675 4.794045990575843 4.420332948129398
Sn 8.12344603030875 4.4068252821520915 4.1682494669364
Sn 5.8067322551662235 4.873356010430116 9.569370675710374
Sn 4.23046703131703 4.822766389746548 1.7414720723350852
Sn 4.769993235125167 7.874877039544564 9.02069737301677
Sn 4.389689661198204 8.354642225573757 6.060150434884265
Sn 8.530158418353253 5.076091853395503 7.974100540711649
Sn 5.501381499752358 7.041973542443076 3.377107000320685
Sn 8.425603681464493 7.437174330064414 5.8257360639512905
Sn 5.8447947123321145 5.824786028760118 6.565909275565063
Sn 6.547532240921593 1.3928033217364866 5.83471853487074
Sn 6.745787001853145 9.717094542183775 4.6349558579821855
Sn 9.280010479406151 2.7159626854592815 6.378006504134157
Sn 9.936519139908407 7.731690447318584 8.277448170389865
Sn 4.357317922573713 3.1093716074693463 7.320773990737709
Sn 8.398369898696444 7.213982222472587 2.9460109940649493
Sn 7.4984347853022015 7.407589592487532 10.075657531221687
Sn 1.6242861037373808 7.496225344276548 5.426275546800559
Sn 2.529646884873951 7.423692230179058 2.622703292487021
Sn 7.045251728690045 2.1413814131447197 8.619821286476279
Sn 1.3118010826594013 4.878807849623382 1.6423612191809382
Sn 7.106829794086682 9.53750666077038 7.7546974303787675
Sn 5.269187975572097 3.7678451054156437 4.428354268680682
