24
Energy = -83.31758043 eV
Sn 5.698576002340099 1.0944201773610038 6.949741846949107
Sn 8.791193634365111 4.599066601698345 4.355409863605022
Sn 3.502183606462722 5.575061755097655 8.760097749754875
Sn 4.568547047317637 6.17885878300542 3.6718103370876243
Sn 4.408886400085588 9.10999962056461 3.800215103801742
Sn 2.8499401746021595 7.389822803667308 6.024386458178443
Sn 4.889712509166328 8.514283144513799 8.26729075797935
Sn 6.886440476412168 10.770635243416004 2.7481469334606774
Sn 3.9212268560980483 7.626787685827724 10.929900026515794
Sn 6.309172982875897 6.167599314303349 10.292229581132737
Sn 6.35065879195732 2.8202123109399357 4.345113651198743
Sn 8.373155435214375 4.697376443934999 7.340631509009414
Sn 4.3589896163308 12.020932594257934 3.689225631904585
Sn 9.067252905760778 6.784906632881321 9.303874409855188
Sn 6.478720885369902 10.720947950216017 5.722369579121145
Sn 8.640970132462856 1.8401374342033008 6.370272774705686
Sn 7.302780422450972 7.906685579275407 4.109842981814931
Sn 3.475217070165093 10.53765269941851 6.381310393733631
Sn 3.909267382601026 3.2666753390444945 5.846573134725243
Sn 5.647296194798089 5.83333897112795 6.369868615731023
Sn 7.573283812795972 8.118767893121749 7.1563942756770915
Sn 11.008221522433848 2.523213189043887 4.685515585926003
Sn 5.8744419395466645 3.616498828940296 8.573715310249863
Sn 8.709243679357416 1.5309846268179865 3.2611734172888345
