27
Energy = -93.86630461 eV
Sn 10.16522554504649 8.369845689889646 6.085373864800847
Sn 9.45287152846113 10.139321249025414 8.306502949344068
Sn 9.729358341796225 7.336048821253608 9.085349214014997
Sn 10.200189431009425 4.159231104172422 4.52253243352546
Sn 11.35230529363063 5.739302528115197 6.929259378987849
Sn 7.596990975073824 7.801450848220036 4.489702801007145
Sn 6.743787649142062 10.591943199788876 3.5576701403802824
Sn 7.781876249152665 5.274875653479546 2.922029381442652
Sn 6.878526493583625 9.515119042864246 6.909734814864
Sn 8.171030305097734 5.838509624205686 6.769420868167444
Sn 6.440918974636228 12.302606392514873 5.916765610703502
Sn 9.563752777429595 1.3366187965165963 5.29111769285369
Sn 7.238122558251454 3.1047238319029495 5.034897863595065
Sn 8.034475429981237 4.938137154888175 9.887496651856969
Sn 9.587566196532007 3.2283372022981505 7.521940331039395
Sn 5.635011156160567 6.209379338945228 11.492719577080354
Sn 4.838858963571971 6.208027720975161 3.6761558725350016
Sn 4.362617163414184 9.095173365056368 2.6646365993933254
Sn 5.1273723852821345 4.869280315874214 6.486142970393664
Sn 4.223243841155045 8.170025255631682 5.931035762626554
Sn 3.972485667872953 10.976969917690685 4.962587032676314
Sn 5.25326490885731 3.7695153662664707 9.489185457395276
Sn 5.624921396206997 7.030373969548958 8.717126837152527
Sn 2.9159310938051446 5.527758013296437 10.514782773819592
Sn 2.2522685843395567 5.437334594712897 5.243521942188355
Sn 2.5434407257841314 3.876456238523489 7.799071898081494
Sn 2.273800545847693 6.990312203618514 7.859822389662975
