21
Energy = -73.36228986 eV
Sn 11.864301074511076 9.046692786287641 10.367921425168129
Sn 12.410013297115658 6.55265088461463 8.842458672857084
Sn 11.903227191034325 6.279859600622211 11.910453310793361
Sn 9.744970685900451 7.9854882679926495 8.32303385708957
Sn 10.449864384032633 8.877143524832494 12.949201770683697
Sn 7.574630607705885 7.926933487095617 4.8031425825991185
Sn 5.819049598380291 10.287779149063663 4.533863032461787
Sn 10.233396742934714 6.953887702821335 5.6197789116644605
Sn 9.93056641399985 5.167365305527004 9.765109719729208
Sn 8.719303408625938 6.52596037582821 12.40852032398056
Sn 7.19092003709976 6.715558148825431 9.854575089463081
Sn 8.43100326092263 9.351911074657759 10.7165122009777
Sn 2.9254454913017103 9.40085148987629 5.546553701276838
Sn 3.5562076968770264 9.822908950028822 2.5939722521306146
Sn 8.28554242621824 5.28116047102095 7.148188799966853
Sn 5.417942290354138 5.724774112341181 4.724645282035088
Sn 2.876518286910081 6.521563212796829 6.359079640203594
Sn 5.4660441765780385 8.204404598570248 7.003947427926896
Sn 5.361747586878977 5.114539851332084 7.798909726544877
Sn 5.845102470433415 7.837505359032359 2.375504231626023
Sn 2.8949703372542994 7.005992002756324 3.3658023723898314
