25
Energy = -86.82433244 eV
Sn 8.516918472620548 7.52377973912108 2.3902119286858348
Sn 6.854618374742234 7.869904483365947 4.859548695495635
Sn 7.4452383980912575 4.9873110047885385 3.909332095268298
Sn 3.694785940411566 6.351571574364704 4.1601044756351975
Sn 10.823295386973905 6.2081060262569165 3.6523442439886096
Sn 4.399390426741347 9.573721061286339 4.7536194039124755
Sn 9.84097639692566 9.134915731832645 4.832712335209807
Sn 5.371172519363763 10.475908511843873 7.532042755168839
Sn 5.633303589958233 5.3527537285702325 6.34223210095305
Sn 9.698453607881868 4.25467418513898 5.7613159878607805
Sn 1.6254659065005472 8.602455166994785 4.703667122177708
Sn 6.525452452914113 3.5711317645067178 8.673917539681433
Sn 12.642079535644802 4.670563202085112 5.3663349387558785
Sn 0.8337907428157171 5.695660821610484 5.24658854421656
Sn 3.612722032930595 4.280970850204086 9.331988726773925
Sn 2.7144396167544165 9.20045976112385 7.4668727954917085
Sn 2.9648856563511248 3.941775071794401 6.311694590659291
Sn 8.079947009137921 8.986512164215343 7.366590428961059
Sn 5.01721485628538 7.431482865230969 8.2476360515862
Sn 8.489452218389426 4.873493516042718 10.567846050902386
Sn 1.8172333008291253 6.317769633323087 8.103589000947474
Sn 11.115222627748446 4.686700435817863 8.400222155256076
Sn 8.449475866421608 6.117657775997226 7.862447625871665
Sn 11.28821786654769 7.119414866783721 6.584337390240745
Sn 5.705495349572943 5.930554210254961 10.732051168853596
