25
Energy = -86.87458903 eV
Sn 6.008750743800063 9.973665336109692 4.238642931513935
Sn 4.613284618075938 4.8153071362712625 4.323188330993211
Sn 9.35260993688603 5.725341675904674 5.7327380535431836
Sn 10.686250005666285 8.54846492937757 5.02789028342047
Sn 2.4287235511583884 3.8273338348912915 6.041464656346711
Sn 7.376965425655776 3.6098206531166426 5.028995002275579
Sn 7.76944065726095 8.40467783813484 6.028109101795999
Sn 1.5408410071307657 6.6099378499869115 5.5643703762747245
Sn 12.279671768400046 5.962491009653442 5.501445313397517
Sn 5.540423385647456 12.371058229678935 6.08702813865914
Sn 9.810587016847705 9.901332467037813 7.755106436872669
Sn 7.587033389519695 2.085010113565278 7.5349594422842
Sn 4.936752878219732 3.4126117670920233 7.461697861000268
Sn 4.074679143623712 7.760112607257932 4.790967770339464
Sn 5.696119710146787 6.381777269078196 6.958462879682429
Sn 4.698366144952577 9.94545725641225 7.246547164650159
Sn 12.286047828390197 8.131396923929294 7.712623884163082
Sn 2.9273116858547277 7.6601307429917584 8.023624468625702
Sn 11.292791106178015 5.248984011890128 8.278607422848411
Sn 7.398972106631883 11.724839565162517 8.366301957670792
Sn 8.38294282525196 4.771910895021748 8.476050085951238
Sn 7.0752213079108275 8.81186111585197 8.987800352894276
Sn 4.404069837439335 5.516837847445369 9.55141574143835
Sn 10.049788850384193 7.676734594239955 9.919302236794325
Sn 7.084980909170219 6.425530170101686 10.665285946766382
