29
Energy = -101.07164443 eV
Sn 11.352198145875205 3.6085437563172924 8.170539851444712
Sn 11.273537652979686 1.2756770443799936 6.491129068828873
Sn 9.35294640294303 3.2744545121423907 5.525235905648249
Sn 11.07303831214177 6.383558408879942 9.298667636314537
Sn 8.915401388131244 1.6576857453172833 8.37007483073796
Sn 7.032690796645157 3.8501668608191992 7.439755187891574
Sn 9.134761720922064 4.012476312419658 10.308500200032078
Sn 12.02258887026573 11.296697184328275 6.23700581554947
Sn 8.025551525573585 6.368123390368369 8.88009919474229
Sn 10.053711215381316 6.147686587046957 6.439588960035801
Sn 10.787955949714425 12.44175965363849 9.187270816088935
Sn 13.611901746846394 12.673446269471347 8.115040347824332
Sn 9.981808991471851 9.261788168223063 5.224577753849171
Sn 9.63944809953122 9.437982238347786 8.142603182028548
Sn 7.388448349580783 10.855325492914648 4.749969573579803
Sn 7.172802747559186 6.384693051314809 5.815599600052586
Sn 11.254029133341023 9.808802978836775 10.583486997113242
Sn 9.218394554736511 12.353326494985895 6.466078723078133
Sn 6.530270739889423 8.36208028924614 10.533823617165096
Sn 11.356496702782897 14.335938835861208 6.868716302499458
Sn 6.607629641774308 9.078637013782764 6.988779019615799
Sn 7.331553348433579 11.23224646746094 9.223954856161114
Sn 8.476244401891657 10.163414069275465 11.789628573996238
Sn 4.964327078446447 12.901551619626774 9.42172392999955
Sn 6.702617941500881 12.581415236364675 12.148174342701413
Sn 3.815774952153058 8.282453834754522 11.477440883218739
Sn 4.324809229419957 9.938651629732703 8.841951793999268
Sn 5.958789288344931 9.741838466330181 13.44909156129854
Sn 3.971072469959042 11.290004980622006 11.74910412205349
