26
Energy = -89.12992307 eV
Sn 7.601306730868512 2.797898801597871 8.706476951579347
Sn 5.760208800000248 9.67008580371149 2.6810070723799657
Sn 5.2936775631143 7.120423275444849 10.085655376377048
Sn 9.15492820905369 6.552271087541464 7.2463602375524445
Sn 4.927840264669526 2.6629502667222993 4.642399110708661
Sn 10.007537403591423 8.728947023073836 5.591777209134484
Sn 5.402077903585695 4.02901486130947 1.5983405207361796
Sn 3.366092059930363 5.022633436391648 8.950733000338117
Sn 7.675353327733766 2.798140166179061 3.34240023273775
Sn 2.6701607570147026 9.985122973119452 2.585084214165613
Sn 7.152793577783101 4.181458147310488 6.125238274470073
Sn 10.188523615410745 4.345265210596645 8.922459456036636
Sn 7.087432648568493 8.609879779251477 5.4616525627546615
Sn 5.538268423609705 0.9803325015339831 2.410839155984461
Sn 3.9634079169502026 8.251953251379618 4.710634445868637
Sn 2.2795535784450194 6.491932744976017 6.299486316971571
Sn 7.917872644601761 5.844402516370633 9.967282297427051
Sn 4.615548551241982 2.252897789510665 8.580110604561462
Sn 5.603712584483531 4.063495315230805 10.867948145120206
Sn 5.713552895795917 6.506108985669986 7.122153874002898
Sn 2.718974670535945 3.4247148877990115 6.394992712490528
Sn 3.6921479780642996 7.570979285994317 1.1764814395083545
Sn 8.7801031724714 6.0635905964271215 4.216378042740765
Sn 3.3401012572818067 5.265922934934466 3.4425673178463096
Sn 1.2297054708120028 7.304370330045967 3.2736767920651726
Sn 6.151656879384125 6.643178089852698 2.9291272528766665
