29
Energy = -101.16693711 eV
Sn 10.758440128384851 4.99192555790884 6.641226987963735
Sn 8.625562365448626 3.801155262112842 8.583716517116246
Sn 9.1878524918085 2.386203420740948 5.827443964007973
Sn 10.126903193029124 4.365258336247521 3.6718650209288044
Sn 9.94425883857174 7.280138988401153 4.743196529799727
Sn 7.513723063615451 8.66500793645997 9.619493975653073
Sn 6.308563163760385 5.817542356154375 9.557670022670562
Sn 8.506601318308205 6.833338073598576 7.495008974028222
Sn 6.192072326222293 3.512618499160857 6.897222060743387
Sn 6.345263135143555 0.7458586680328836 5.180355264978467
Sn 6.6682703838562025 9.90920015187844 6.707431016101635
Sn 7.7971161563316045 6.2959901514245225 2.7930659669309588
Sn 6.881025873685685 3.7404905659243397 4.035334871052919
Sn 4.6653238514861135 8.74770192779342 8.837546433677083
Sn 5.584246305140578 1.6948919121852726 2.348359107466865
Sn 6.590713674575019 7.068825983335585 5.353898387998782
Sn 4.014705141052404 1.4093994518146291 7.1881309119678996
Sn 3.5728982610135955 4.57045280717772 8.316672257082773
Sn 3.656304238886995 10.416347620214731 6.482871997943629
Sn 4.050295577719759 5.6323951535568435 5.4523539143663395
Sn 5.060568915916782 9.222423581886526 3.9492222490427844
Sn 3.479705149229739 3.8125167034403074 3.0902133955465034
Sn 3.2635113286113997 0.9525759462659488 4.287167089779825
Sn 1.9765319117478897 3.3012212014374236 5.752727139307705
Sn 2.3271896495233033 7.402695076146841 7.628133456258761
Sn 2.3305034701949947 8.108113500040535 4.565196887462619
Sn 5.6900702503901766 7.944566249859939 1.3442214173691578
Sn 0.7570760211085017 9.643513498256274 6.4760160878836475
Sn 3.131789399175367 6.626119209306867 2.1600593297131816
