26
Energy = -90.82532582 eV
Sn 7.314145557775173 4.319604098553456 3.997708080514813
Sn 6.636204910669477 2.5936783514772483 6.551129125235431
Sn 9.730591417678358 3.3589920701814653 6.0688367593098755
Sn 10.138677420291952 5.415523706787373 3.8043562151189705
Sn 11.121980639483043 6.016880164401801 6.630779716543835
Sn 4.423783369848402 4.466442786411828 5.12147906864747
Sn 7.979383565800094 5.846991703511358 6.715070814836483
Sn 9.113296726673383 8.095303337331625 5.0421638645007345
Sn 6.012149507094529 7.15167350588122 4.590695726699946
Sn 9.894246658793275 7.65357867542321 8.868009351517932
Sn 5.903330212252735 10.066278015363755 6.058179800289306
Sn 3.189408253708055 8.285736355416311 5.7919153631116975
Sn 9.901197987072564 10.226316452583532 7.259932321708428
Sn 7.29066807556413 9.489836021849001 8.731336968704884
Sn 11.404811792735298 12.370962047197919 8.685616484185724
Sn 4.226424078297164 3.5583917008242696 7.999730604353219
Sn 3.197560849104758 11.03487427674927 6.647403652409004
Sn 4.161749021871574 9.167915810686553 8.751935949073268
Sn 6.828033156994146 4.61317234876831 9.14590157585502
Sn 12.130248700544968 9.498893258002518 9.534036661183109
Sn 4.852181809955037 6.446686798644516 7.517908004454148
Sn 7.675234766807733 7.361353589975973 10.895318590990485
Sn 8.332205449698423 12.270921096616107 9.264455400731626
Sn 7.764399696368372 10.362230086921665 11.66894071199248
Sn 10.561995136318142 11.515822585112916 11.421075287863689
Sn 10.348435611570007 8.555488685864415 11.958555885432705
