26
Energy = -90.28930864 eV
Sn 5.58268259693644 12.223494132701607 7.556301886810964
Sn 3.4480044946695623 12.043453726837619 5.424891879443865
Sn 4.652495718925801 10.78447846199059 9.940294944050994
Sn 10.6818691297645 10.302337340422694 6.013227175356814
Sn 5.88474656545368 10.377353607038243 4.8097353304195005
Sn 9.377295216667212 8.036373542485165 4.5957115951423475
Sn 7.891434845426109 10.421500786254605 7.186535627559443
Sn 5.5837926130329825 8.35638111618955 11.341438993662791
Sn 3.3550949068511917 9.844483898333205 7.293737494076245
Sn 8.194764549098787 8.417175672441292 9.561949428166146
Sn 4.129890273248084 7.887514633926671 4.849445455549692
Sn 6.9093901599567795 7.719015428642398 6.30332068100272
Sn 13.13676527564515 9.131128025364577 7.665610221850525
Sn 2.80064640537727 8.273758848062217 9.872904311691874
Sn 13.208961823043996 6.1974144032584455 6.905687736814852
Sn 10.461556206907012 7.711229654861323 7.506636259584433
Sn 2.6078749799263035 6.7025218819597505 7.165058580570573
Sn 13.75638287087198 4.93986401257752 9.652375419446548
Sn 8.500541353017546 5.443774569206582 8.205008767662417
Sn 5.1825814573836055 6.351956524498373 9.075008187773943
Sn 12.32064611760321 7.495901097105413 9.985266220692093
Sn 10.586262011154059 5.307895651453227 5.645138516599808
Sn 5.287296008018865 5.276915472650711 6.3080146577508325
Sn 11.342293361452379 3.8802789835206193 8.310636787064078
Sn 7.408971790319728 5.8124246138335005 11.086397185157683
Sn 10.605696399666812 5.294704078054899 10.86726716133888
