22
Energy = -76.68905031 eV
Sn 9.859317728669602 7.592063412519096 2.6252472963298157
Sn 8.284706102558657 5.416058607926063 3.4929836570390074
Sn 6.9854364786565 2.7868363155554086 3.759678604283746
Sn 9.07813081689895 8.795772479732232 5.215385437624729
Sn 6.854083744750601 8.196083000154673 2.7790192829650215
Sn 6.898704443349802 4.735223815999351 6.313935373280076
Sn 4.021563897337009 2.8314257700848833 3.14061532222238
Sn 9.097523322567884 7.47162643570282 9.877601056811608
Sn 9.290360919520745 6.383876437099894 7.068977059121655
Sn 7.646773339222985 9.173871924260853 7.857708087807409
Sn 5.518401437822282 5.368616243638206 2.237384410631656
Sn 5.9830963879383505 9.590777644912507 5.349550132836895
Sn 2.755451971841531 5.769598968713975 3.525719399805021
Sn 5.7704519789992235 3.430632293452376 8.98152403541419
Sn 1.9514558476419719 3.3070016378656732 5.2158486237982125
Sn 4.995201735039115 2.2402209643107915 6.147047120540485
Sn 6.600956358247651 6.364595011108058 9.043552671754508
Sn 5.035744420859886 6.651435553286675 5.249884351043088
Sn 2.8238321101039974 3.315058347765025 8.152927502232457
Sn 3.6622928218936437 5.8900325966631675 9.353321691238893
Sn 4.469376313229321 8.469603508662846 7.785000051277353
Sn 2.1500936803414694 6.130157315473929 6.651141813611476
