24
Energy = -82.63828914 eV
Sn 8.650653052736711 4.803838464957201 6.844173564611516
Sn 9.515965336595693 7.7870246106912075 6.947340968698047
Sn 6.046919915195378 8.45899496238978 9.934514351880125
Sn 4.060236975931246 4.8010686715015805 4.677836594665506
Sn 4.992555109296687 2.984874926275778 9.813199043924055
Sn 2.268495526218113 7.209744621867184 5.231198000562398
Sn 6.885419068934228 9.59314580172553 7.0001652863049335
Sn 8.16251757897523 8.30656361163909 4.250419909612634
Sn 4.044593042808539 2.8276769736315064 6.964116842810337
Sn 5.959726928488566 9.29403430761902 2.0792758274701297
Sn 5.8040830745687995 0.8068122903300704 5.710945253811981
Sn 5.818495734370182 5.339328002681089 7.848194484422478
Sn 7.161012577007196 2.3319369094225126 7.811518598011863
Sn 5.1943954397046035 7.855803958850231 4.688478058402084
Sn 5.930540332174474 5.629205248657632 10.959098144623201
Sn 3.9957822069950475 3.80962659735545 1.752068581714064
Sn 4.212282856341778 7.830000446962536 7.594901018927244
Sn 3.091163980516477 8.44487442636458 2.5736488105337676
Sn 8.87051192987243 9.269809394012343 9.431584553249126
Sn 6.224699667227406 2.6999787265123603 3.5037619428924853
Sn 7.420775542104497 4.386560323240905 1.3775447855679241
Sn 7.136882972488627 5.4464127464198056 4.3263828724407976
Sn 8.466409710577253 6.241627829377721 9.584767995317977
Sn 5.334872121002607 6.427258346020052 1.644964058688025
