25
Energy = -87.73012048 eV
Sn 5.929509002579773 9.034350838671411 1.4671199710362768
Sn 5.284849101059512 5.990055635735103 1.912420375000637
Sn 8.266855662401433 7.016440833994073 1.919503646454099
Sn 4.765193810471545 10.40968184071094 3.9704380435873374
Sn 3.2165569527236637 8.102576939495668 2.532322438763806
Sn 7.782141897935369 9.586021122629084 3.928646435073505
Sn 6.963658546241361 6.3107023889091005 4.551742100019611
Sn 8.994648475993984 4.427889008334261 5.7261187888159695
Sn 9.802837348368689 7.2405330737776215 4.770591631915952
Sn 6.055785716448369 3.5527483119295624 5.718916282799774
Sn 2.8958961882916228 8.527695167173167 5.740783672376793
Sn 4.042189987501978 5.889464388678579 4.715313347305953
Sn 5.858238989712713 8.616492589861013 6.17584199408118
Sn 8.727229106937898 7.353284872811769 7.838382601287054
Sn 3.7915153131854034 8.894422689092977 8.820119047396588
Sn 9.948944521385842 4.484856666255773 8.866182909467527
Sn 6.565202190217166 10.028320583289789 8.683295753443318
Sn 6.942205745884337 4.806079831863635 8.241367972396926
Sn 8.184168250164104 8.432531766361272 10.72752421912863
Sn 7.5508446677271435 3.3300455611672013 10.7350034689526
Sn 9.829028760937696 4.82338340501704 11.913473289501457
Sn 10.875000483565461 7.171142601704186 10.066653727103514
Sn 5.755243139265243 6.960540034823422 9.76994242948335
Sn 6.883043083122195 5.870599336042952 12.3812632577422
Sn 9.430260396332011 7.481187850125293 13.168079935320469
