28
Energy = -97.26924418 eV
Sn 7.337400461660572 4.601855169446431 6.415350563709513
Sn 1.2340715712761354 6.474498800823876 2.127610195130846
Sn 2.0356001496192433 7.339766323739316 4.875824000305648
Sn 4.547968745601677 3.3990870231625614 2.9837523523041134
Sn 0.2670056354344632 4.933658760797592 4.594745097633065
Sn 9.679864246726604 6.5870579653049735 5.8495214152171355
Sn 4.906957038908879 5.998307110055796 5.7484531456046035
Sn 8.190355101480431 8.976987952258721 6.9536184799899
Sn 9.05888659923684 3.931696193183774 3.9958230090154587
Sn 8.470336108097001 6.862023439668997 2.93628526037304
Sn 5.140466094956599 1.246623270398136 5.425340346512335
Sn 5.578328559905766 6.365530412390734 8.936575053887271
Sn 7.291887769539553 4.436182604012826 1.46526497667052
Sn 8.509236060078315 6.254680735866355 8.726242864131814
Sn 2.4968443108705665 4.68325570029966 6.8255175885892285
Sn 1.720248316369276 3.442234626768954 2.1613750091364645
Sn 2.3728692706326564 2.398073486706531 5.0055458756156215
Sn 6.82508914289902 9.194379245373772 9.520217072048471
Sn 5.488058347146074 2.723039746272675 7.993008635195086
Sn 3.3758614350625273 9.95114807361318 4.998202859178505
Sn 6.429750156350359 8.707531695952278 4.4948436348314535
Sn 3.552834743294465 4.301740950819451 9.583845077774827
Sn 8.382042223160902 2.7429534888766534 8.460678677867094
Sn 7.026184835519772 1.6865938634853255 3.0177569811701854
Sn 3.499422658413595 8.524405383378966 2.2495629637078527
Sn 5.292562566515802 6.279277453588497 2.8028048048215037
Sn 8.404109344912827 1.3945681008135764 5.711370729893983
Sn 4.999285158281404 8.760628917990644 7.251449386194685
