21
Energy = -73.2317585 eV
Sn 5.557215497711132 7.228691751976698 1.3068837818243604
Sn 3.612096010274654 1.5199891753909223 6.507665070067988
Sn 5.1222122764882165 3.5816562381422257 5.111959327854373
Sn 8.132912057148822 3.226789490764877 5.826224237676175
Sn 8.591267281235515 7.35191997368456 1.512034835464984
Sn 6.684431332411873 4.506535804507058 2.540066581375294
Sn 5.754183371953591 2.2845794352759814 8.271096315722223
Sn 5.319754043902998 6.662740401687191 4.316784156431347
Sn 8.115409863297716 3.808797546962219 9.11382604381707
Sn 2.8959332494978187 3.8348683946192432 8.272483835277793
Sn 2.864531231611359 6.849467153373875 8.350903546719302
Sn 6.389767893011769 5.476814907532455 7.1471171187578
Sn 5.3344291356945615 5.162124937993173 9.865734354114135
Sn 8.657825433109025 6.0541257145957665 4.161684810805892
Sn 9.464291853024486 5.858013149361251 6.971455850949825
Sn 2.6299082892537524 5.76703453063494 5.543871099744819
Sn 7.204903962255113 9.312443015792303 3.216191062131045
Sn 5.618540852133331 8.264154982062527 8.585030344791274
Sn 7.361944612204778 8.238760231796807 6.1159056104657
Sn 4.258456716819572 9.32003699556768 3.0931060911453567
Sn 3.724779365170265 8.743586167168823 6.181429248072475
