25
Energy = -86.90103335 eV
Sn 6.939612835274247 5.284629186884562 2.03536337264094
Sn 6.496718770749836 8.411493963012662 2.6350020474560645
Sn 4.457766336998383 6.795183643033352 1.4563622379864507
Sn 9.496211152464397 4.74304222363824 3.4908611549848816
Sn 9.25157636309067 7.272883886997548 1.5790356505524903
Sn 6.9763652800001905 5.510311544986702 5.189184053148022
Sn 8.965480144188948 9.785939727450344 3.4750274791736286
Sn 10.914168453823027 7.503870883360662 4.101865523209541
Sn 4.179807256240467 6.367245223429525 4.473466411692154
Sn 7.941380236768167 8.207718636361697 5.789546894573727
Sn 4.559612074073165 9.266955443101912 5.257418715693965
Sn 8.132596621861659 3.384320010149582 7.042242950397535
Sn 9.528865556927324 8.13126350172714 8.541714623668383
Sn 6.311811291071983 9.950945947974297 7.634437531777235
Sn 10.074795914675194 5.834369587758246 6.5965473503506225
Sn 2.7795598672278077 5.331806974958098 7.096933641062555
Sn 8.963580675374436 5.326672842819401 9.404569021065031
Sn 6.687053732271974 7.5812450790228905 9.541109399411637
Sn 5.732093648479585 5.305293049007308 7.924740437035691
Sn 0.9691952646492908 4.697715709372687 9.2970239540568
Sn 6.698194490478033 3.202837872239526 9.915733073977313
Sn 3.840845089314174 8.058931353355323 7.796502518240401
Sn 2.9115273748350146 6.7154890241032525 10.316517580778095
Sn 3.700120594929059 3.6777671620528936 9.8720841777498
Sn 5.517330740177153 5.6783372891465085 11.562979965261084
