24
Energy = -83.06505458 eV
Sn 9.915463282606384 10.159171798380566 2.7477470837043674
Sn 7.695606815707527 8.120021323276038 4.04409695497388
Sn 7.02678272776765 10.815609048889542 2.7210277527888294
Sn 10.50510561076084 8.865230125346214 5.393777410884331
Sn 5.2489799130862504 10.183232755250552 5.042801894378085
Sn 11.995757051375799 5.305917055005003 7.497740998002167
Sn 6.390271780008861 12.582094005569674 6.539446491763612
Sn 8.506147258533698 10.99373394261894 5.395763152243379
Sn 7.067080892548235 4.367366597856658 7.441208986719948
Sn 9.841162543782389 3.4870460588969108 8.68040791555968
Sn 9.167517795570859 6.409450633428947 6.725368104278193
Sn 12.48043048996338 3.301614259288865 9.816300937973287
Sn 6.232968899888918 7.944354862173359 6.913422540598674
Sn 11.291840965335643 5.873792825995015 10.530133552303779
Sn 6.131819659804299 10.510399013679566 8.637437073384266
Sn 8.45927252507662 8.730049324358559 9.177745209956788
Sn 11.346512219130204 8.201361740809439 8.390889269787408
Sn 4.164677066469233 5.905450775349611 7.699347397869513
Sn 8.345906688898346 5.830227282267839 9.905692098830698
Sn 3.506401304150415 8.85851132068954 8.220555102247422
Sn 6.562635591240552 7.541346283092052 11.525422610317925
Sn 5.582510704131553 4.6620175524883365 10.230805530574095
Sn 4.479155466331275 9.762844821910248 11.025636398589603
Sn 3.535278476503091 6.893440395549388 10.574624948786743
