22
Energy = -75.98858693 eV
Sn 8.191788042980654 12.537950137121966 7.525087443338859
Sn 9.192433029350074 12.906285882931257 10.214047296382306
Sn 10.131870094399973 11.0339535105224 5.720419837468945
Sn 6.846467044562694 11.140323641815478 5.256570082459829
Sn 11.15439115913325 11.445892113920747 8.548038074432002
Sn 8.394731689461242 10.093633885226515 9.910197915264519
Sn 5.068243375098329 7.845795600272241 9.154883910022686
Sn 7.100061270476092 9.170422308923232 7.418372620966493
Sn 7.248199418441044 7.306032906051969 11.222893909047931
Sn 5.23963429765119 5.547965881095038 7.05139016604641
Sn 10.216284239608225 8.582319596902245 7.887448481108457
Sn 8.135441350071329 5.034677898580365 5.939207411409241
Sn 5.120698606747163 4.896369909256773 10.289048331197154
Sn 11.050043911909572 8.30973422740295 5.046696346054214
Sn 8.248090831699187 6.35019636778847 8.613450864884635
Sn 8.80929583946883 10.107723975542434 3.1658935265212245
Sn 8.042662212126443 4.239131529755277 10.995390915904801
Sn 8.028928137753796 7.87537733883991 4.840409621553488
Sn 7.031936496950797 3.1161686052432587 8.516747045531073
Sn 6.1686589117418285 2.6479732259018833 5.688320763461945
Sn 3.37427219445733 3.9335610405588146 5.563283143291515
Sn 4.049280286372757 2.7675475511048195 8.173246466685509
