20
Energy = -69.73310315 eV
Sn 9.059280953441968 7.644053748188325 3.495556291410243
Sn 6.1331814675777725 7.641850472541634 4.185085751064659
Sn 7.9276646626762854 4.76434787933312 3.9864804599538393
Sn 5.386405110860417 6.431165856467434 6.872339526266328
Sn 8.216156532433615 9.907188582462632 5.290156679917862
Sn 9.780938779769507 4.129320028092642 6.368246474312015
Sn 3.294748730992055 8.178645546782793 8.028484782674427
Sn 4.946195685286416 4.281872613447584 4.8929838414593405
Sn 7.200448885356008 2.45950766238803 5.77139906594894
Sn 4.953085717527123 9.901859988011205 6.063289243019122
Sn 8.705141080880237 6.951343873516863 6.422820132106542
Sn 6.892920150232015 11.602669881404752 7.5248226278336645
Sn 8.933538911427226 9.166001776999968 8.506642016955013
Sn 9.830624577674245 11.569239666998755 7.174896318838357
Sn 5.224464832670528 3.5218891984606864 8.016538857858704
Sn 4.85635617121682 6.5463455020430255 9.996716019227428
Sn 7.59013443438769 5.504891918784635 8.852091019637303
Sn 8.185856136993 2.6762930161160567 8.599706562101671
Sn 5.56556081500189 9.685165702147374 9.46595708745949
Sn 7.619859162553161 7.738909884769143 10.788350040912523
