21
Energy = -72.192858 eV
Sn 10.372831215994498 5.551295600100133 9.90455785668136
Sn 7.578629904203256 6.54386055641288 9.497777673524627
Sn 8.673508739056059 3.7625151048428167 8.316765331407876
Sn 9.67123126265607 6.6116904517942 7.157396668192397
Sn 4.832827601393839 7.439188540312302 8.591380566739648
Sn 5.405768700329537 4.363856662214509 8.554652992101653
Sn 7.265358158476131 8.693496536497191 7.1011235407373725
Sn 6.695301035413131 1.9544462963063989 6.945201501612064
Sn 2.033902231750285 7.438995106013487 7.264623581584963
Sn 7.933652361611184 4.731295579571886 5.5923181084597475
Sn 4.407268075078044 5.592090704314712 5.934972664258766
Sn 7.510090287598842 2.4277434676433853 3.7762113432897153
Sn 4.652787960837547 2.0326717383693707 4.831551606730763
Sn 4.223676426019389 8.803192776290459 5.734252610339173
Sn 6.575028349958344 7.179394563229371 4.449350370408963
Sn 2.4938332438820052 4.155430457062504 4.064706330839505
Sn 5.44142355681433 4.477800788016201 2.99656805861057
Sn 1.808901149991636 7.143455213544513 4.186079983789627
Sn 3.9855459719321904 8.76197625173485 2.6845335875542897
Sn 6.101557913387795 7.008647346469054 1.5031085024173334
Sn 3.0893562354105906 5.956740517952422 1.6260177654887764
