22
Energy = -75.77045187 eV
Sn 8.14262755751662 7.660643829649669 9.751502767827652
Sn 3.7976618194789604 9.295757281604278 6.675532721002911
Sn 5.113148366797726 7.3511359015848985 9.43900881883971
Sn 8.847645576981268 7.513367086083492 6.383436909743648
Sn 6.687181818317633 4.880113692275833 10.055978671313367
Sn 6.734530764675801 9.33612535610364 7.573142029464592
Sn 9.241773325907971 5.154553118796084 8.439484366155812
Sn 2.2587907570895878 7.986363073434503 8.906282643864394
Sn 6.853090718843397 8.338379444353748 3.6476985184693067
Sn 5.690487273588466 6.680970152739948 6.213261329884539
Sn 3.802901521062802 7.670877739554639 4.075710079553073
Sn 7.205568402018513 4.181115616966404 6.618652899047035
Sn 2.457301557548181 6.310833784892157 6.514998396945801
Sn 4.215508590360655 4.256846412617743 8.229305182154082
Sn 8.843653101722698 4.41413643863303 1.1940146822737472
Sn 7.287988932988492 6.972468162319857 0.9384316717634743
Sn 8.406255104794116 5.771802276706682 3.743979599304916
Sn 5.4324775944360635 5.364175926248803 2.521577694773222
Sn 2.565887182035916 3.4355956677263504 5.772184710920342
Sn 7.332050611529861 2.9008821091256585 3.6602816961397457
Sn 5.255019996466848 1.9976252025419474 6.10575064361605
Sn 4.221715337964868 2.764377521208576 3.3267012972227663
