23
Energy = -78.51124136 eV
Sn 3.5545341394134065 7.721298215195448 7.073682254430527
Sn 5.348825225535904 6.335714135561528 8.907680506876478
Sn 6.517295174241899 8.00490603788791 6.525120844771618
Sn 4.507705137121262 9.805914991766166 8.91114231998333
Sn 7.472841574456315 5.8201402510261975 10.985995020711705
Sn 8.237313201547657 10.15572848563348 7.714319103004453
Sn 8.973040715721046 6.42821311341419 5.371012366740599
Sn 9.013807190499628 7.839216885971842 9.672770996455949
Sn 7.01980837960938 4.8378278093584 7.044957135092792
Sn 12.119171702769648 4.076635927237141 8.323851846850438
Sn 9.323471601885995 4.497837706069103 8.996177924435683
Sn 5.835120184388176 5.635952142445676 4.361045032728799
Sn 11.246134187743605 6.638922730661124 7.220095422122597
Sn 11.221560313201076 8.67209292676518 11.615046286601915
Sn 8.69721288657463 5.428076630002103 2.6982307741938127
Sn 11.879628778139075 6.290672412813659 10.30358755071258
Sn 7.504576934079303 8.376186710938327 3.5520550376161015
Sn 11.399365285514442 9.269754269404402 8.622404523421194
Sn 6.21141579354462 6.446013794142107 1.632458275080474
Sn 6.8775476557846975 10.193448607218006 10.653290811181991
Sn 6.057765379926107 12.25412265715947 8.184526023180243
Sn 6.767005583032642 13.179016211436254 10.889802711828828
Sn 4.155559420323521 11.947712171274746 10.788747312179755
