21
Energy = -72.34289704 eV
Sn 10.49899678276343 6.234313566362 7.625992814738671
Sn 9.299576001352305 4.2713389013834675 5.782530148676102
Sn 9.549671837294783 7.462304042066371 5.158394915063152
Sn 6.433253887712987 3.62738568508672 6.526079488440033
Sn 7.604283110609679 6.452023889457189 7.674411120865233
Sn 3.579820832575321 2.017952582134055 6.233376571834696
Sn 4.073191400980882 4.7287974229793175 8.336029512366098
Sn 7.309492948549238 4.0850180041594655 3.3607850869836073
Sn 7.718479278747127 7.070289834801683 2.817537045181495
Sn 5.794280445379444 1.6541090786651846 4.234184381565532
Sn 6.769850790503595 8.600514751312621 5.576314937741036
Sn 2.09903862762738 2.5289282029391043 8.657212197348102
Sn 4.940566856675965 6.096766857560644 5.542083811959105
Sn 2.337572660441891 6.99345906821528 7.195504152832098
Sn 1.27407844645555 4.238021010911755 6.376276847928312
Sn 3.801910149927697 9.085463924205742 5.558222155871947
Sn 4.72173645815461 2.942393435883622 1.6842155729096484
Sn 4.662519934856475 5.7121734192613145 2.5782900336563763
Sn 5.106989355946267 8.681445399448227 2.802861766237053
Sn 2.402123547781722 3.0857776492598012 3.694597347419315
Sn 2.036023299358899 6.234969270262633 4.19058813919383
