24
Energy = -82.39219621 eV
Sn 4.9794305519133735 5.033165843355471 4.338325949613888
Sn 8.46675012021572 1.9368927592526906 5.5237865547304965
Sn 7.92827819518076 3.639074510744863 7.933264116706088
Sn 8.000737951355028 4.7295708660993485 4.88393720771036
Sn 1.8174307918984567 5.1315907221568935 4.531951215346433
Sn 6.7722728968986 8.396788725936183 8.52081081635396
Sn 4.732349391414204 3.4405161752510023 8.29956785788229
Sn 8.990362764373357 6.46682825570865 8.897756796385341
Sn 3.154028572778384 4.161730588045393 2.0247541887832834
Sn 5.89799287703772 1.132558065512695 6.690555288942083
Sn 1.8494552959126993 3.975195552811747 7.505341132830126
Sn 3.597910373523665 2.6310391467746626 5.442199913136988
Sn 8.765692751971084 7.569348936619278 4.038855890674455
Sn 9.337329811236037 9.078572225754609 6.814853348881278
Sn 4.869934631599383 3.272848955434422 0.06314742655217144
Sn 3.3523580854333956 6.58135478818268 7.878450308290947
Sn 6.536680582253714 8.997699434357424 5.499256964928767
Sn 6.185545397600601 5.359700983067662 1.6717510657600447
Sn 5.4630826985162315 8.025834761974464 2.8413164206025088
Sn 6.16935269044145 5.940861804297331 7.022608685199431
Sn 4.027152727569491 10.015059793551757 6.790670772804439
Sn 3.4814508752065705 7.593509223362538 5.038284511319553
Sn 10.347356560952953 6.272259852775413 6.333212600736137
Sn 4.064914946490216 8.885580730687542 9.59558299639729
