28
Energy = -97.65923058 eV
Sn 10.110000719757737 11.167628405500562 6.115330814349843
Sn 12.214506268938877 9.00292471309338 6.544522797631018
Sn 7.039162725777622 11.962052992626361 7.1982688735617275
Sn 11.202414607480428 8.876211713956769 9.448847101993632
Sn 8.404738184152693 12.759874310848874 4.509386154654522
Sn 9.5536092667023 7.979778001108682 5.666912596954421
Sn 5.032067576506117 10.733185799172702 9.850873895835756
Sn 8.761562644113575 10.203800893694186 8.821950121578308
Sn 5.043462457677166 9.610230088781927 6.630189434128831
Sn 10.424399778569285 6.419920821814227 10.877287655560256
Sn 11.061390514202465 6.292476407931548 7.793603097504999
Sn 7.519781946883003 9.953095886785471 4.6754373290826745
Sn 5.01599907516212 8.334951383779869 11.961110603985393
Sn 8.336643714755597 5.223742347376791 6.92029437309714
Sn 7.464386576310884 10.178447597269392 11.569741918176195
Sn 5.57423175416271 6.420697955198809 2.9624590891655216
Sn 8.40704071512044 5.853476060229083 3.7789625833061775
Sn 3.6787509603448973 8.21560413094614 9.09519564769245
Sn 5.970164170132193 6.9064994022202555 5.8333636565937494
Sn 7.947383797796713 7.335968181931968 12.358357934175865
Sn 6.865257254680855 7.906758800530638 9.326247425281126
Sn 4.752032645700027 5.588220454894551 10.481564116959039
Sn 4.080829096708297 4.548871325210656 4.946598422227409
Sn 6.397176272206851 3.426655734545612 3.2506051293467055
Sn 8.992339437979757 3.150962760957837 4.958649115000956
Sn 5.348960424779756 4.590507340324812 7.703739267843076
Sn 7.835988357807818 4.979936058822907 10.020794429974835
Sn 6.178845167909595 2.281186606453906 6.037854092193369
