20
Energy = -68.99222743 eV
Sn 6.4710436735325905 6.031994734645909 4.742623298249317
Sn 8.95097614811336 10.972694403474348 5.626552144843961
Sn 7.81525261056289 3.345731465638282 3.964163138541919
Sn 8.32500905143948 8.41706813242285 4.038025739520904
Sn 4.884544870492169 3.5148396203553243 5.098879719013115
Sn 10.480442516447456 8.375447115643048 6.29426104682904
Sn 9.474651129529343 5.453715541050559 5.351457833067612
Sn 6.083925095495373 10.460960980085234 4.878843758673189
Sn 8.037982002128317 8.015843902630621 8.265221967892234
Sn 4.739112948331411 5.082147127804442 7.642045308853042
Sn 3.090624142884898 7.560249478980185 8.149604067917736
Sn 7.474734467525666 3.4491743640481696 6.878938259697517
Sn 5.545713123190241 8.174323146042703 6.7112854308236916
Sn 9.378818452163983 5.304714946131632 8.539141153100843
Sn 6.7126252696954385 11.012092693678625 7.926565004698703
Sn 9.717409463592075 10.52646793141598 8.53840341524682
Sn 6.504020973418803 3.9718036560099828 9.67029436255815
Sn 7.580267222613106 9.768569912521983 10.757872757167013
Sn 5.1859189584237875 8.080749743516174 10.072262323706639
Sn 7.596728168656126 6.531211392140161 10.903359557835087
