23
Energy = -80.23431446 eV
Sn 9.869670253527408 8.561934935812301 6.212839744298778
Sn 7.387885601783877 2.347143695874755 6.466845361308802
Sn 10.365953252444214 6.2373908129313245 4.425129790439197
Sn 8.523637216419463 5.480783321515282 6.993019435387806
Sn 9.506267151276464 3.3397210328711653 4.47756345869441
Sn 6.051474686893797 6.310861307244836 5.699420741141416
Sn 6.459741458896839 6.148647884289038 10.030720593484979
Sn 8.32719678025025 8.205810050018814 8.779046911342201
Sn 4.725371367259802 3.5388801919141475 5.777806788314974
Sn 6.726939192053805 2.8069622112532286 3.381065119083518
Sn 7.9374087029646505 5.473146034030623 2.7689244195087657
Sn 5.663118047640744 3.411605315856569 8.814953083699153
Sn 4.204099893024013 6.060990466926049 8.172879759325987
Sn 8.398628178483962 8.4715037404262 3.5328061392342813
Sn 5.189391066976091 8.333776935454937 3.6818419960564928
Sn 6.868125375941637 9.518260179984141 6.226148306045261
Sn 4.4524237885504885 5.2428881619761984 3.2083166273695225
Sn 5.480344579661781 9.013344332431197 9.154287518245502
Sn 2.4825450333316383 3.4777620551144595 7.8284557590909225
Sn 2.098352074764676 7.358572073959266 4.282823347459031
Sn 3.7006222664880126 8.600580636174664 6.57366557142718
Sn 1.8321722940728986 4.357854988431697 4.811555350178687
Sn 1.3451713845404611 6.3118475347398055 7.075847790032355
