20
Energy = -69.64099197 eV
Sn 5.489222185734789 9.237565211433845 5.06695656991152
Sn 8.882780274440597 8.812671527263932 4.54516208556619
Sn 5.459674822599185 11.066427465386754 7.493368141208414
Sn 4.711300684504445 9.47218219212835 10.048983475931976
Sn 9.55555976365007 5.701515120070516 5.013783132552881
Sn 4.409503057809086 6.397648422229058 5.980817714181132
Sn 7.0998385873561904 7.847718458704407 9.509622562594265
Sn 11.324027827746836 6.75368302782395 7.790986829023466
Sn 3.3272615159173213 8.861134335754622 7.4081900819594875
Sn 4.023498567987117 6.466241159101677 9.315982516698536
Sn 10.170760167018438 8.994205175574999 9.543618279092135
Sn 7.285474879242518 7.064225683957871 6.581478238188015
Sn 8.185855526096837 9.91061909922528 7.424501027422656
Sn 4.991315106754174 3.8810586105755487 7.978211918020922
Sn 6.656495943183093 4.877373997089743 10.217644889198992
Sn 6.598904472231014 4.269005650846544 5.425801573199413
Sn 9.480852055478268 5.9781062623160794 10.279879340772187
Sn 11.095107489481562 9.854654073691547 6.673137844976446
Sn 11.789661577674742 7.6447088064662445 4.865812029745802
Sn 8.61308459191318 4.389726343615363 7.79700176148995
