20
Energy = -68.89666911 eV
Sn 7.705607587451243 7.781043602343874 3.5450015471122915
Sn 9.391233548317791 5.182265805522041 4.827409516741029
Sn 5.015076866960127 8.478097945667121 4.862296124945682
Sn 6.363534695257732 5.672066100388238 5.580066214435511
Sn 7.349405468139762 2.9751297747671916 4.769805731177641
Sn 3.5204521760576326 6.009747613868954 6.115525759079285
Sn 10.334974370365192 7.9648387984085955 5.5310503044865245
Sn 7.867605170719374 9.806546847250045 5.695824951029508
Sn 7.280839559085018 12.498604066207719 6.562041227506156
Sn 6.533267384393027 2.448395139757299 7.737778844407917
Sn 6.464724798482183 11.967713383431255 9.333352844415842
Sn 9.39491541766097 2.9231873165767843 7.069114524474022
Sn 8.027044202493444 7.13062790133999 7.464919972544587
Sn 4.834941903906566 4.738049725722669 8.607028449653725
Sn 4.8918827992908005 10.586862966566168 7.041789352585534
Sn 10.554726066071996 5.643120334403383 7.793024817779864
Sn 7.932177869982755 4.582705847640316 9.483815315568506
Sn 6.840973706885525 9.148783490982593 9.190530888683691
Sn 4.060771340247545 7.940590524127781 8.389609361695076
Sn 5.831574216721662 6.717351963517821 10.595743400167926
