25
Energy = -87.27310143 eV
Sn 4.867106485714843 9.760439996013858 4.683320706231186
Sn 9.582041900548987 9.712926672327889 3.0274942409455856
Sn 4.127165672907975 3.9820918059199073 4.167292366489193
Sn 7.601322214061264 11.199954073931535 4.516767889792737
Sn 4.613518525764587 6.755376487777338 4.889740369901212
Sn 9.705252012635796 3.20512538949367 6.3893475887613365
Sn 7.082032592839674 4.372102690732486 5.106712719021638
Sn 7.541256156388322 11.997506835391476 7.424695815882869
Sn 7.579079465634479 7.795206591658256 4.311242020124638
Sn 9.608463817843123 10.127596422387938 8.650828287544106
Sn 10.120020749365112 9.367327872887385 5.859942735976887
Sn 4.854273016256121 3.3480728149197643 7.137021094081836
Sn 2.3897858551966324 5.050738758036518 6.4518841234375
Sn 9.727837185199775 6.212015474394642 6.395074042714882
Sn 3.870656694312481 5.548473759467361 9.102012037271926
Sn 3.087986782789501 8.053897511632648 7.103267597561456
Sn 11.236030593435414 4.745921344689619 8.647749694197977
Sn 7.164796804025288 9.026656148720072 7.0325509240067205
Sn 8.492995610953148 3.363371116782945 9.070469442364587
Sn 4.645952755381849 10.657565998971842 7.624872761708867
Sn 6.658538714260261 5.866334462851533 7.666477958480903
Sn 5.44535518501372 8.278768296640246 9.42721846331885
Sn 9.117621079923268 7.129183738444327 9.26611757264049
Sn 6.861652176406251 5.2911515007794785 10.681178637659889
Sn 9.934470313939036 5.067406595944134 11.281933270679605
