24
Energy = -83.34704953 eV
Sn 11.86296656577267 4.413405320834892 4.303158559726352
Sn 10.941819375709008 5.809789102473169 6.653381160077403
Sn 9.74565153306046 3.063706846002265 5.868076791677036
Sn 10.119247872544358 3.8237120485960285 8.770952116759089
Sn 7.332293271836659 2.6323089507385165 7.663096812084448
Sn 9.1057776661135 5.434865285690323 3.7314720209865704
Sn 8.136096866858262 9.442819881804931 10.903013972703247
Sn 6.792402202796148 3.8091929854571003 4.864527669604525
Sn 9.585802894921146 11.748278685436588 11.702572714933103
Sn 7.560028783003789 4.7818854374377695 10.05132714746928
Sn 8.845848022374165 7.151249243316135 8.465354036391542
Sn 9.557262467725284 13.588248237234163 9.413666338904079
Sn 5.880012572508729 7.535242823541087 10.317421518864442
Sn 9.809332422123704 10.776457521376415 8.612412751134842
Sn 7.033419292660968 12.076163079356872 9.8147163068981
Sn 3.9834930277484726 9.017045557656619 8.441847973495136
Sn 5.959377680582982 5.499349546777736 7.603820885697379
Sn 3.077857013347607 6.223727521762841 7.472834214392985
Sn 7.57559354474238 7.121246305135432 5.639137912449362
Sn 7.023688933399542 9.585786768173763 7.869751948679686
Sn 3.005634601964559 8.601594104636815 5.536856070515418
Sn 4.594569462198527 6.08076675382866 4.7427171724073505
Sn 4.982079956964828 10.826139965218923 6.12951201358295
Sn 5.7429633717201884 8.773306630605736 3.961966816308009
