28
Energy = -97.21517764 eV
Sn 7.646292254833572 11.739994308014658 7.100131310552593
Sn 5.7515274077595775 11.465313563966928 9.48799705023357
Sn 6.00089891149371 11.619294559818233 4.409223332576715
Sn 9.77965526089603 9.176452180276018 7.378997905908326
Sn 8.458040393851071 8.11687051455393 11.070693219609993
Sn 7.084467096959934 8.998877625947559 8.566142537131237
Sn 4.3666121703397165 11.997861085910229 6.916610162283999
Sn 10.867134226245122 9.506297513683013 10.154123928227913
Sn 4.142965425349328 9.031047752482598 7.949763621997457
Sn 9.673103551697388 8.278066568103887 4.416355764938345
Sn 8.008940388343328 10.032552153262944 2.71173819444825
Sn 6.235343257280689 6.085942531715282 11.40046014799149
Sn 6.460595540003373 8.734922430190224 5.221045032203502
Sn 3.53964112035985 9.690505536951546 4.97234263030436
Sn 4.44178010014908 6.867259541007902 3.8321474174261074
Sn 7.038633233947609 7.250816286778788 2.4406412333503105
Sn 9.239846460680926 5.577772019723143 3.493049113981902
Sn 5.282516991297636 6.284480264543024 8.645137522590185
Sn 8.069720760394954 6.5488744278858375 6.640657253887773
Sn 5.542904064293971 4.956219762659456 5.834237133997919
Sn 8.904179160568956 4.84394511699748 10.536636207919358
Sn 11.216915272869224 6.6202023721843855 9.995623809005822
Sn 3.7156044763507454 3.825080400077387 8.10483664296394
Sn 10.359344702428645 4.977042252764388 7.653898235522868
Sn 6.0967624680411 3.2274567207840574 10.076614580501712
Sn 8.444778770888021 3.5298427972293145 5.594020993324483
Sn 5.994455396941397 2.186150939654156 7.072723216726701
Sn 8.770435863486746 2.4554743276891524 8.646123178951783
