27
Energy = -93.42299604 eV
Sn 5.72078031778535 5.413872981122783 8.818630461036477
Sn 9.83906565793645 4.888810432253119 4.228308395424786
Sn 7.4468434291526595 3.745304570833741 2.9359303952652978
Sn 5.534646569562235 2.5950391780679314 7.668868561249574
Sn 6.52188686789355 6.346305025144439 2.127065343623985
Sn 6.756646523684701 1.6766374353612685 4.954669388849125
Sn 4.362746651594415 2.3589375811766864 2.9644658212855117
Sn 1.7080648459674506 7.803300494647304 7.46552412194432
Sn 6.272917614601996 8.836004203595177 4.677756818379852
Sn 1.6189548920030303 1.9817890803768845 4.243187531055348
Sn 8.824469119495289 8.006699248222185 3.126306149869536
Sn 8.47219603136747 7.078893006659545 6.093034811985575
Sn 11.209909177602654 7.350089535766702 4.792112359976707
Sn 5.667330850672662 4.988547012670887 5.208862751248446
Sn 2.8154532765796807 3.4501693874002393 6.678596978011609
Sn 3.626047402271298 5.677406589343021 1.2749391161530237
Sn 3.375826161573472 9.247865497585412 9.45366693997106
Sn 5.671562001027906 3.5989388773162627 0.4665325575567144
Sn 3.964952393849025 0.7176051507305259 5.808809410272091
Sn 4.24435065460774 8.462594685112876 2.398836839512651
Sn 5.067086672348119 7.868463485313382 7.4308547522355015
Sn 8.541424873154291 6.067559063187995 8.920437255214244
Sn 8.478542357320327 3.9658090269117428 6.722674084136053
Sn 3.1478228775880304 6.333732159574481 9.887438031087736
Sn 0.9868697365790122 5.010686580642972 8.435890881505875
Sn 2.7911845523629113 4.736316004569217 3.9668572350270837
Sn 3.19757418061076 7.450811222103877 4.97755523960982
