27
Energy = -93.81995528 eV
Sn 6.8776398947139485 3.158033475487191 6.077682009936273
Sn 4.031453246249423 1.8954868530790572 6.863373319535268
Sn 10.145054639010908 9.659848438872569 3.80386369699243
Sn 6.287362923918366 1.8930902555675764 8.778661020710134
Sn 10.13375659712202 6.033856002522132 5.461716880668174
Sn 11.880928587512226 8.57157541917484 5.793756386330856
Sn 4.336551325434428 4.322515897865534 4.97031244170261
Sn 8.9805557849603 11.135675195614848 1.7388916247169899
Sn 7.680668427634073 5.134919275346001 8.148443966349943
Sn 7.560785342277775 7.4729659396111785 5.156042546484999
Sn 6.863580075989692 9.792753536406078 3.3921010401347758
Sn 8.621719225476422 12.361327650979762 4.468792565924021
Sn 10.283990339652352 11.078594008375203 6.826482900582046
Sn 4.838124048529401 7.049912014525065 6.171160595522023
Sn 7.301471315987783 10.344899241018238 6.374317021151832
Sn 4.174688232001167 9.957962530129235 6.34429180235213
Sn 4.481368910161055 4.494341438650038 8.133840596042038
Sn 3.0143560316692506 10.830127373586011 8.869950923354764
Sn 6.756748695700174 7.599602496362828 9.52895953895787
Sn 9.353637178660694 8.241756059313824 7.5714432616770875
Sn 3.8103604012666947 8.028403933909201 8.924680772429843
Sn 10.712844691069755 5.358720866643712 8.412984742324713
Sn 7.506451951766265 6.560177176346371 12.217724731535089
Sn 9.869223694106203 7.544828918461905 10.535887157084025
Sn 5.958911833795144 10.500858088033812 9.072285223670038
Sn 9.271509044269468 4.410553299430398 10.840191422940615
Sn 6.090055064540101 4.291572807196564 10.746802342266854
