23
Energy = -80.07394892 eV
Sn 9.957437439392198 5.248417781830313 6.721526634672095
Sn 10.06422290441569 6.170493839413916 3.849262068510929
Sn 8.030573557109113 4.862799643786432 2.0199936436089674
Sn 9.24120284679074 8.264641575781038 6.068905789844499
Sn 9.033905626794203 3.240475930005296 4.6125463085204546
Sn 6.572367481272373 2.3102184681682463 2.9593482950101873
Sn 7.897102126793578 6.846957659665268 8.507841713725249
Sn 5.553635317034603 1.7840662642315206 5.841055122944938
Sn 5.7655083045031095 5.086814062145804 4.09198532664621
Sn 7.3443510316268235 7.792294227561614 3.5642905687223263
Sn 4.567061741429726 3.36682701588789 8.424383908625764
Sn 6.916193822600377 4.495031478176746 6.792151536385013
Sn 2.5879625008706473 5.515111189928707 4.137186585006455
Sn 3.663245991523275 2.760119276641089 3.374823871035785
Sn 2.5256023489219825 3.1009102142307885 6.194609109339613
Sn 4.459507067112285 7.465141066697727 2.554575043486599
Sn 4.78967722275224 10.510421316040881 8.105553373986597
Sn 6.24669555492929 8.421634934811173 6.5235563241265835
Sn 5.322987845188784 8.162546511583672 9.724392627297414
Sn 3.3242345686038037 6.051053143873332 9.808571145270667
Sn 4.068258590527059 5.954255451759895 6.8756846885315
Sn 2.4709369645241086 8.526476785197406 8.298741393432817
Sn 3.5626125220443456 8.418881026768577 5.268821188735665
