27
Energy = -93.36887562 eV
Sn 2.214996770909302 3.631724052927405 8.86683132157535
Sn 7.212807061384677 5.231270202771011 8.007726443324325
Sn 1.9628291729775813 5.6910047631317475 2.204912967814289
Sn 10.309369048202976 7.644205495244236 4.950353150779645
Sn 7.157224940165182 7.769535651345796 3.252509450281232
Sn 2.251588018063151 6.590081717485288 8.86709643599054
Sn 8.914744222103677 2.6614535051549586 3.9579291103248666
Sn 5.749459097704227 2.023754621385736 4.536118845035127
Sn 9.795343610618355 8.047410438905702 2.028261733105556
Sn 9.805392787213961 4.850694099066689 6.052478126838875
Sn 3.2237596417070846 3.0605130374008107 2.379344833707144
Sn 4.473655717403965 2.0064663420065143 7.590793048124672
Sn 7.618254714308932 2.4195433804960946 6.962084091384343
Sn 1.1705210834878184 7.8209406032056705 4.119430723367581
Sn 0.13558179067591006 3.0862393581730094 6.743100754372677
Sn 4.699579492132024 8.229699750342984 8.046965879703471
Sn 3.7745410657536977 6.471809335956284 4.545715811681219
Sn 0.9450927363790809 5.85378713709403 6.302216342815818
Sn 2.6868065720068017 2.7851635433904094 5.386800525370371
Sn 5.047573244703499 9.071555447243126 5.245886755163201
Sn 4.958238799274498 5.827079116550192 1.8113361441182223
Sn 6.220810530402678 3.0804225266765974 1.741114867608676
Sn 4.330063196113902 5.118885390359213 7.117556884991819
Sn 9.432964493919835 5.3373921135571 2.936186432369357
Sn 6.745050452351477 4.956272844506642 4.643152695062075
Sn 7.382396833542459 7.862250722471767 9.31360150812409
Sn 7.716546930341576 8.020174670468627 6.417234222440601
