20
Energy = -68.82038305 eV
Sn 11.797665113821907 7.811650445834641 6.051573181973246
Sn 12.51878117460516 9.613470410778215 8.18386263559118
Sn 9.753213719301321 10.444315883499346 7.169037908501783
Sn 13.31541893075346 11.222971992041712 10.466307565351224
Sn 10.574809253938833 10.087391253406556 4.428808270723547
Sn 8.714516128991841 7.836171231509105 5.144069580231313
Sn 10.3858503641017 11.326030128353406 10.004511082074321
Sn 9.769402021510054 5.46799712050727 6.693049776341326
Sn 11.76426613324127 8.760420847105555 11.236330250269832
Sn 10.348350552893365 7.31744529533555 8.970726704478086
Sn 7.13801159661298 5.4314391534686095 8.393331226645278
Sn 7.515742655962245 8.590764418871796 7.930400180076089
Sn 8.946158412604843 9.612711217573832 11.956849332940868
Sn 6.300969527464907 10.27370227197525 9.992525982891244
Sn 7.453308845872783 7.355630145686396 10.741836665491409
Sn 5.831571010846567 6.818261572615787 6.08590893224006
Sn 4.470353639912734 7.7650143398960765 10.966940848678451
Sn 4.072619356715387 5.8599350630132925 8.672039784004175
Sn 4.152901737023818 8.95968414864655 8.271536394737476
Sn 2.8745976855231343 7.424082219771535 6.277206523767207
