26
Energy = -90.30626282 eV
Sn 13.329355562169187 5.711634433038127 10.48932244898277
Sn 11.301439932746298 6.516152972415293 8.485648299358617
Sn 6.062724691803584 8.16399302346847 4.781926674235676
Sn 8.476982459417375 9.496572141685785 3.3963392269437693
Sn 7.410193113425885 8.870166415059927 7.680758975748181
Sn 11.65815694988629 10.881581565492064 11.56248404484082
Sn 6.085398158110599 11.064244572664384 12.129834043207417
Sn 9.78466584335259 7.538253969080349 5.854561210612794
Sn 5.58452169879417 5.190262532485935 4.578047720080658
Sn 9.003751625398635 11.560650827320284 13.159605452445351
Sn 11.222377593911398 9.655096748912342 8.720122619583378
Sn 10.58185672806399 10.340914495410289 5.394263524934825
Sn 4.692634362295404 7.048530955004543 7.198092676404066
Sn 6.285612716212832 6.573367666212451 9.795983092693133
Sn 9.759674131717007 12.158408465081301 7.7945199473595705
Sn 10.788708515523583 9.274827737407795 14.093096124313204
Sn 11.66567110436459 7.698095930507176 11.766679161037375
Sn 5.137962636690267 9.651370658737248 9.555991246502062
Sn 7.54649707995735 5.725738069458431 6.771396711356674
Sn 5.0960106366142615 8.0501558759266 12.087467385968006
Sn 8.006379210637245 8.631559487445335 12.756490907930301
Sn 9.048250486220558 7.783300262756941 10.082736183104407
Sn 7.617303172729287 11.213115596032871 5.8490541936647205
Sn 13.793010668398317 8.454210569875018 9.486191094635343
Sn 8.242884137794986 6.318238450816318 3.587634169098792
Sn 8.540338325480759 10.902173458206194 10.25586525297469
