21
Energy = -72.78268653 eV
Sn 3.203799801458354 7.65920263256554 7.430173266762595
Sn 3.175722620101989 6.799974524506261 3.8261161677833684
Sn 2.8523884094073044 4.543083266729716 6.478480574468505
Sn 3.355963720555648 5.426009838377343 9.356406953948097
Sn 5.425781000095278 5.337677487704922 5.134933840969993
Sn 5.809272211666217 4.360937862499857 10.815495199846623
Sn 4.523795565862967 9.455123309906398 5.178178178142434
Sn 5.46252382484248 5.421186943011002 2.0813260026426397
Sn 5.765905630400352 7.2718389871356575 9.664620622194686
Sn 5.261293238231971 2.6614524369906927 6.4421917292637225
Sn 6.899426082784984 4.464257595310662 8.105188377506849
Sn 6.526468739735371 7.565580345906699 6.667568925366017
Sn 5.343784627159028 8.503021998733587 2.37707976838111
Sn 8.679933281891406 5.295500147389358 10.480657376045912
Sn 6.945148741206694 3.0933753665260824 3.819761417304884
Sn 7.514469590685503 9.506456613557773 4.3045851595114994
Sn 8.410134359388625 5.5614431702899045 4.57237581201193
Sn 8.086734892736292 7.256022771876813 2.153895103034005
Sn 9.735617989109738 5.247667249169346 7.418909876775857
Sn 8.80127634624744 7.880629732186331 8.967978345914656
Sn 9.641234057827026 8.112185062149209 6.160026653103503
