24
Energy = -83.36685134 eV
Sn 8.022780986559342 2.906622880698159 2.8455938017829747
Sn 5.843469710841167 4.602805378119831 4.023298007423125
Sn 3.3783908209040834 4.215560302198405 2.5049544284185754
Sn 4.941864410813606 6.734365889381898 1.729306998335057
Sn 9.479230677917235 5.386849218102133 3.6499244408225753
Sn 8.236306892768217 3.3865733936825553 5.692002048816261
Sn 7.218297412808595 7.40738160879885 3.5724731242644574
Sn 4.291953235188853 9.04813430275717 3.6860639800165917
Sn 5.799353913681269 6.397532932785269 6.388683258185568
Sn 7.2590487886903885 10.271503952591274 4.507901715516189
Sn 2.2298096961732177 6.865220602863003 3.289788133563698
Sn 10.19601125386349 5.841360514287746 6.486750018165018
Sn 8.531842920183879 8.366174189240258 6.425513292227518
Sn 3.0974127056402203 4.749355036660678 5.639101869814315
Sn 7.106873711888379 2.0731944545667136 8.03490988274764
Sn 3.0431617544318614 7.773038001418109 6.208854768005495
Sn 7.84326872108709 5.409045946332492 8.393934999803434
Sn 5.557919574125331 9.536755665861174 6.9634860958465
Sn 4.197435256123995 2.903544798495039 8.056068563488974
Sn 4.522418467129409 5.6837824677490705 9.099679811322442
Sn 7.697190841552757 8.880017612930255 9.248933608226304
Sn 6.460604120974832 3.6272157823520317 10.464215309417485
Sn 6.802947647138625 6.64728456299789 11.047400645590615
Sn 4.688803126199029 8.616095188893839 9.800275632459119
