27
Energy = -93.66598302 eV
Sn 8.590054201544858 12.924188923509135 8.9552379466038
Sn 6.812184655560333 4.6153207085176104 11.152403547663472
Sn 9.91275130987613 10.184424111737696 9.582996466860527
Sn 9.566825526776645 4.799440519927554 9.532550233722848
Sn 6.91592892316303 7.1739897459386786 12.500493615270486
Sn 10.685187434118614 7.326967963388894 8.022003496669315
Sn 9.309361536168632 10.965377470259131 6.683382173592337
Sn 10.940854401758376 4.64658850859994 6.7418199680832585
Sn 6.815226213184713 10.507793425877049 9.059953433091593
Sn 8.181626747790455 7.685147949333526 9.920228335055567
Sn 5.44812025398361 2.190888020482465 10.102567085062258
Sn 4.232091015238763 4.657824342339552 9.074222761851528
Sn 7.292270482269921 3.475445247827342 8.229634570452882
Sn 4.873764237810377 7.353735469143497 10.321586563700103
Sn 8.68591279876839 7.249259240369388 5.8625134500069755
Sn 6.768386772260885 12.78994949426782 6.704247364713581
Sn 6.207074867157578 6.803167860199263 7.641955117661365
Sn 9.441903183143967 4.676878817749785 4.184020812403185
Sn 6.600772910393383 9.783757794898802 6.173406860291224
Sn 6.866163270185373 4.542639937764724 5.550918643954467
Sn 8.228643268631112 7.536864596805576 2.873402986382523
Sn 3.8759107425450834 8.388163666046324 6.46196492465089
Sn 3.8854356199470197 5.271986135022461 5.975434652319021
Sn 7.861194589512513 4.721272418368709 1.7156330911551558
Sn 5.597999432912392 9.00470076838627 3.5306261112956716
Sn 5.510857827841103 5.873552812953804 3.1295820457719317
Sn 3.04208024795439 7.464548932468953 3.699950327466859
