23
Energy = -79.2835057 eV
Sn 12.846696815731528 7.497890469695105 7.171831723055065
Sn 10.021064922907648 11.106782691794804 6.365208651809132
Sn 13.352898108196102 4.747640974483737 8.353815228152548
Sn 11.445726470989468 6.4454841644743235 9.84203166714915
Sn 7.328898767682628 10.844069568849987 5.241325488674592
Sn 11.086770309790396 9.387266817786374 8.918153025578203
Sn 10.117892142910117 8.19727187120954 6.1264808459745534
Sn 10.894214964073898 5.130003224095931 6.883829962316387
Sn 8.817781289777958 9.243591790617783 11.024755941014801
Sn 7.074494680782866 11.76419379872071 11.119662386590942
Sn 7.437917620881974 7.108979489426631 5.928211455768707
Sn 5.811737382298679 9.078689931530949 11.791519361157
Sn 7.681601393118791 10.760308176276352 8.403661118351321
Sn 4.621518032945275 11.617571464536699 5.462567760777926
Sn 7.322958905609475 7.727333930598407 9.0003753877702
Sn 5.025559342199721 9.388492534025575 7.40669833998437
Sn 5.280258459728957 8.583486637451406 4.567536065703801
Sn 8.245513480809363 4.1344485078525635 6.110790176151887
Sn 4.426880026078643 11.11497917543397 9.826867207447291
Sn 8.834130423324167 5.072716931565202 9.194274611486358
Sn 4.26704132855614 7.6584741770735425 9.664193622620873
Sn 7.097930284255657 2.8779888894971695 8.645784157169329
Sn 5.670675932849496 5.382370862740046 7.793709054961413
