27
Energy = -93.27770067 eV
Sn 10.836009441656772 7.147006657304897 7.950135484279923
Sn 8.045821137255755 7.717128706487474 1.5301941582194125
Sn 4.911709862726459 5.630576825251959 5.703081562591656
Sn 7.447864853525886 3.827736604619391 7.615042249760874
Sn 3.967751249040962 9.027894130829738 6.496686513136491
Sn 7.927617285605131 8.166750625010485 4.386118375383866
Sn 8.499338800968898 3.5785830176736697 10.550461332988043
Sn 1.3005344495110411 6.365186485230305 2.6480985403133386
Sn 2.0160467769336297 6.77378018061652 5.689489998051676
Sn 1.5031299649315975 8.630790097559766 7.870747832032859
Sn 5.550161142697456 6.969864716243811 8.269483220171926
Sn 5.5167725219956045 4.196855652855432 10.058744950425188
Sn 3.7882636095074353 8.001872015241833 3.5151789066872934
Sn 1.7193165280494265 3.222874378372442 3.1634882419585835
Sn 3.5242838276818955 4.736825281857284 1.3239887325153439
Sn 4.744223068429344 2.3058150103193182 7.909146745809955
Sn 10.697557294320385 9.051737839666878 5.601849965657627
Sn 4.649896950887692 3.0560810093828645 3.916634954113839
Sn 8.090299645472186 8.593460334818397 7.28002462838358
Sn 8.70202974935131 4.996419702745768 3.2146206186599504
Sn 10.592731733461463 7.307370756246969 2.992576808994206
Sn 9.227488110354466 5.796827232185356 6.014164227419729
Sn 7.158764148483184 1.3375243872937728 9.326549964512116
Sn 2.5612579508773132 3.740724647650604 6.123184789551723
Sn 5.7978081865822695 5.879800969405369 2.846135489567628
Sn 10.836009441656772 4.900456946265161 4.837103507047281
Sn 8.280304183786082 6.365521398589279 9.66452847118159
