25
Energy = -86.77067806 eV
Sn 4.9331437767357915 8.775884424072796 3.0453704200483673
Sn 5.745964515261826 11.578551175586004 3.0450408931342046
Sn 9.067254330369133 4.879105659628819 4.084906290804042
Sn 2.536340338183791 7.1721659907131095 3.8407772408366534
Sn 8.192338053716133 2.901298604502699 6.193363920460016
Sn 2.18291443192835 10.182041690751973 3.137866717533672
Sn 8.834917029549908 7.545591552769448 5.338299120112198
Sn 7.0311732103008255 9.928967155737011 5.211188385923169
Sn 10.983940185911 4.448496680609901 6.257687284049079
Sn 6.830668974506294 6.187004065024986 7.138616926770348
Sn 4.0468518811285445 11.061751065084843 5.45432256680568
Sn 4.670215436718255 8.00772154948084 6.071719720415952
Sn 1.7807941968770664 9.09071628173086 6.0000186213404625
Sn 10.602264697060063 1.8510566504475068 7.635568074130572
Sn 10.26972565685293 9.408910907861317 7.426045407384966
Sn 7.423017785292727 8.437944854484705 9.136254451957514
Sn 5.334406246279468 6.422259215464623 10.052733686544892
Sn 10.249083817267637 8.385918266311574 10.427723120355179
Sn 7.744941916876282 11.00284928732958 7.88499797836174
Sn 9.947283393336122 6.393845769030102 8.261998213867402
Sn 5.944752757848584 3.7233812747892086 8.461826915483405
Sn 8.94496209979386 3.688502587617555 9.173882555452263
Sn 7.026602488675976 4.3106338812745495 11.43521179342375
Sn 7.6621332433015645 7.285986796626503 11.973773745716317
Sn 10.082529352922993 5.39763442976428 11.379025765784117
