20
Energy = -69.99274515 eV
Sn 6.125652032447609 9.29539444564039 5.2238084564584835
Sn 4.491735629668031 5.7108428559772975 3.1642545531520945
Sn 2.1285037771679325 7.2197988665891755 4.052347628847351
Sn 9.069639219651735 11.054956003267458 9.551603753238576
Sn 7.718095417323266 9.134273139633283 7.725231306449781
Sn 7.3562932177771065 6.644519277579317 4.942639476846892
Sn 4.268585468946817 7.266053677651934 6.236590442211143
Sn 7.004531265946553 4.1378336120922015 3.5083451809056805
Sn 10.942434731296498 8.842408731656262 10.490190451265047
Sn 10.784185567631063 9.645962248029603 7.449479786607823
Sn 7.816191616129028 8.575824574463601 10.782900160639215
Sn 1.6690743308566687 4.449810471933742 2.8576216378431365
Sn 7.163231540892794 6.344305650878512 8.895108533639627
Sn 9.535770699452348 6.740779483749802 7.0292129500717255
Sn 4.30523549714524 5.295974059569134 8.366621015966379
Sn 2.479958566401299 4.582114021407666 5.769560988802277
Sn 12.15382577608092 7.048574128187667 8.366070947016674
Sn 5.625278445419217 3.910678568977 6.110084750526461
Sn 3.949303964627445 2.6948996922671835 3.7833840399051244
Sn 9.848773972885397 5.915519419715718 10.074834354163336
