26
Energy = -90.77673761 eV
Sn 7.054939174285664 3.542899605525972 2.3564535884576165
Sn 7.665435725615502 4.596303166547382 5.621249545974359
Sn 7.949791687206418 6.2284479065777685 2.9883811704102587
Sn 5.236218251525451 3.047101389901493 4.7247964541795895
Sn 10.047602863960275 5.505286964495893 7.253340308362444
Sn 5.130867126435406 4.328280716166612 7.509553486355738
Sn 7.834550859741231 4.368143231577355 8.98644006983186
Sn 4.789909356789828 5.4049925113660535 2.772455028003652
Sn 5.49228328692729 6.897168868649001 6.175855144099299
Sn 4.88482619580045 6.851551424662328 12.40364308201967
Sn 8.331929653252521 7.860651926693006 6.2641775052552315
Sn 9.00139429566928 7.278199528687262 9.530139132993092
Sn 10.285408213486555 7.953678622417152 3.6044444572293997
Sn 10.00272618667553 7.5046453300250135 12.346416091973694
Sn 7.619109696099388 5.583867004565843 11.907375433346633
Sn 5.809539542234673 7.002920537379016 9.538994542974834
Sn 8.121156161994273 10.283316363405671 4.2762947969688145
Sn 3.3602373705914887 7.5577983107773745 4.162596952629367
Sn 7.1868380482750345 9.62722278486091 8.74886592004137
Sn 10.21250887124379 10.57535090107187 2.293113142323622
Sn 5.9169813480140325 8.493901131049109 3.2726077289791555
Sn 8.200680657761067 8.798441964051133 1.2088377511877093
Sn 5.4365588793420185 9.638794885963128 11.303752530465657
Sn 7.342824502334981 8.19421135683078 13.649843624954736
Sn 8.680775759922746 10.071778667308545 11.383671695376997
Sn 6.850348747360787 11.112159552496335 13.414784825466494
