20
Energy = -69.49010519 eV
Sn 3.764125653032028 7.596035143114423 2.952940200903721
Sn 5.2033945175902465 5.906661841903214 5.15090787958975
Sn 8.672387514022613 9.553558955518845 5.592846168765761
Sn 5.914263700211027 8.876684501252422 4.524843476517575
Sn 2.0420204413865966 6.423458561260332 5.10483866841753
Sn 10.688691281665875 5.228601135708708 6.226257142403706
Sn 7.971162292429683 6.664044719015086 6.709235315556799
Sn 9.544882478757891 7.04953306422102 3.9588057058293042
Sn 2.781834146794243 9.371508443311031 5.323114904562233
Sn 7.79702836466587 4.652212926761062 4.471677939625784
Sn 9.423729234748766 4.754976138487477 9.095240623223107
Sn 8.785802376019792 2.795368519567603 6.592905258317344
Sn 2.096922391797046 7.59909687429484 7.876349549315042
Sn 4.990582084319741 8.321380460949635 7.3396346887944075
Sn 4.063839796137488 5.2769648501033215 7.851592955908873
Sn 7.68253898536623 9.26453261124805 8.43883646088678
Sn 10.637538525281004 7.548938652143984 8.126031145343632
Sn 6.565775874434469 3.456235267628776 8.579827381037111
Sn 6.5709442115777135 6.265510751369523 9.551488961865886
Sn 8.96220750683966 7.554367959218898 10.692296950213734
