26
Energy = -90.37859365 eV
Sn 7.742377035506879 3.2854895665656003 7.4724913723903565
Sn 9.689422132685674 4.831117979463913 9.43409122854369
Sn 7.299453676051807 3.065272097865512 10.464112148408176
Sn 7.751377267351997 6.433227646854183 11.371209111106944
Sn 5.249990937233359 4.5029019641584025 12.025968689258237
Sn 10.164965191709303 6.4978658269969625 6.896044232604619
Sn 7.162713541055344 6.133577490127777 8.286462260554934
Sn 11.980419664469997 6.241678701154649 4.5380929094073625
Sn 4.7995466311442065 3.8218297006616377 8.787352111267808
Sn 10.310182270305589 10.784247879234352 10.144314269951774
Sn 12.121177395496504 8.917091098350646 5.780170758430818
Sn 7.677149946671783 11.766731570888306 11.322247641138393
Sn 4.786204710042973 6.779979887421804 10.277114304534003
Sn 9.78742113382032 13.824214789381228 10.164844137776678
Sn 10.168062529420967 8.258921219954972 3.392634710911674
Sn 9.469319673132814 9.45121684265873 7.47021702580628
Sn 8.039129183068138 6.759585792283331 4.927618789846303
Sn 5.695018435376838 4.899285715852958 5.663073118597514
Sn 7.287804268532286 9.106274290625207 9.654652979952825
Sn 10.804247709377902 12.478205781425826 7.669929004712806
Sn 4.144384938103853 9.219613135914589 8.770520933991081
Sn 3.5717300654280852 6.50347840117589 7.373389183789387
Sn 6.037694119607052 8.358397428151886 6.608184473777151
Sn 10.214021618793053 11.001965382325956 4.66900649688082
Sn 7.823992534721176 12.373643276377793 8.474608283666138
Sn 7.42834344193516 10.973936049625324 5.900155692605606
