27
Energy = -93.97680241 eV
Sn 11.073294185138279 3.0932931021363648 8.45611777342823
Sn 9.422276589299331 4.862910864093909 6.522972332813802
Sn 8.344379399456157 2.1302359672251816 9.769302025661279
Sn 11.17156585568285 6.171845688934688 8.980667911304003
Sn 9.849469761229166 8.216812167385152 7.076141738436811
Sn 9.837055477748702 11.234217398301185 7.322484085093356
Sn 9.111909970628457 1.6145767255114474 6.779250360805498
Sn 8.514270893159619 5.19538139662752 9.568044595298765
Sn 7.044127575218717 7.5272549561309825 7.727067176825747
Sn 8.540058237300071 9.485547732252803 9.704000059539002
Sn 8.917476670872363 10.008923381692753 4.554600580692426
Sn 7.605551613218423 12.409854607942119 8.99133114979438
Sn 6.703202970362122 8.242170789758148 2.7656071106533404
Sn 6.882179252052673 12.269487954540928 6.04202560824437
Sn 6.871405925135725 3.4752087740237894 7.312540868574244
Sn 9.510619350455565 6.714070269408543 4.145182495577364
Sn 7.016428290671288 5.389873173887 3.3749736245091375
Sn 6.472059150051705 7.029941740683531 10.858711435500155
Sn 6.23949524347098 9.391976992017096 5.613859794187981
Sn 3.8539141302648483 8.520910506472589 4.172320818735494
Sn 5.753057915397001 3.8712710992579735 10.160467710064777
Sn 4.018300403804426 4.129075124535943 7.556141072755994
Sn 4.295283301349451 6.839647075417116 8.820689417036654
Sn 5.222968064573147 6.204872653605589 5.558801817200159
Sn 5.644066441047217 10.296250936167745 8.574034632638204
Sn 3.6820874006859174 10.951317627376149 5.950522443818619
Sn 2.8610173795119236 9.424229764880021 8.472835966341636
