26
Energy = -91.04336405 eV
Sn 12.35695891477934 7.139163749082886 9.326574854560423
Sn 11.89800899227306 5.751504633279718 6.629626009247741
Sn 8.963162846103073 6.076959496478543 6.06563637531886
Sn 12.224627918169457 3.932791971704762 8.995178414178238
Sn 11.604476343733264 5.392301971933403 11.65401760341938
Sn 9.362012891680545 7.249400249631574 10.766191324420673
Sn 9.968629501420333 8.135389688296511 7.919665208466273
Sn 7.069496549445362 9.435848552379639 6.772874640864052
Sn 9.687139212230587 3.422428508524052 7.352492872616311
Sn 9.315925522632217 3.95174141804773 10.337164720070193
Sn 7.673205889552942 5.770916340914858 8.715635878002722
Sn 6.051077711801912 7.30868650361364 4.97300762354987
Sn 9.989321794253785 10.129076809569291 5.568536039236208
Sn 7.901010236230733 10.463789286726731 3.3151039229620745
Sn 9.175684309380664 7.698173964234485 3.5276629312880967
Sn 5.577596011214349 9.29317443432041 9.439239282515619
Sn 5.2060249787287045 4.603893233041433 10.003758989390123
Sn 7.624087719487638 12.194350543093059 5.72452940494084
Sn 4.575030691663902 6.949399975556102 7.75334643909741
Sn 6.438340291869181 8.15986768517282 2.1992503003983335
Sn 5.029798467159527 10.321489624752573 4.375948814679084
Sn 5.304025763525848 11.869637201574626 7.949700989058328
Sn 4.221192175665 7.171972819314733 11.158107491651027
Sn 2.4466913306381843 5.471934486487355 9.125695867860475
Sn 2.1319129452041286 8.425139359823262 9.40741735374716
Sn 3.4056439159714014 9.851175233380731 7.027061341214714
