25
Energy = -87.11696513 eV
Sn 3.2593491140737814 4.941903478458833 5.4339455392552605
Sn 2.952267860405081 3.836096679321549 8.28885810072748
Sn 5.163563508519834 2.756247644573487 6.2669220739734435
Sn 2.870420452202741 6.834480340903766 7.966955989365291
Sn 6.334784005730627 5.421429030638572 4.974262353686807
Sn 4.253672687399321 7.855441075244474 5.309432675600108
Sn 4.92199700194739 5.690848062097517 9.973921136330674
Sn 5.642851638618358 2.792192811085808 9.368924632960429
Sn 7.644911531341465 13.549378548369091 5.402617617636647
Sn 5.983884481945317 7.428901080563557 7.761777595944932
Sn 6.080027525910671 11.014932228044993 5.340839932126222
Sn 5.975353606529688 12.614402711433524 7.958882786272084
Sn 7.23983349014701 4.675901507136786 7.7462334064279625
Sn 9.409296306797605 11.024352299558617 5.735672641811026
Sn 7.591696137261494 8.389883648113422 4.928371209576071
Sn 7.448576044074114 10.019708552994668 8.059141134635142
Sn 9.150894758901325 3.622170671095233 10.009532491997577
Sn 8.998986492768983 13.117980493803207 8.031793539505465
Sn 9.249485598893397 6.666933347336962 9.711201266513243
Sn 10.378061206604643 4.6614202554315645 7.324031300592343
Sn 9.814338921143062 7.537031860945834 6.777977279761695
Sn 10.258728698186978 10.430115041682267 8.879156937745927
Sn 11.857867384586564 4.839264983787399 9.899924316527096
Sn 12.021990587903927 9.46584928220455 6.521470421218113
Sn 12.141252779651373 7.581944693779271 8.915204956873575
