20
Energy = -70.0297813 eV
Sn 6.656998585087767 7.400338767697403 3.2645443973972426
Sn 3.7070951263032588 6.7868074731030585 4.666757860364012
Sn 4.673768629478436 9.56340120835503 3.7902616665685884
Sn 7.68546517657233 9.722366298746762 5.1530171918893855
Sn 6.868343987466881 7.0524563186072236 6.241217599632878
Sn 6.424570406249326 4.328185999684327 4.27945319617757
Sn 9.606118425721226 3.558496060912569 8.587359878167643
Sn 5.2086828439472415 11.354019472024712 6.155395709731549
Sn 4.199588117520165 4.110275731914093 6.336702751789202
Sn 2.9159191653752896 9.27804895128361 6.34327637696972
Sn 11.412680959701301 5.750319967320753 7.018815436340903
Sn 6.837614938351247 2.8659808909173456 7.328925153145583
Sn 6.266577503820033 9.425087651444596 8.068436801041303
Sn 8.866065535466307 4.830980905209767 5.914265032295956
Sn 4.3199766299641515 7.056111929634227 7.761208896673559
Sn 9.7774195841541 8.422277142414769 7.438357840192831
Sn 10.421935880887183 6.222981186867884 9.849716510225152
Sn 7.519174339143658 5.732487532387879 8.969176128957756
Sn 4.788211643144357 4.512552810233038 9.267744674421099
Sn 8.346493188228854 8.52952436782462 10.068067564600916
