25
Energy = -85.87063241 eV
Sn 7.643643595877177 3.4426287605871515 2.351805206557118
Sn 7.567093108902183 5.7014566108310945 4.296938397523654
Sn 10.264370992593367 4.629629596772972 2.8755036378224026
Sn 4.2839476407144685 5.710380397237331 3.035011431253279
Sn 3.227779545811762 8.623266300079722 2.8128946059915796
Sn 5.764324906364383 8.072894877881357 4.4368224053628715
Sn 6.210668421189311 3.0023912263744577 4.989698715455095
Sn 1.5043612408904268 6.272959407682618 4.235060783889788
Sn 7.057477957603715 10.147528523080073 6.287237234263155
Sn 9.998183840853313 5.096783491445862 5.797139165008644
Sn 2.0371570895878093 8.80930412086788 5.511011935364417
Sn 9.33645232870671 2.2818454092556935 4.74831157755653
Sn 8.212711891554534 2.989547874944876 7.581701901992246
Sn 3.9908748526116646 6.085953779483898 6.025714042241347
Sn 8.769836411690969 8.045808579443703 7.693058295202223
Sn 2.622220221068418 10.810815991462091 7.383480432215036
Sn 11.48692755060805 6.990954927637753 7.394824333802656
Sn 4.680952497348002 8.759095172886438 7.479791141608165
Sn 4.911696400582528 3.732981776159925 7.7647605586078665
Sn 7.131979176058194 9.903997225770196 9.49621808986138
Sn 6.963188100747385 5.808827086794666 7.993380370653269
Sn 9.734349341872615 5.2887644558135145 9.225335809774677
Sn 4.683902259561796 8.326686096226254 10.379742616755701
Sn 5.291091017544071 5.402647926191364 10.493539221784026
Sn 7.73406497458474 7.17210575001653 10.820273454379516
