38
Energy = -133.94028316 eV
Sn 2.7236484372304317 9.629138264644679 6.853115519442972
Sn 7.383729867295454 6.044319265988299 1.1908097223975496
Sn 2.8445316747551965 6.946660158083768 8.559433217469339
Sn 1.9504077271985423 1.581606920883365 8.65363174901421
Sn 4.789913118842667 0.43909497630939587 8.06421396577206
Sn 4.051346033122217 7.8396331176309335 10.894249819579516
Sn 11.010405239023184 0.44532096160853774 6.6251269680466915
Sn 5.388436244343572 8.04737739459601 7.062133548195569
Sn 0.07924235406717141 1.78384955473838 3.8078200939516575
Sn 1.7637711516527546 6.293597380862242 1.3800226723663593
Sn 2.702159228312906 1.4253661510345057 5.556727788221404
Sn 7.019369013091142 7.750523601753933 4.232813276205276
Sn 0.30884965497996847 4.8338937994126105 4.494352613589477
Sn 5.650725770317148 4.197634627164702 3.1264137687972062
Sn 0.459048761100039 7.596094962073253 6.555896639450934
Sn 2.1689748301384806 3.4656121474243005 0.0863819346262756
Sn 4.646392235888195 9.774253085263013 4.369634741622571
Sn 1.712836012978567 8.690747366252106 3.9301233591249183
Sn 3.1768390934410293 6.3487825829065025 5.55180748587117
Sn 5.42239507916561 0.9433137547721934 2.7169768042043145
Sn 1.145722269503297 4.592960478292146 7.429403116236458
Sn 4.083880625044244 3.652005501703385 7.118242496537637
Sn 4.929442801041366 2.01523591173304 10.752446441754952
Sn 8.652943058628034 0.8581511746540381 3.6229298822382487
Sn 4.468125726607158 9.973298271727652 5.276677204232753
Sn 1.4593403971964316 9.958388560952264 4.466168487075093
Sn 6.175564498976932 9.1118039727318 1.4207758686552519
Sn 7.368959114372564 3.864325183062362 9.895210162616863
Sn 6.678971390457642 5.0593783547767135 5.765451662077083
Sn 2.2917384183661227 9.774253085263013 7.503952153900733
Sn 4.790047186376675 4.977271200134211 0.07561146510712943
Sn 4.296637033543147 7.10327437926935 2.7702476931649977
Sn 8.940069648745743 4.171767133207559 3.2116026676837754
Sn 2.6909728934665487 3.6088442392079063 3.1723520436720722
Sn 7.7232977579382975 2.329232190502582 1.197325623697776
Sn 2.352780229348135 0.8419856003635144 1.8003201170162169
Sn 8.878778860765648 2.977466321868669 5.926966855708633
Sn 6.1857342212806765 1.6785969988075806 5.507689002334371
