31
Energy = -107.94236488 eV
Sn 13.174749057971784 7.442159421426126 6.331538200174854
Sn 12.702194469697941 9.221943450318117 3.9870092398937116
Sn 7.555692259170883 11.455371648798053 9.878596319764695
Sn 7.619566072106345 10.88535392082042 2.8176353703798025
Sn 6.4766833387730305 9.112125649893166 4.90468329313519
Sn 7.1360405955160315 4.975659015491729 11.670610026223384
Sn 10.963027246693917 9.251763356610454 6.714225855320488
Sn 4.970673792176576 6.675206743075985 4.0139080735930825
Sn 6.531299918232304 4.15843705533162 5.062462024588362
Sn 5.202955744620275 7.323188089431707 8.953472853929416
Sn 8.267987339821115 8.103846299741353 7.714526996399273
Sn 3.702038330514485 8.311985839300283 6.337059634183431
Sn 6.021012224343227 10.016691978740832 7.672164307154147
Sn 10.728673477021948 4.966381964294468 15.355855550906876
Sn 8.237820122067845 14.323550141170642 9.261962160091652
Sn 6.323379276221399 13.185758186208334 7.298405523626977
Sn 7.335201066123114 5.241389376276718 7.9462470619977665
Sn 6.496436599547584 7.319652444598146 13.668993135177587
Sn 7.683040224631823 4.601047915363656 14.729069247422121
Sn 9.334169488868797 11.931314325932133 7.557641848139374
Sn 8.133350050695855 6.598413100090646 5.107449371673408
Sn 9.41481866563842 6.900843577903586 13.473503333377227
Sn 9.862322976170942 9.415603977856648 3.9675048037322886
Sn 7.7511803053496795 7.990443898066143 11.043845088120547
Sn 8.10578824736208 12.745265770872466 5.0268760044678125
Sn 9.85113110044836 3.6222626198407646 12.66626100944527
Sn 11.077027922458868 6.558231552020345 4.406044767104527
Sn 12.061840772193735 5.833550995046984 12.803340751319913
Sn 4.3821526162054925 5.351421669326124 6.779758043063832
Sn 9.958116173665179 5.830375151062928 10.454210759540581
Sn 9.375306757798977 14.889713248225698 6.577197538152905
