33
Energy = -115.39856071 eV
Sn 9.13558801622683 3.867657217939412 9.968343174183428
Sn 3.233193586451519 9.495685754252568 5.937049479940368
Sn 5.892007294530225 1.6861900460181307 5.483174107425357
Sn 2.7070794311033226 2.5760119901409846 5.895744062551709
Sn 3.2660130444269724 6.602462264563921 4.913217971712421
Sn 3.762896059340332 8.980286315185278 9.042103514030543
Sn 7.086316870003274 5.856207609636176 1.4654948472904785
Sn 3.1431327740078427 4.084294515117507 3.142814695927762
Sn 9.0849973133746 6.7796098726119585 8.628459287240474
Sn 3.5875806773965526 5.6255088536181495 9.317465503263827
Sn 6.623834947559224 9.978891251504084 9.290600180691985
Sn 3.8202505819054373 1.2520055746454524 3.3484615768663084
Sn 9.02620475291389 5.367366373584507 3.9869574627545767
Sn 8.090383039083722 4.417738618896445 7.08106508056748
Sn 5.63589813047288 11.256007099383789 6.643242516928867
Sn 7.134850736450154 11.256007099383789 7.592850586575786
Sn 5.774394149146135 8.070308952767705 2.951314134254438
Sn 5.9756728099700664 5.453536904562412 4.589881469209085
Sn 1.7240969711595808 7.098735964240316 7.41836595967529
Sn 5.067891324105062 4.074301049639375 7.217793541746564
Sn 6.319948941781653 8.254160517706902 6.199754004669261
Sn 9.10412901848669 7.896582630275418 2.3261904690009767
Sn 9.495168191292072 1.7572885779278153 7.922240795322816
Sn 9.669081377562723 7.906522834699995 5.530245071915702
Sn 8.59689110145258 10.41009001601667 7.086246677721949
Sn 6.658831126538749 2.4295571957522504 9.264085251915802
Sn 1.131649731972056 6.28048169557282 2.700484034794857
Sn 6.146449737446125 6.927466994985473 8.882981078735266
Sn 0.794572365875973 4.8873750226985715 5.388085731690105
Sn 2.8458204193707126 8.89847350562238 2.9410110306275197
Sn 6.5135517579325315 3.042740396805841 2.7906928652009655
Sn 8.902589531551858 2.3708783627865033 4.91448286391834
Sn 7.757671673038452 10.079732345998696 4.10625722725083
