39
Energy = -137.5140221 eV
Sn 6.377552408861773 3.148285911837179 0.34057606746089125
Sn 4.7564705065114525 5.354201613932665 9.824840780676924
Sn 3.11566702452248 2.8931524986439836 10.425911039565943
Sn 8.871306909587451 4.170825647169213 2.2642693608508937
Sn 3.5219810606166706 7.76175726200747 0.5918608813453845
Sn 5.133182251667022 0.3588468315167295 10.82473623940087
Sn 2.059574346296756 0.09097857736817198 10.201709439535291
Sn 10.141835829610017 6.068341747331399 2.75348876236013
Sn 1.5907016688310407 5.5579303195911995 0.14699897957260216
Sn 4.266954646742233 5.29404241569492 2.110472190932936
Sn 7.273136091954464 1.425591488371962 2.9076359989185927
Sn 7.608526516755684 6.938056945232357 2.4222593859047787
Sn 0.09769963973776859 1.1205733200023515 1.3685596271508453
Sn 1.5914759974010884 3.552349411254598 2.370222162463942
Sn 1.076156896044359 8.594429236410196 3.032888281472315
Sn 2.4747762923818617 10.449565342005291 2.388398657425719
Sn 6.530482389880622 4.728824728566874 4.309207332847244
Sn 4.355257487160973 2.0330652560552456 2.6067401380817645
Sn 5.326788143490625 9.775461980492747 2.721627756060341
Sn 9.684080355390265 5.97181567936639 4.689452037508463
Sn 10.015630067535799 7.986939064773728 5.436675640889217
Sn 2.5667308700601006 10.614348403732379 6.031875299037197
Sn 7.190517483434524 7.703452585081191 5.329034169332916
Sn 4.256852494204591 8.112142967749172 3.7046623074660263
Sn 9.684080355390268 4.914486702941508 5.563324701825853
Sn 8.980382484086519 2.9814138279633737 5.220461144540936
Sn 1.6960291402419692 5.956358389204685 4.550460476351935
Sn 0.09790103337267188 10.64627860038811 4.2763760243828095
Sn 0.7935183096477197 2.5674175848499865 5.163439459916818
Sn 4.077518708648933 2.5116804036672558 5.680011054172368
Sn 5.6247872684389195 10.48962690239865 5.733258950321877
Sn 2.0724114400775915 8.786070445792634 6.0627394531090095
Sn 7.769719773206897 5.243001227932664 7.096398160781008
Sn 0.9108990375530808 6.313203692282871 7.4335403283048445
Sn 4.321145583182235 6.193341794039028 6.14544224931293
Sn 4.11208628652793 0.3839366307495746 8.506110390118078
Sn 1.8643680891877283 2.286003774645937 7.995973463273564
Sn 4.46333666934224 3.852361506718008 8.364851979379274
Sn 6.713271445564526 1.9744484185034248 7.338210697654866
