31
Energy = -108.30946452 eV
Sn 12.074010678867438 5.136765921289688 3.8756147812701
Sn 7.516124765809644 7.978073334828503 7.400121645443764
Sn 5.55768107799519 8.803853495848314 13.284610863877623
Sn 12.332063959198507 10.098898433165365 9.296915648817231
Sn 12.56703377516155 12.217633297820342 7.044422933162659
Sn 10.628795605225493 8.522807445703485 14.087351410316892
Sn 7.594173497733801 4.9121170160428465 7.757533517417418
Sn 9.376019689257648 7.040392972458268 9.51731857156409
Sn 7.292469992097542 11.308780022778059 8.848472743747596
Sn 8.135435869845944 11.566715502328494 4.757669992714613
Sn 7.514898770935383 10.45457371658686 11.650826868944932
Sn 6.468786136437737 11.670931041267606 14.122259599697694
Sn 9.569823374583935 11.444465447294894 13.826222313680539
Sn 10.122695598723743 13.464635074618192 5.793973472228393
Sn 9.210995141892798 8.802253748205283 5.115574527681754
Sn 7.3674549678344405 13.71178321508622 7.109926643244402
Sn 7.991665880451524 4.926127879544276 11.02055137722443
Sn 9.825735139983038 10.776064478500032 7.472165601011369
Sn 5.939587550891809 7.274329002434387 10.431043556331526
Sn 7.892343048206155 9.387422803256687 15.43657185360871
Sn 5.531185336404948 11.566847750047808 6.207383251211524
Sn 8.148019385421877 7.294569234117503 13.008307558699082
Sn 13.71224961267324 6.782100597922944 5.747730657205666
Sn 4.9362411079537925 6.366878150865041 7.341797579680773
Sn 11.671422701098075 7.996420147796969 3.4254607663027667
Sn 5.017236388384968 9.343641590794075 8.395788955151408
Sn 12.283730750916689 7.14346743228371 8.474926744705185
Sn 12.243032650960453 9.366784853061969 6.077129211432337
Sn 10.211647903067265 9.334690195869698 11.274440314924869
Sn 10.542709762421381 6.128593591435564 6.097423107234914
Sn 5.190794147067077 4.502220879808609 9.736955593893434
