35
Energy = -122.5869848 eV
Sn 8.950419427258446 3.0645353128734447 5.457556749614469
Sn 9.416803378569805 10.041704466869886 4.087237289323658
Sn 11.050973326674754 4.72761928795111 7.8494373362646765
Sn 4.147772302663646 5.951335093375944 5.168627692370844
Sn 4.925185750562261 6.528507437113626 2.2872007471012936
Sn 6.38844473588302 4.0207559703956095 3.8481214520921974
Sn 2.455559364656546 3.8574133317103234 2.552445253159178
Sn 4.955075588633046 10.724525359547142 5.343165829677507
Sn 8.762154361443315 8.148610647215014 6.2982081564692365
Sn 7.404651194696461 3.6216122698007083 10.589583461030472
Sn 11.406877324418163 7.727773121640678 4.146317341333344
Sn 2.3611833754163336 9.75989493363461 4.241802921488111
Sn 4.734851975595484 2.7812891849322425 6.029647756560786
Sn 4.544110356854204 1.6038158569558707 3.1581324261575445
Sn 0.9273176321929377 7.1788338598736265 5.696995962454105
Sn 5.630201400242223 8.093169078186225 6.597646112898097
Sn 5.135478224629559 3.784225281459456 1.0677144447752467
Sn 6.715087761944749 8.710347483525405 3.6033475588103645
Sn 7.944090725933328 5.003192074682548 7.62070392091147
Sn 2.0554218545470153 1.9138762406094083 4.923508279956376
Sn 6.445828939325797 1.6371040655356721 8.186537639296743
Sn 9.169711614599777 7.8166514761099055 1.9457919847162426
Sn 3.941379381098182 3.951702315477954 8.901200858914049
Sn 0.0779990985418508 10.08281589560846 6.157528888649758
Sn 5.6327340408133555 6.360962682421524 9.009031034371475
Sn 8.73977653517628 6.0450929472893185 4.292084944272551
Sn 9.357047240998595 2.3760079047031426 8.794796394102383
Sn 11.402489278322186 4.7028604294563845 4.863202089052331
Sn 7.762304161877044 6.534294466199056 10.989838394685586
Sn 2.070826069479606 6.976238259833624 2.9262519579579567
Sn 9.808866499333627 7.1543966702120985 8.89281989043337
Sn 2.4254687378847613 11.83381219591758 6.654643408608753
Sn 2.759372468292041 8.97053011612326 7.406521718112926
Sn 4.944699415919237 1.9149147072400632 10.70637464934642
Sn 2.024756301449127 4.416417831887585 6.640358185965164
