37
Energy = -130.50544665 eV
Sn 4.524580285249472 6.887908960926755 11.92414615498317
Sn 7.3644021793436645 6.0444607304254125 12.18248814158472
Sn 5.254371075048181 3.877818574842951 11.280917187821425
Sn 2.659828928563653 4.639795470516126 0.4664818049233025
Sn 7.514139313142092 3.137190365723638 0.8972764940696886
Sn 4.428660026394255 2.155819571399877 1.5193493265157236
Sn 8.407938047231973 5.884095635700044 2.613056534696538
Sn 3.7418511150646516 8.178583047432152 2.263610845200539
Sn 1.475076966983242 6.454431830364747 3.272802618360098
Sn 6.562275394750546 8.704904382451836 3.1576497362522837
Sn 1.697612140268943 3.380373986752268 3.123425577544977
Sn 5.272082820061113 5.239325520873686 2.191500685139076
Sn 6.723373665435493 1.3838916976220441 3.5908634423653543
Sn 9.307115675183347 3.0832569661867755 3.4648552199253757
Sn 4.082549059826101 10.346421532753393 4.449196254550037
Sn 9.84580936930037 4.456786851681833 6.247399293377286
Sn 0.5639564921996949 5.8540141270941355 6.075676758072826
Sn 3.469906847860033 4.723222737646655 5.286308606370287
Sn 6.870268454081123 3.9980649892078794 5.212929757271647
Sn 2.0201810833727025 8.631684376986637 5.881028798844481
Sn 4.848676149022977 7.482845858168814 5.471048380040045
Sn 3.4062485659567474 1.498437636017909 4.754590061517937
Sn 1.239105129838911 2.7863509634146446 6.58602878927607
Sn 8.287208080631661 2.402562370324279 7.647389489022468
Sn 6.780585353548463 10.028723505883994 5.981720924943706
Sn 7.908220923514496 6.971315579878703 5.6669009328491295
Sn 8.729132564383155 5.232733047892796 9.171616258185988
Sn 2.295059704459627 5.028599822120092 8.432398586820435
Sn 5.63745745030019 4.765927350469633 8.095865146723657
Sn 5.9249588808814 0.9501585968378444 6.488484849400032
Sn 3.6608979547068135 2.023116448098289 8.333368881415607
Sn 4.27232197944442 9.554350833128805 7.757015566106518
Sn 6.847851436149801 7.753852411197513 8.554253899291561
Sn 7.087771613256329 2.9347716393674634 10.41904440948126
Sn 6.38323570238097 5.840108818539566 11.280917187821425
Sn 4.018535678078209 7.101124093268724 9.841158987925759
Sn 4.133807226643935 3.8300230013613565 10.81244188489564
