31
Energy = -108.49198124 eV
Sn 7.8293078062517685 13.87117846308491 6.104677773972227
Sn 7.771959167321576 2.9683666333807497 8.16976326448251
Sn 8.88448917488086 4.294984241960607 10.714985819296611
Sn 6.3195362567012845 5.388890658870513 6.839650508674218
Sn 13.234145162792341 4.642510583268661 8.838810137736042
Sn 9.260640236649468 4.397468883282413 5.558763994883884
Sn 5.080098563801376 7.472740582801451 12.16605268391815
Sn 10.205036964954303 9.560093691841866 6.718579127989088
Sn 8.370711437049176 12.292877676238913 8.755277169715882
Sn 5.522164375005001 12.85125238515553 8.019350602004208
Sn 10.75064517321521 3.2382732354261394 8.09995369947548
Sn 5.851871001400549 11.725646454176287 5.149835205507783
Sn 7.21895866512763 9.084479277045759 6.20675088868627
Sn 10.511926725515343 7.5064583538817455 4.599556989754826
Sn 11.701552664304488 5.936170100174981 6.773103799626201
Sn 11.205272551389328 6.4768704136360755 10.058644372714836
Sn 10.71310514119644 12.64758488964071 6.769786482428858
Sn 8.857666276854653 11.365985323646278 4.612664548811261
Sn 8.195757997835042 7.204678963976406 11.463034762715052
Sn 11.251957547617891 12.809584876410238 9.835017086754544
Sn 8.46803713003674 9.373218454052386 9.325376221306536
Sn 6.963470753840247 10.95615122601081 11.906415202391377
Sn 9.992884025177664 10.608591160055013 11.845202969293924
Sn 8.831993826417559 6.241965966153955 8.176287304561361
Sn 7.199538612184765 8.700855023067323 13.815393050374574
Sn 11.590436314153916 9.668716624568857 9.453553284524215
Sn 5.980916117509644 5.557722840179175 9.972877588149327
Sn 5.481627275184483 9.31646792893068 9.905658025572572
Sn 8.765754584672665 13.421345490310003 11.516205265935056
Sn 7.509068112286642 6.776268998973356 4.402513493000146
Sn 4.462206181888685 9.952207719197418 7.260251734438002
