36
Energy = -126.61004382 eV
Sn 8.235457754276474 11.216310358948256 7.854303979413293
Sn 5.005715391776378 8.700210412940658 3.97055441440734
Sn 2.59104334481607 9.344198585735798 5.6760452296411765
Sn 5.3821978515105435 10.8900122969372 6.268259847478984
Sn 3.774423109521095 9.521484288765128 8.561213471435497
Sn 5.756901391395585 8.541816708376517 1.2164975893789391
Sn 10.754641862768775 9.568063208983668 6.880235511055658
Sn 9.88741409796464 4.476059788693521 2.6327901135777467
Sn 10.693356485457796 10.783639496440808 9.675353708754807
Sn 8.047865834761208 9.075452278509957 5.4098410990795225
Sn 5.498844322514439 6.060827760097583 5.580294305959141
Sn 3.6209742458493737 6.54892909987926 1.626071178643446
Sn 2.286690261678615 6.595365801475272 4.317161070455129
Sn 6.625829045653207 5.948134399550609 2.576591617767654
Sn 3.1625060224702426 6.760975377964304 7.333707623512383
Sn 6.692332318180351 8.550366689134156 8.052171277987838
Sn 4.824412930831193 6.989226161003428 10.047635033160871
Sn 7.946418325005987 3.94532639043709 4.808415956518248
Sn 0.7597354181121259 4.0636042688521865 4.969496096352975
Sn 10.939967246013788 4.433404856999891 5.517680690305396
Sn 8.116237707284283 9.580844012386423 10.613517963212562
Sn 7.661185089757632 2.2487950462284876 2.3340266781927124
Sn 9.323000207566938 6.787432130814227 6.982105632695811
Sn 10.685280882106222 7.79024437926818 9.57807140582957
Sn 3.7157727882768365 4.24977392110847 9.042788011867541
Sn 4.929789737178741 3.7362356227877194 1.4212864941984085
Sn 4.933684980423411 2.8476307543103054 6.564593076005141
Sn 3.711738492535194 3.900212653012194 4.0894776914771045
Sn 0.7424506107954548 5.177838226955365 7.832673945001466
Sn 7.40506872783045 4.316835103292494 7.7370389177692
Sn 7.954318860150518 6.521592789171027 9.948135348214839
Sn 1.989789202032763 2.320853501083253 7.182218376994451
Sn 10.216334641660355 1.7085852852308436 4.0857746958534396
Sn 1.1781868443623944 3.1850087411128603 9.970416208175296
Sn 7.222440775183937 0.9860348235988367 5.163589515790958
Sn 9.44353227309688 2.092938658871114 7.009015795883031
