32
Energy = -111.96301213 eV
Sn 13.545478176343657 10.998834604896988 8.28748730499773
Sn 13.509804893374277 9.439640956755783 5.7159619229410366
Sn 10.810215128109942 12.37770692268247 8.924471951103769
Sn 11.7874623098589 9.895948788476021 10.516354124069238
Sn 12.193969051900233 7.99621210268762 8.176744478734262
Sn 11.740916240737068 12.081541057658766 5.997659372830718
Sn 8.335858780059468 7.986812225060902 11.194391669555682
Sn 9.39821128095958 5.450905743143942 10.007901720066265
Sn 8.740055400622882 11.470965416096785 6.566002358162933
Sn 3.0597842091451737 9.599443123810886 9.766712859263219
Sn 10.650567674270553 9.1769948675014 5.547236043879843
Sn 9.192540126888025 6.7477796518820945 7.390449212219876
Sn 3.649422472392069 8.933577926527185 6.692847129539846
Sn 9.427538961496994 9.559150985535696 8.796444884603408
Sn 2.760369279067607 11.575862547881318 7.565303007940717
Sn 3.6809757941047314 6.747467189814031 8.835010083466978
Sn 5.61357837402054 11.238315516072243 8.116407380799446
Sn 5.983751749266537 8.837489660672132 9.78542053429191
Sn 9.556491753906887 6.338426947743396 4.445563276262053
Sn 8.064686980664458 9.100711233007827 4.030470670125727
Sn 6.758143100183333 8.485600695310135 6.642258105031214
Sn 7.41620663122997 3.5251125557203853 8.489102329369453
Sn 6.474462134204755 6.348600252114796 4.067126517090371
Sn 5.785399278833785 5.547379879598766 6.930360351629904
Sn 6.20917563336733 5.745649301170399 10.43574828827311
Sn 7.980671440730069 3.766138264459489 5.466936782088931
Sn 2.040291511326484 4.227894890334003 8.998776693161851
Sn 6.168107856499882 1.2480797454202914 6.340585378550544
Sn 5.0471251680995195 3.3892440600693288 4.282108217020303
Sn 4.468835162034392 2.6499337863312302 8.582865092121803
Sn 2.9371951428721452 4.6198771819883575 6.20859014229403
Sn 3.260019381039276 1.5602970826472449 6.00329214545328
