30
Energy = -105.48535264 eV
Sn 11.353983375071797 11.686315728180706 11.854309099896158
Sn 13.200170338279287 11.318082604641551 9.43574193690073
Sn 8.766838793655896 9.39044207129235 11.325583229771206
Sn 10.029349387056433 11.145127057401924 9.105902426018503
Sn 11.506408369082644 8.412957271439359 9.745350325008888
Sn 13.559552251535811 9.408091367551512 11.678243746770212
Sn 8.904837283080274 9.10680661535154 6.69652794032338
Sn 10.33942500868679 12.363397641231186 6.275807499320048
Sn 7.873314567824596 11.258139366954149 4.81163604720726
Sn 12.002760116546904 9.77615363859384 6.908118592030584
Sn 5.7933917204097956 8.795878290484913 11.036257421402693
Sn 7.04064477703742 6.368016258418694 12.212873714878231
Sn 11.013867010394828 8.747124239965654 13.139825263903624
Sn 10.016225859291957 6.375457913099181 11.398845440564623
Sn 7.294764965332326 11.531295846312924 7.756178888980469
Sn 7.866774649528586 7.1894066475850344 9.075200346738933
Sn 8.480026951946606 5.2422987986273935 4.754511564478962
Sn 7.457085482457623 4.25860896251112 9.623693732738928
Sn 6.475635378676338 7.273672657665691 5.667054330829059
Sn 6.452979578003818 4.314833891349361 6.769611610740372
Sn 10.55244584761774 9.985169673413884 4.295523689663636
Sn 5.419592288988956 8.947169679479119 8.009142508188754
Sn 6.306014925795913 6.181591671788447 2.7765372820786585
Sn 6.271819673339069 3.2526940171917325 3.8434487437502014
Sn 5.026622519609992 5.824191594370679 9.981081266605896
Sn 3.751609490061747 5.822207210314343 6.46233606221222
Sn 3.989802678363847 2.867220114034085 5.912387435616033
Sn 2.925976944632815 7.482254948178522 8.800867927493947
Sn 3.9670312564997228 7.728949113802051 4.085078208495254
Sn 3.5932733777450006 4.750535151895885 3.5266508276093176
