32
Energy = -111.71592867 eV
Sn 10.228793321555981 6.658502184472601 11.821566168274103
Sn 3.7874347359649874 4.1959278683026655 4.8946729091303744
Sn 6.220357193626899 5.906615851151585 5.715363401150728
Sn 4.786372528352571 4.25666825963303 10.222869646164847
Sn 2.2878488038871834 6.036663824662912 10.10752701191582
Sn 7.494891908413217 7.496240525081388 3.0464751313444327
Sn 2.75168767817256 8.490552545639433 7.910461006116082
Sn 4.508545322778533 6.8120725601017105 3.365677972616016
Sn 2.608314956067594 5.495296711295129 7.287936590278575
Sn 11.41590676866127 8.943685591839778 4.808803066508882
Sn 7.450567048082276 5.283869192253462 11.720158035503943
Sn 9.664446755525827 10.991484050050165 6.836985372165934
Sn 12.180219719244494 9.511830069270474 7.642719527900894
Sn 4.417519096791605 8.854680120680564 5.4943876758096115
Sn 5.253533511215555 6.7450852189100186 8.510546864328992
Sn 10.386040375728193 11.600432814857562 3.9665028019402513
Sn 8.631232809071902 4.639902496955141 4.153372909246569
Sn 9.918541192093222 9.347514650109574 9.867744972638542
Sn 10.420676918132749 6.700358554165862 2.9153449380529515
Sn 4.859578705918994 7.106210990247767 11.722853851371244
Sn 9.773169480228702 4.31405752293159 9.687478383392428
Sn 7.625784872224982 8.469912191553602 11.751101502380394
Sn 7.769891928463455 10.310753477002127 3.9848603966183576
Sn 8.269369960893565 3.8897665699784394 7.039890012132235
Sn 5.056716181901537 9.51831729108084 9.788892751868188
Sn 11.580751983136036 6.812338501949728 9.09340074528558
Sn 8.319216225561265 6.877720110537756 9.04797101017383
Sn 5.3921177618019565 11.544485510294145 5.14600500600494
Sn 10.852270322704232 6.1706414635728875 6.0289442372816655
Sn 5.30349658066065 3.2195888011672937 7.341567034006127
Sn 8.498786116873822 7.985640253652651 6.091065909500902
Sn 6.786159627427447 10.177264651243235 7.37324019580166
