30
Energy = -104.29197393 eV
Sn 4.078286449238738 4.939295118852006 5.291715465097665
Sn 4.973545372466619 7.9391466345746755 3.962314413878352
Sn 8.087770957977419 7.386351201109788 4.331904093134542
Sn 6.973546491922141 10.202197402837129 3.3028003533028536
Sn 8.880715829226403 3.1683991082375718 6.633721965591343
Sn 4.7631486227483775 10.839016560100301 5.38684702732392
Sn 12.27451948810092 9.720869792907802 6.003591691519806
Sn 3.193788236590966 8.103979179215761 6.513368034062934
Sn 6.281260284292066 4.966646257980417 7.227877829770347
Sn 9.194672077565968 6.228252833309352 7.028550417641247
Sn 7.659181384479439 12.52250839315286 5.1317038768522645
Sn 9.271417623633988 9.94956906394169 5.474943369109692
Sn 6.170419701577678 2.2921825537626166 5.687392403110171
Sn 6.273453029202952 8.2466433262418 6.7280821718278725
Sn 12.116922660720698 7.117329636466461 7.458000903928957
Sn 6.915085041938519 11.09058745200548 7.572997607062484
Sn 9.309313721768618 9.163588289648754 8.404255161259629
Sn 6.833822223563954 2.3854016471041617 8.809697433067198
Sn 2.819567119727581 5.449344151885759 8.21427248518615
Sn 3.969823080787511 2.6285376568569134 7.71813828140977
Sn 11.2618654513097 4.892789786908489 9.050688068607126
Sn 12.153161782448548 10.102548881126411 8.986760115902094
Sn 7.826622778694791 6.85851897932003 9.685925552980118
Sn 6.926320999835003 9.95650953724376 10.331021010499272
Sn 9.729390589505405 11.85476848692189 9.849010229883413
Sn 10.878202597629915 7.439173883645822 10.502189768759399
Sn 4.550022508856231 7.8653871458623215 9.278136306946777
Sn 11.61719690081454 10.00419705625694 11.906138351642078
Sn 5.248708328939326 4.800909911702274 10.087093423931512
Sn 8.757629411415683 10.87473081779994 12.430242933690568
