31
Energy = -108.71669726 eV
Sn 5.817822910865745 7.478245080928105 5.690928951609365
Sn 7.167458915701691 4.910383810758444 6.878704362578388
Sn 3.139242115009256 4.6575582438599605 8.922965298235917
Sn 2.7598237897742757 7.959931020040177 4.9686874059165955
Sn 1.3300674806292354 6.690367571826404 7.438929516568771
Sn 6.538703610524288 8.068587564335408 0.8272942459768504
Sn 8.9575187185898 6.860111428536263 2.4173065719610847
Sn 9.080676344347573 9.534775487055471 0.9953200632074855
Sn 7.006396460218466 3.2264435348598894 4.189519609905966
Sn 6.844929879203509 9.439029912437073 3.417999879500208
Sn 9.336664099618671 8.414528866427158 8.431722506853509
Sn 6.349087759804591 5.23246413480723 1.7897645978524883
Sn 4.689011261111883 10.520248498685561 9.023524454009705
Sn 6.791634747443284 8.604845509773831 10.167866414069765
Sn 7.179881249272969 9.915553104542626 7.16915616644681
Sn 6.05147736067799 3.1720992565079507 9.374887341462335
Sn 4.428968956626722 7.441792405382247 8.272115821949061
Sn 8.883821608762535 7.235726571338618 5.565738748448314
Sn 4.392892288667307 5.521244435691176 3.9766868216816014
Sn 6.616877830330601 0.538595018471837 7.995558839378761
Sn 4.671106529616394 3.204777972221437 6.569156351102468
Sn 2.158446823392764 4.503733443876313 5.531456490134372
Sn 2.233166973036917 9.624262889643314 7.690270919800279
Sn 9.615158542545574 3.82132898212618 5.589342341431088
Sn 5.507538345215282 0.7645864210304095 5.133056198168682
Sn 8.160515413921146 5.758791261967456 9.533901256854126
Sn 5.433683568577197 5.761308591983978 10.876990048169487
Sn 8.576707541343639 0.8928480323510406 5.777596739383598
Sn 9.735445128578446 9.677674246475402 3.9007584252955816
Sn 4.525897127196896 10.56902800592816 5.7639919206989445
Sn 9.041494620795907 2.5541295091268372 8.359973830535171
