30
Energy = -104.39860278 eV
Sn 5.395014648683289 10.633378638374898 5.612508268719458
Sn 7.17713358368886 8.773407274987168 4.1165541363759095
Sn 11.932823361117142 8.708938319093324 6.835843243642668
Sn 8.061552627709432 12.268459268558976 5.572190294202277
Sn 6.118989295415295 5.845738631984094 5.35622242536994
Sn 8.799972173696961 4.193107343343421 4.487479244239781
Sn 9.918315789605687 10.071719725411242 4.522142391185858
Sn 12.15413110234062 7.78961261718379 4.073316166472109
Sn 4.762452219087869 3.393868220501492 6.666695263171568
Sn 9.707588246013437 6.7264972337412505 5.775765224342912
Sn 4.101635158550976 7.851744544885825 6.70210603146437
Sn 7.946653037223254 9.243417269834874 6.947299898862705
Sn 11.718318038637243 4.7783238301985556 4.321981845344105
Sn 7.698501139891978 3.9617823646678523 7.45803741824452
Sn 10.812761506600493 3.9481243615339623 7.07202449897139
Sn 2.4609459265187743 5.454479881460709 6.293939791206385
Sn 6.661478388638572 11.871962672499382 8.33165431208998
Sn 6.9387680569314005 4.74366439356546 10.48852545901316
Sn 3.7435678273971718 12.026968084213408 7.65095465736589
Sn 10.893845502694962 6.5378548055256145 8.614614410949814
Sn 4.129164818039487 5.069172258376852 9.04312085928927
Sn 10.143111189257603 10.968060670108091 7.701947033893327
Sn 6.627381144124903 6.745465108695167 8.21132217030468
Sn 1.9615595615936174 7.075101481208456 8.856974434216141
Sn 3.797717862189204 9.500583021816409 9.176650908354784
Sn 9.730222437895863 8.78759688092498 10.446334581225557
Sn 9.705174350345944 5.649921183351983 11.28451346332329
Sn 6.6864817027262005 9.195435136765244 9.914917386842305
Sn 7.239276445026212 7.313993070237862 12.201749605577707
Sn 9.945416464073036 7.841575312664736 13.23256818145347
