37
Energy = -130.14618125 eV
Sn 3.1472530447030542 5.400233361318667 10.836475058649805
Sn 2.771220553521698 2.546833919003489 10.058616858970973
Sn 0.1573813117304215 4.032323325281014 10.74292421554529
Sn 7.086159190514781 1.7252253477438972 0.7802676195403138
Sn 2.211729578442404 6.404258029840994 2.492832093551199
Sn 5.829956803666905 4.782509410428552 1.2105754425322164
Sn 3.9939939482351954 1.6310471054504336 1.6115425880409464
Sn 9.427463618134931 5.416080617394553 1.8980104067080104
Sn 0.6066291892556285 1.0229916767887313 0.7045486162295754
Sn 8.859703931889758 2.323048417069684 1.289023172812135
Sn 5.788641346591676 10.06877695604483 1.775286121768361
Sn 6.689563782704942 7.5552900254816375 2.55538584205838
Sn 8.803598213652759 2.9127328600667783 3.123408224738013
Sn 0.741715042082092 3.3179065248995303 2.7383908402572144
Sn 4.06092332049239 8.63440431115501 3.4700479902113726
Sn 8.657052044542052 10.736602406399772 2.794016814973378
Sn 6.165065039270232 1.5513084581541325 4.150265767723664
Sn 3.721901275670715 3.99560894282171 3.4599208417991667
Sn 6.54085636021993 9.522044036263463 4.697567331639533
Sn 6.558753972058322 4.948787800173883 4.169108892150956
Sn 8.647564930291493 4.126316915612532 6.060653576302799
Sn 0.011952518017260425 5.737675199406062 4.645651921423823
Sn 10.260709489596762 0.783224390571524 3.6798862112001283
Sn 8.578010331218909 0.7880014147261478 5.736748290970773
Sn 8.16633016290305 7.359594916957047 5.188599971855839
Sn 3.52716022771382 2.258286804589956 5.864616610960022
Sn 8.803598213652757 3.4653547391666786 4.160255721070371
Sn 5.646013769609851 8.99036951787805 6.282118404217721
Sn 1.532566781338089 6.3201384969967345 7.390041167411162
Sn 0.47473479278780945 2.8871998115548503 5.825236605370552
Sn 3.6669144111651764 10.658614381925117 4.093698195027917
Sn 2.558391053558164 9.057002551327185 6.162565379471149
Sn 3.9566441241210586 6.3001294421744785 5.591281983191992
Sn 6.357190232877331 6.068731731194622 7.54881404232812
Sn 6.2624148031703895 2.5576391974957837 7.340183462625378
Sn 4.005299377817374 7.740350662238681 8.692429964731076
Sn 3.8245085960657326 4.47292167768942 8.271178297166209
