34
Energy = -118.66371987 eV
Sn 12.254320955124191 10.517984510312495 11.88779312305155
Sn 13.216841544258239 10.116019896872956 5.476006181490829
Sn 10.446442003398303 11.623102859080454 5.3131803872531655
Sn 10.127931432798151 7.36037279777845 11.41671453778226
Sn 9.680769581410972 8.506586189128212 8.698637026570957
Sn 7.371247967619307 13.26028628635421 11.465157017537104
Sn 9.069128029544972 14.20072474209742 15.618971307032206
Sn 8.426916638549535 10.93612226548531 7.462903170396097
Sn 14.822565293996785 9.206916277239195 10.98271167581901
Sn 7.968691125845246 9.949048016974631 4.569059688292143
Sn 9.900449012609455 6.251606786451792 6.253247430130997
Sn 12.35470959298041 13.649565172442886 11.923949411981843
Sn 13.281464988927647 10.518751464635809 8.814750485627904
Sn 11.671971244844235 4.477508389837346 10.7533529817082
Sn 8.763959378124737 10.518640287067987 11.304154098584176
Sn 6.1353872797740125 8.908384762062738 11.155404299964315
Sn 5.261507974592713 11.267830928549996 12.933220933603375
Sn 6.1462040691238995 11.255281513895257 9.424142417165497
Sn 4.522550222926214 13.310055989436213 10.851829888695963
Sn 10.776101690126628 8.69333285317638 4.399054158644002
Sn 11.236862740449649 12.491093232682717 14.445725669412285
Sn 9.372412900924694 5.283644704458661 9.105270374901009
Sn 12.448304020095483 5.119353292683748 7.770853786741431
Sn 8.031860995517546 11.799493634575176 14.185867484581193
Sn 12.974034176619151 7.04215744084653 10.400754484542237
Sn 7.409864572927703 7.924237574510536 6.7056539673939
Sn 12.232659894035974 8.056359615217325 7.384950450350462
Sn 10.203223586639107 9.66896037349783 13.968332258806067
Sn 9.68753552345493 14.619626614219731 12.748628187676792
Sn 12.44372276171914 12.798770446028277 7.2394862778025235
Sn 10.73265661463129 12.234949880039734 9.735518037703104
Sn 5.739241576028877 6.941881473322476 8.95819051311287
Sn 6.683726055466567 4.2854025601003265 9.684114889784713
Sn 7.335107629010733 6.273017282413063 11.816206439125027
