30
Energy = -104.14355916 eV
Sn 3.618629865638016 6.221476927499664 3.0702519872413903
Sn 8.134419660871565 8.682394626962369 2.2883709590299053
Sn 7.776199872490896 11.208627527591517 4.247530392553236
Sn 7.014477331949692 6.1041179730999024 3.618343738637142
Sn 5.928846525495522 10.59341940441221 1.9868392839997224
Sn 2.0323997148307074 3.4965461669865707 3.320777958096338
Sn 9.28043770778517 4.056625604609129 3.4958133313954622
Sn 5.133789997920308 3.543762238454523 3.414919005221827
Sn 8.370513009336564 8.665998563471991 5.457225451606862
Sn 1.2457518332281319 5.958803689358799 5.124333550855289
Sn 3.8897894502961403 7.058628627098705 6.13659857600221
Sn 5.537997508862213 8.920627113437348 4.30754791285734
Sn 3.1559511675803495 3.629464409267385 5.997502495925301
Sn 9.89631483705066 3.3732069958157043 6.442175559271768
Sn 10.188674142326638 6.296491257691995 5.355305921643718
Sn 7.447320477570223 2.14653607294315 4.975766956717091
Sn 6.053077643246117 4.906162195258148 6.22128024176913
Sn 6.386703734084429 7.864656476785351 8.082373267380719
Sn 12.246963489470101 7.837145129548308 6.9326305762353
Sn 2.7088613313920047 8.399083737212269 8.50858929406674
Sn 9.675013140741754 8.524838985863125 8.152368493589082
Sn 1.6883135144613568 5.465286305061285 8.149918756664599
Sn 7.211672612640992 2.7443396116290804 8.010694054568699
Sn 8.129957630354435 5.471044237151838 8.851989862467317
Sn 11.012722283739526 5.534592340869918 8.353231477501064
Sn 4.260500635786313 3.516948352849737 8.723677641214188
Sn 5.063282572600667 9.299845276210203 10.353905671992898
Sn 3.819758745751751 6.173013330408177 10.314711961351868
Sn 8.03393359960159 9.283241546450679 10.554600290454436
Sn 6.68930022229663 6.654649535400736 11.182299589090341
