33
Energy = -112.30150504 eV
Sn 13.259817917032523 9.722359043395834 8.72406860918096
Sn 13.373114322874342 11.413108047039264 11.359702960046748
Sn 7.618569283362381 12.193160083467077 10.733959717085382
Sn 12.468444206780207 3.9312441321804275 8.874767146086342
Sn 10.586407452039982 4.224688454187111 6.4130156303113655
Sn 2.5551738452038344 10.032846396934083 12.94348720333868
Sn 9.840694261127851 5.475073478722358 9.241240697574868
Sn 11.801935473008234 6.678789293161563 4.839328193775676
Sn 10.102295281437456 13.25518787558999 8.689281032630358
Sn 10.613680729644852 10.224112646390637 10.142297475968103
Sn 6.615382958101244 6.015912815283793 6.154768705554709
Sn 4.5807796940217935 7.497366366942727 4.835862085205315
Sn 12.261944766751098 6.856720635503357 7.9559592936980685
Sn 8.267658068951139 8.592611518487422 8.930050400356333
Sn 13.622521520157168 4.770041209164399 6.266574828812328
Sn 5.478954864330537 9.761137428259063 9.117741695050531
Sn 12.636721165908817 12.562137382286437 7.2632200553511765
Sn 3.6362123241146684 8.003363550091576 7.488404237042835
Sn 10.563090039340414 12.78242562583857 11.735665470111439
Sn 5.220297919374042 10.155901967860087 14.176392332787609
Sn 13.876598319705488 9.658230289385013 13.668707968411665
Sn 10.45123810810377 10.320619225675008 7.026410185936288
Sn 9.36721107748508 7.099585451869319 6.547093688666369
Sn 11.591965106691172 15.470203954159928 7.446808679489296
Sn 7.687699506141426 11.663964641414282 7.669087583724812
Sn 11.002406794792027 10.115064851238879 13.334705404348993
Sn 9.750439713371286 7.739444028729659 11.71315197941857
Sn 4.339847204956181 5.254198203867249 7.602475364368402
Sn 12.788906231232298 8.113312339588184 11.398934303567508
Sn 7.180592471619241 9.54530195077446 12.145933449352409
Sn 4.627972327038986 11.53569156968862 11.442382387617497
Sn 13.733147804068004 14.65281472425861 5.727904429061719
Sn 4.50437881912834 8.231821593188199 11.654932236728813
