32
Energy = -112.17255949 eV
Sn 9.093527476362917 11.359735633112043 10.054007487460135
Sn 11.968519403615035 9.767290425364775 9.987120424949154
Sn 9.789719866283777 5.378818044583584 11.190253801838397
Sn 10.020337851585191 9.161480524235929 14.137066083050225
Sn 9.57234439997895 12.051165570557316 13.136995790582954
Sn 7.317698211131774 9.951443698455835 12.510400010759474
Sn 3.9847143760759955 7.974686334917709 4.3353980076447804
Sn 12.520995514311254 10.561235412837808 13.22133467610312
Sn 13.707871819354201 8.126350306557908 5.617383018662264
Sn 7.183909411264894 11.603233133148139 7.739163134208103
Sn 10.958487264486326 7.410101880384588 5.270910002681122
Sn 2.443764570574248 10.726299760831742 4.796654607653142
Sn 9.679081408515215 7.112337335659431 8.25347107725313
Sn 7.723903422596433 4.768203189763522 8.488621514021595
Sn 7.186029658623834 6.642878383343269 12.212317474119638
Sn 5.539705479649732 11.019003801094092 4.32199386391278
Sn 12.67899786320036 7.229207441856192 8.236362277925755
Sn 6.710736248307093 5.256594696852973 5.517493623917092
Sn 8.91585858106071 9.538103763409536 6.5332465575017915
Sn 6.714018747758057 7.512041817754849 7.554672051839641
Sn 11.666789209243621 12.505731280249455 11.055968615040715
Sn 11.890937078788243 10.140381426439399 6.833766248937207
Sn 4.214574568845301 9.764245245309484 6.793155298121543
Sn 9.392549600837476 8.425844788107486 10.919375812016872
Sn 3.615500861115731 10.08346917265702 2.238791430288522
Sn 7.07002674819165 8.341654857529786 4.546253898906901
Sn 11.945188423873565 7.518726093617103 12.288975139452367
Sn 8.833651917948272 6.132568584093923 3.5734377616006747
Sn 9.71590534737004 4.67028290823572 6.211542637553966
Sn 9.646433093732357 6.023073242609867 14.219099539977886
Sn 5.655824130813087 9.611297796824852 9.365107056508391
Sn 7.425724874104577 7.864898847087297 14.96993622907384
