35
Energy = -121.89970952 eV
Sn 8.389819469415105 10.010162170260449 4.379970594738811
Sn 12.175098353576768 8.004677157415784 11.90897476071223
Sn 7.318889869415874 9.74426560012669 8.143839246930341
Sn 4.876563038256655 11.824547870642308 3.764411226352391
Sn 2.456608383175478 10.986477298987033 7.6071831406323565
Sn 7.968930242003491 3.9888958684693963 4.391907411848962
Sn 6.0291134678615785 0.2455677062284329 10.891990929737734
Sn 10.31601872250834 6.997631893444846 7.672618705707261
Sn 8.255836366054927 7.155755458045186 3.3441567994845705
Sn 5.252214615952796 11.571871959660053 7.085442060157468
Sn 8.564323785922992 1.3340798766905455 9.95599625664187
Sn 6.47027604542409 3.029088521648808 11.71282080198038
Sn 9.363567813199207 7.696384635696836 10.491438765250166
Sn 7.9947799193712195 10.414526734438304 11.04750290539056
Sn 2.8569283165868353 13.210542930291371 5.7379575910672385
Sn 10.955226769249462 8.492879661676827 4.358434037523036
Sn 5.703017218536792 2.339210279074114 8.72791176008488
Sn 12.67449154515068 8.46059723307308 8.99152655068463
Sn 7.332314439044486 4.9979918061116475 9.410982203082408
Sn 12.326649158940764 11.304182535741578 8.322492823231105
Sn 4.128996827831554 14.75697116245209 3.754285946505578
Sn 7.619883555139942 12.646442044454984 3.3295508385816017
Sn 3.4715437222789065 9.591954126505918 5.094921802159531
Sn 6.073338979387035 7.668829515330048 10.011272588595181
Sn 10.430902173287143 5.5816315046413925 4.989966223883014
Sn 10.086731042274138 9.915367092888525 7.030700545691132
Sn 7.609469326017074 6.040503520594668 6.475991124439009
Sn 7.2520429424385435 8.10409676107995 12.753933030291787
Sn 10.320817325714355 4.1065158250486755 8.84470478814706
Sn 6.225871919371389 8.475893101476034 5.613849187040734
Sn 6.266905123410883 14.00609385461489 5.729934896622565
Sn 10.991033744657289 10.491035044264459 10.84743848200123
Sn 8.208894735542636 2.808667849526675 7.171039657359586
Sn 9.806695736263402 6.553595145753822 13.237348489257657
Sn 9.30672166272457 4.021439526981851 11.62579564300122
