37
Energy = -129.83161221 eV
Sn 7.952668215362533 2.5726219653131785 8.649742828593691
Sn 9.269521305936836 1.71394107023535 3.849557756942188
Sn 3.9433971269786006 4.329456937934067 10.065156188474745
Sn 4.947458593863215 2.1916902914588667 8.140036861075743
Sn 6.340989212792799 5.696419865822983 11.185766750494482
Sn 7.169652534192136 3.622497090360223 4.6745863968071895
Sn 2.77841958444708 5.272905003138497 4.552287421139532
Sn 1.5358484535739447 5.713210759971531 11.050724191122896
Sn 3.946548198059931 6.160567631985573 12.950131508265374
Sn 9.817462535298956 2.976016851271503 6.384841629268553
Sn 8.932580037476711 4.9513121811133525 10.05923743961053
Sn 9.889092109365896 4.537680351744799 3.07052479434218
Sn 2.444419276651558 6.8149103009636445 8.34847448254042
Sn 5.712298938290445 8.544045554556709 12.134841182732284
Sn 4.371428314644839 2.7903779441648897 5.15406780578896
Sn 4.631647894390467 5.142528826932779 7.099782911008334
Sn 2.910912334318839 8.496179709640902 11.019244076746656
Sn 4.106541107435913 5.972307518564332 1.8848167796813977
Sn 5.476441975176626 7.743758056844512 9.178102581200523
Sn 7.601132449951734 5.355716357134159 7.287553034252671
Sn 5.259146053279329 7.014895331882426 4.55522193881542
Sn 11.74448874658168 5.312487885526774 6.400631625672285
Sn 12.049617805691998 6.495650172068344 3.6035131168657912
Sn 3.470038703624178 9.670825579739908 7.893830623611274
Sn 6.1822394511503225 10.863427892153691 9.033504602125461
Sn 4.209786902153767 10.037340294549802 4.961360012766294
Sn 7.517739372415666 8.806617478560515 2.8645246207995627
Sn 9.143378652804385 6.8876654034918205 4.969773709630242
Sn 6.79754732997042 8.917817115226642 6.421228674529083
Sn 4.616773647130568 9.015992082391081 2.148391780026597
Sn 10.098468186261844 7.123205949935756 8.11178475829365
Sn 11.193618340348912 9.034931695413732 5.775195659229288
Sn 10.597914905832493 9.141458443447622 2.839226769233461
Sn 6.07003989352014 11.934946409209342 6.205816125100607
Sn 9.146541904033299 10.068509498628025 7.902170407346958
Sn 8.669589124909137 10.893770032838987 4.762354988533593
Sn 7.103777482855194 5.831481166556171 2.461160668105794
