38
Energy = -133.53376252 eV
Sn 6.876033115804746 1.4778764146597865 8.012334174424431
Sn 8.459714769431072 5.787590427377847 2.4024590021443077
Sn 1.0247788337108727 4.614426205043665 9.89223285387131
Sn 7.674131575400144 7.463180299570609 6.797638113319174
Sn 3.298025825918054 0.18649726848249842 3.023631615898082
Sn 9.304571481161497 2.2640633699705615 6.435530785167529
Sn 10.204027985281881 3.6887754037302694 3.8049780947740297
Sn 0.8280076627836573 1.8285028500646567 3.3520610964785162
Sn 11.010388244650718 6.35834703398571 1.1222488001392086
Sn 5.2079475139641165 2.2943120108033397 1.9348451021251243
Sn 4.9598449981450425 7.205848980616879 5.168558125654196
Sn 2.032083029480336 4.877159199385274 5.30390484775252
Sn 4.284976730808737 0.056758886231290044 8.000181568117322
Sn 2.346251303460511 4.101312800633077 1.77116694120265
Sn 10.65615168574109 6.916296908651299 5.7775480195507605
Sn 10.029602940749498 6.553315542843565 5.038995151395138
Sn 7.6760847664499225 4.569864068886868 5.589038904102371
Sn 2.442362049985539 6.861432797257943 7.685051554834006
Sn 4.4373883939632135 3.016159628771841 6.3077778892546235
Sn 8.282696594744356 2.736801761987887 1.4766581933752505
Sn 8.053083649789357 1.0652647399886144 3.984858394668495
Sn 3.447143773371422 6.405400160729086 10.445833013420032
Sn 2.2252283157577843 8.452538545940037 5.019503652172095
Sn 0.2519490421516533 4.876530869465457 8.06393753773154
Sn 5.321414451927827 5.816956771729986 7.857121244712736
Sn 2.0161280494991467 0.4275437553112194 5.941486701121651
Sn 10.550206153301868 2.558851689540693 6.030717086770449
Sn 2.115421279277724 2.5003535329672597 8.281409615684243
Sn 4.903583470077412 3.267681166996958 9.369143116696781
Sn 5.609086591471202 7.376663943854123 1.7902910135961325
Sn 2.6082061797081764 6.993161719385345 2.4011204776849144
Sn 10.346684274702767 3.320757411461489 1.0852728737218507
Sn 10.204027985281881 4.7033926516313125 3.848218428715433
Sn 6.375134647644414 5.112514780742178 10.96133915130134
Sn 5.5919063409063225 4.780033309360139 3.449348905213003
Sn 5.370606743062571 0.36931895491837397 5.17720103273247
Sn 7.805315414373346 8.471223165465524 3.892144517772889
Sn 3.9873506336666384 3.3463656265523687 10.298864531787483
