31
Energy = -108.16373332 eV
Sn 6.434067839938124 5.775755500447783 12.557757065041875
Sn 4.659812961450625 8.236038313915735 11.782176331349662
Sn 10.450553158734715 4.93665104715919 9.077366598468192
Sn 9.304091808413974 6.354844999328582 11.842590024642151
Sn 7.483505293964134 8.67871058314049 12.864357596168576
Sn 7.508164513017828 3.6388533564874255 5.3948211075920405
Sn 7.400071045853908 5.668786499828863 9.552903627963024
Sn 10.262010285045044 3.271588751184946 6.4819295894284235
Sn 11.861264965507841 7.5726186519352865 8.951145011661586
Sn 4.737955361686534 7.4876517551565405 8.543871495701444
Sn 4.180186714019165 5.283470971175351 10.52284453211814
Sn 10.51664033018011 4.676812354565052 3.7328179611138013
Sn 5.575101015492835 4.0022235308461465 7.978574861252122
Sn 8.967855887300255 6.191546741212621 6.714759355765562
Sn 7.047616625186001 8.91192282663079 9.79466512240282
Sn 5.753491212429762 6.221523039597557 5.90372205342088
Sn 7.199875245611813 8.948868825306516 6.243637079589434
Sn 9.993109338845157 9.22172949114831 10.716137828540885
Sn 5.065578614929274 8.434514107122922 3.917552266443544
Sn 12.277922564861273 5.751623629830254 6.254558930996752
Sn 12.295079043704172 8.93653039988718 6.27284432684123
Sn 6.794586850432267 11.431400761031453 7.994005001285373
Sn 4.393832080234061 10.94982246541623 9.961321392193076
Sn 9.762063168815308 9.712544979228047 7.710277244017545
Sn 7.80303501595306 5.853282517901031 3.277638346976916
Sn 3.23422269524502 9.811323119527044 7.377708839544313
Sn 5.089588787987469 11.142513406813789 5.283580677993813
Sn 10.341065909487233 7.6279783023673895 4.404634764036485
Sn 4.031348928343871 12.75866097187247 7.6404548297441055
Sn 6.607437849966449 7.737640233239911 1.4641668477950454
Sn 8.155883786372103 9.442466537968684 3.3600363787669068
