31
Energy = -107.68895638 eV
Sn 9.59722983843553 12.407166986708578 10.686829238049977
Sn 12.041056628635076 10.8660552267184 11.326989724008778
Sn 9.674929516702171 10.030251353783722 12.858157690032819
Sn 7.313939552657996 11.759097236136165 12.614203671555128
Sn 6.834565093882871 4.20109089046379 12.894872478630528
Sn 10.491945257425519 9.684941963215742 9.067264629694423
Sn 6.373038312467511 7.064939871007315 12.421834758033102
Sn 8.504593546609415 4.983595417930343 10.63626795234595
Sn 4.982641711213501 10.15596119571689 11.40257631309349
Sn 8.830865852101686 7.961583379408303 10.88037521836971
Sn 7.530449379629173 10.5473007705766 9.535710245066017
Sn 4.901435290788626 11.910069592380182 8.852696851372103
Sn 5.88021878674836 7.7310527072958655 9.440663012869013
Sn 5.281366257418235 4.872200557887108 10.46646467562294
Sn 3.8910722040414583 10.65179636205003 6.414507491408784
Sn 6.813054891433865 10.392508393683661 6.479889912085818
Sn 3.323657051625785 9.226239861747159 9.058244809581051
Sn 9.73195118750572 11.134738488647399 6.361063720510401
Sn 10.545744509025203 7.765168707550186 6.740446501260259
Sn 8.014774476872365 10.482223669870805 3.566036088942326
Sn 7.575643849239172 7.479259021816487 6.759268318147205
Sn 10.861911811655801 9.411540517357585 4.16838992683081
Sn 9.779730724089802 4.615052626771708 6.345355802701217
Sn 6.993969427742596 4.817269368288696 7.92157971756186
Sn 6.097304767895779 8.14786285714097 4.181363275932595
Sn 8.818522519641482 7.888019039449073 2.2717554683491707
Sn 7.802680612222384 5.643386561928989 4.021871052776941
Sn 10.955643061322874 6.275421506295857 3.8551199802193112
Sn 9.604856806776523 1.742016908318736 5.669334595880975
Sn 9.706184602011302 3.4291061104976315 3.304797394997869
Sn 6.9672887212087495 3.148039711559768 5.398504446831654
