37
Energy = -130.53886963 eV
Sn 6.678242719950193 4.775713613431217 11.18637046171004
Sn 2.477213543825786 5.81215392289192 2.056518044504508
Sn 5.330992889132863 6.90614804065253 1.6933543439314118
Sn 3.9635292928079235 3.6348392237753773 0.29148490555294265
Sn 6.8655172033588165 1.8244857453070882 1.2524233176511066
Sn 7.59726602213514 7.233551117968798 3.865775708638245
Sn 8.685658285039695 4.406656781662336 2.3134621157904323
Sn 5.295633687375028 9.547919762164218 4.644361180723057
Sn 11.0924423793496 4.789486847004518 3.013775285541034
Sn 4.1493199086504715 1.6586517928215507 2.662895294436068
Sn 0.28680959931200345 7.886585401509047 2.7841552835263865
Sn 5.62758090921919 4.273415187051615 2.9129158028181847
Sn 2.4965679754340893 4.707258334979684 4.902792899042573
Sn 8.336414966906382 9.801840105661407 5.18526037061882
Sn 9.525593733363895 1.373302644107512 2.8180925530186465
Sn 6.8732989913425175 0.8318059906241668 4.314483611426657
Sn 0.2526429553573841 9.058094239337722 5.74507360534051
Sn 10.946478613147201 3.9523386644601386 5.9416168322310785
Sn 8.726550730422991 3.3446318622103104 5.188920042200679
Sn 9.744136160703231 6.71918389032806 5.018465840218565
Sn 9.48674139519666 0.2969015455298599 5.799548720856306
Sn 5.763924752776738 6.6026404979589035 6.118260803084025
Sn 5.717127202410652 3.3902279754591484 5.865393368205415
Sn 8.902582373596445 6.89593097925405 6.6990168297921855
Sn 9.040357737762609 9.720648762480959 8.055163432324775
Sn 2.732982363298584 7.75245142146454 4.751815154542668
Sn 6.220403851004766 10.814406530498458 7.342746451086464
Sn 6.868716521831864 4.848130468700592 8.576928114042916
Sn 8.384383461196103 2.129108431669249 8.050141523592854
Sn 4.163468386695827 0.5290045114040802 5.829777337498539
Sn 0.9071070986385273 6.4140248892623175 7.094630587171346
Sn 6.7530763716345135 10.814406530498458 7.2160553338637
Sn 6.814270047373806 7.956295630755349 8.856966834778564
Sn 4.058209849037092 8.727844002531699 7.627988315044876
Sn 3.6705987871217474 5.667919725200437 8.396710864065978
Sn 5.397494597288099 1.9097126972576082 8.617903723479852
Sn 2.7034769283922437 2.964559987873942 7.281032863398252
