35
Energy = -122.13348224 eV
Sn 6.028245924807632 13.18044365481457 7.264784513683086
Sn 4.7712995946508805 13.831670183409964 10.26755396413139
Sn 10.781255194662505 10.666406561435151 9.081765267263325
Sn 10.77751356323222 13.525616807054012 7.720149311481384
Sn 7.360123942114995 8.376035391483423 11.781609865172193
Sn 8.552148890370912 5.5435624751485015 10.908563026253685
Sn 10.704949959983026 9.272012845883962 5.896388174123835
Sn 13.298028741425949 9.560105043817082 7.582154365713673
Sn 13.86051384936492 10.665092002626249 10.334118602321022
Sn 3.248131182098107 12.65784584336945 8.000239058907221
Sn 9.572498464726475 2.8696894059109472 11.819115506221134
Sn 4.7231223734011705 10.701697571064537 9.656141748254543
Sn 6.5845001976935125 15.896662690692382 8.82466459626641
Sn 8.216789522506698 2.709987433697964 9.254298567733777
Sn 6.611095168659473 3.000420396463327 6.881718433381842
Sn 10.315996434199276 8.149977899724421 10.763149897420499
Sn 9.096546501388525 7.432380296956382 7.7791693778283815
Sn 8.59842736129381 11.658360408466246 6.711852325388692
Sn 9.256019003850682 4.30278189837907 6.728718622269418
Sn 13.164465374443338 7.408518792652818 5.3368953982429135
Sn 13.39313146060871 7.683898355803078 10.21313331001958
Sn 11.542272992976867 5.32758389582021 11.651354330384118
Sn 7.525957468509629 9.826521394084804 9.128220266805275
Sn 9.662810992223205 9.427823462198765 13.505810165708802
Sn 12.5941266970749 9.144613704981 12.84528730078562
Sn 11.880808283974154 6.4205576984340444 7.857341098946489
Sn 11.222842296790486 11.815380708026519 11.9526855159576
Sn 8.372062162127676 15.035505798865758 6.3835884365108555
Sn 5.275326115781297 11.736290411717635 12.329497164382458
Sn 6.775223329964301 5.628304057059269 8.384377427886976
Sn 10.343933443776354 6.404186040571692 4.8743414573587875
Sn 8.233554203522912 13.388002745639096 9.467097453704655
Sn 8.173748027242281 11.443471253142299 11.742990112261017
Sn 11.194222439871721 3.609812227010495 9.152732757335503
Sn 9.618868032948225 16.02143796147625 9.061211944182103
