32
Energy = -111.71975349 eV
Sn 10.909310587140721 8.440541804261873 11.85298016109103
Sn 10.05787960570153 4.9716734362128285 7.985909205457887
Sn 7.369250702311664 5.914839188909672 6.262193745047996
Sn 7.837298454294375 11.936498572820298 9.897523392794803
Sn 12.091848066065111 9.018045944518047 5.290786246911818
Sn 8.852875813400257 12.569309428711197 7.1944826747249015
Sn 6.673957995736872 11.718299778735728 12.716438585258137
Sn 7.971554617885157 8.36553616216051 7.965536754485433
Sn 7.408953172982111 14.82669521447797 9.374356954748999
Sn 10.946808819883229 8.715091279845197 8.287722162444894
Sn 6.188643834599245 8.029544812642268 4.131674717597535
Sn 11.83801681758762 3.490175828646382 10.108995306434599
Sn 5.625192788893267 12.718660075312439 7.558173643337317
Sn 10.069360645863172 5.685750485263873 10.931998322584414
Sn 14.211598268924666 9.294853609627916 7.768688974006499
Sn 9.14782900964755 8.079537579043487 5.144658726399434
Sn 8.043590563965578 8.997409093791997 10.898265350100008
Sn 12.663453610919996 10.494494725856809 10.109291892858609
Sn 5.775706851970894 8.884027361446451 12.87007606098945
Sn 7.250338863988601 15.02651719026081 6.504566780676203
Sn 13.256544827052066 7.334229423231134 9.873606726069298
Sn 8.697981573463954 2.9403713348360907 10.753765943809215
Sn 7.379021175276483 3.2268428659739827 7.872123917512872
Sn 7.2583018144360825 5.625668571597021 9.714001437141608
Sn 4.979150686108876 13.286045100640996 10.627048697624101
Sn 5.151823488937268 8.351450586341379 6.9235234616307135
Sn 11.872212092604196 11.40646270513295 7.27026612880264
Sn 5.311558295949994 10.030367534823853 9.775863043294784
Sn 10.176371176269441 1.9285956989795492 8.23969854953686
Sn 12.61773054474663 6.550663359570528 6.972855972944194
Sn 7.2254281775785 10.381457872117117 5.855636292036542
Sn 3.6999556585919993 10.924466304413349 12.063300984630704
