30
Energy = -104.78689836 eV
Sn 12.078583599309763 9.288060859093841 5.464952702048936
Sn 5.495534656695883 7.270575758234873 4.110393037104054
Sn 3.4351028573454587 5.489845268820424 5.899915870240654
Sn 9.893955685142002 11.38797621440994 5.12219691975387
Sn 2.6682916292441052 7.920944317705841 4.192217556026853
Sn 8.098649709575252 7.286546771265282 2.7775935887438195
Sn 6.666242693788499 5.827289697238192 6.676553473063956
Sn 10.694823306877572 10.49774120600438 8.116534603271537
Sn 4.385757078598107 10.327771588088881 5.074956508906663
Sn 9.246495241235838 8.16263876384274 5.5318326002983405
Sn 8.978773730054215 5.034724441076353 4.824064676927957
Sn 2.622761932033303 5.994704145779101 8.783387778249308
Sn 7.3237134018221814 10.038747674499929 3.9878456671131692
Sn 11.776118933739806 6.293554465969646 5.11307872421153
Sn 4.9014957148929765 3.793547731962796 8.023635307252974
Sn 9.257046045176635 7.2411646095190925 8.444382263832837
Sn 6.239684854672522 8.76127678682482 7.066308770384343
Sn 10.855964451818906 4.747151474198909 7.577246707242834
Sn 4.068921880164734 4.0129467105765935 10.919883348552217
Sn 12.586945799862123 7.573846376870924 8.05751397600051
Sn 7.741468798014043 11.372960057257822 7.233633656505475
Sn 7.93403352305104 9.640823541555086 9.737671038450168
Sn 3.0359087117723424 8.717092878199002 7.242007622489002
Sn 6.042963451577318 6.048916936414244 10.034790050960588
Sn 8.778140436536358 4.465869144948621 9.912821519560802
Sn 11.212629784303582 8.845177109813292 10.702869801122311
Sn 11.549103118047094 5.796710084129557 10.518713888451515
Sn 4.665851512575157 8.664020990785298 9.827798398270371
Sn 8.969463731096367 6.944092545991772 11.670947822393838
Sn 3.0054388447218385 6.763146962667503 11.564117236315452
