34
Energy = -118.79958663 eV
Sn 9.398456262924604 5.6740319918076 11.80922316274224
Sn 11.534597926704311 4.286282290686459 10.161676718336816
Sn 9.033552447842286 3.910947537283585 8.643512950260304
Sn 9.594172763796049 8.656133040069715 12.684160421121762
Sn 8.90234213298177 10.959021350610103 10.753433491151592
Sn 10.898645309620978 3.185187768889763 6.139878273951136
Sn 10.70080714987456 7.483730812789871 9.896258959423424
Sn 6.83578122529126 6.000738275713981 10.182798576228308
Sn 6.842944433739644 8.787435263825348 11.423271185574562
Sn 11.464818789849192 5.852186420778766 7.419268975918613
Sn 7.893405271155004 3.294519190628918 5.826033977731062
Sn 3.687804910749743 6.745078886411663 10.270090611009126
Sn 9.03914189043919 9.957441043263172 7.722898805786961
Sn 11.759719355936674 10.137728273245175 10.471181908295284
Sn 2.0098908308536263 9.20455946231209 8.385015270225827
Sn 5.795470783411404 4.724925316896282 7.598328253841412
Sn 3.9849690743099924 9.70544190921674 10.714290238819183
Sn 12.077393385667934 10.67023953012591 4.276305710793902
Sn 6.364929942248642 11.088879092234118 9.082926768917673
Sn 2.573213419075806 6.355819310014135 7.528390427850669
Sn 9.896314610209414 5.433470392596474 4.439959603789857
Sn 8.516442569113595 6.946950226570346 7.88097251766682
Sn 10.521065290261998 8.267790709541945 5.493030164596846
Sn 7.126081774415733 6.288187511046523 5.275809981755175
Sn 3.166184283527517 3.7995421056525625 6.334470836388978
Sn 5.3107484901632604 8.247302244288733 8.087729545590019
Sn 9.099481963235121 10.301815065752491 3.806071947615711
Sn 10.138309037238226 12.326904760861067 5.925923609569196
Sn 12.026884654586445 10.171637445431136 7.308994541179737
Sn 4.198369919381976 5.838483006143097 4.512313409360944
Sn 3.336846021013633 8.921828761891307 5.806788367459111
Sn 6.350303773307594 9.054528587754579 4.6212211705098
Sn 7.147550303831333 11.617949275351425 5.9370962336996245
Sn 3.893295217617856 8.33950041535285 3.0290499041672456
