36
Energy = -125.83396634 eV
Sn 6.073077460271282 3.3047652581699385 6.915215100407632
Sn 8.070494420123147 1.0545547052388011 6.238114343534115
Sn 6.6580438564111795 6.014901201254276 5.249991384565833
Sn 2.9921354261166986 0.1089804094714257 6.0772317225314
Sn 3.6755282319287073 6.31096229418206 5.021870594275908
Sn 6.142647826702844 8.900925492044573 1.565117775592249
Sn 8.828993380359295 3.868273649357844 1.621907567332549
Sn 4.545482767570001 11.087144876560924 6.149352798091616
Sn 2.43015040611722 8.727139076511172 6.552254508175536
Sn 7.6247319229581585 6.516428831133032 2.48151120888911
Sn 9.842415219161964 5.26499928342306 6.4470089770303804
Sn 6.159071806270858 4.3021039380164074 0.24684003510929195
Sn 3.4736942941609876 3.021456201440485 5.178147732987615
Sn 8.231269359559786 3.434362018431125 4.450110586296129
Sn 1.4808401820481476 6.218926733814819 2.8932677016725608
Sn 1.973552935268084 4.6781470587154566 8.640148541257208
Sn 0.8727408158337433 4.647462389460636 5.7748575918329
Sn 4.297865885142541 5.772386789237298 1.9265286509502808
Sn 4.087109209544557 9.070726744686626 3.9632741960941544
Sn 0.6905923458439716 1.5433094464929924 4.588423009618821
Sn 4.477011205977998 6.248046466502988 7.929645814569925
Sn 10.577077631714957 5.529846049790898 3.533562068019965
Sn 0.8209778663985867 1.9890096157371677 7.5519407032888415
Sn 1.7604879847858619 2.29042926227374 10.336415278201242
Sn 5.591154570736681 0.6731368524493775 4.536671866656594
Sn 9.000884578184777 3.098142431362649 8.307911518406542
Sn 2.008117925856993 3.2350067067277473 2.3096841751710544
Sn 6.930526743121059 10.270325034369833 4.230046972343175
Sn 3.032305140897361 8.419928436613343 1.2564898311586086
Sn 6.821232591387809 8.670697406986799 6.794359155705847
Sn 3.953870982111223 1.7755790605460469 8.474059298745436
Sn 4.9190989398084835 2.6017105741804425 2.3302573737554217
Sn 9.328302406376297 8.10647030179838 4.801332975322236
Sn 7.492742807646824 5.673912171673926 8.68850031200929
Sn 9.498592200740692 7.897408790722208 7.917167327397172
Sn 4.533320792047387 9.165029659957783 8.628517561624193
