33
Energy = -115.05995375 eV
Sn 13.431777611352128 7.888301762630544 10.163133538238675
Sn 10.82798945479454 6.047251084824184 5.0203779698831195
Sn 8.173801661471128 7.1344893674555365 6.396655111820385
Sn 11.542776004694968 6.841503303425935 13.900513652971426
Sn 5.265118272124969 8.883193038859414 7.076770907491793
Sn 7.019618482641359 4.210843175835714 7.796362207584961
Sn 8.483080344117946 6.670522234960774 9.437152379624104
Sn 8.691260929033657 7.849998280884387 14.612588220397964
Sn 10.669895867554544 8.479801970746808 11.426086698526351
Sn 5.810099815614123 12.085741381519732 9.347878343069105
Sn 4.834241063542716 11.80529961411797 6.562387923679618
Sn 8.637699249572337 12.211822372164711 12.609758799124366
Sn 13.195233441682365 9.432064055331605 13.053153571633901
Sn 10.04648445012622 4.581406488248962 7.546024892640686
Sn 13.227269640716102 11.162392521164243 10.574873485468482
Sn 10.489147011718055 9.081421023531965 5.526169044259994
Sn 5.359199744336246 6.526786094823023 8.978399401095881
Sn 12.037321520419491 11.577097470302425 6.289020994346467
Sn 11.16650247048851 7.663353788981046 8.142859760140611
Sn 7.925776792932222 9.396883837366984 12.165266285310695
Sn 10.434945366850515 10.739186601435664 8.758467268494826
Sn 8.13276950846598 4.448282731206176 4.94147810845866
Sn 13.784358500148272 9.898822249409195 7.962551794053122
Sn 5.433316145395629 6.057957743792547 5.785651604893178
Sn 7.374686380258851 9.5619720915519 9.229561492925042
Sn 9.376016414214195 5.747763961937589 12.258098272174362
Sn 10.396692195323142 13.807822502238949 7.879966485685852
Sn 6.131151481480176 13.669275900956356 11.934284740682859
Sn 8.066763644406835 14.228226849001356 9.827798971457783
Sn 7.871739108140893 10.495035569285474 6.421761243195597
Sn 7.414580940942999 13.456379619918273 6.889517526559202
Sn 10.498259106554837 10.185212444915678 14.089169347956405
Sn 10.826052554885193 12.991149358744048 10.784819437808425
