35
Energy = -123.22552745 eV
Sn 4.921756720882236 2.4377469524869686 10.919886552766734
Sn 4.852223628066594 5.357032566917394 1.041714795621732
Sn 9.960309067085225 5.067332890429758 7.8682843919381185
Sn 8.882794684066125 5.704603439076648 5.0513742101661485
Sn 5.975005930060964 8.036547382377769 8.549193532019268
Sn 3.344811288277354 5.04283170833327 3.9242312688787937
Sn 3.070424027890287 2.228820208508398 5.035216406194101
Sn 4.0887679521831055 1.89060510789911 8.067361275896944
Sn 5.405844720874856 7.863595848366376 12.265179180865555
Sn 8.865757428941254 4.166980684460407 2.404160008385671
Sn 2.956603424810093 4.786300424096489 11.328111819355522
Sn 8.431863273181937 9.442493194418606 10.112968798722106
Sn 9.653949427016903 7.143110492751388 2.0214822720106294
Sn 2.847215235725865 6.776253297248294 8.99044595839089
Sn 6.262084158761989 4.121481319244135 3.9358271092613606
Sn 8.42993001463808 8.704811541851665 4.671741578486558
Sn 3.1856328241645917 7.914297568368386 4.876078514157458
Sn 6.668088250625686 7.413583185132124 2.26399982054227
Sn 9.196064954356373 8.13630590264605 7.582075540508038
Sn 8.323094001228402 8.752147002401614 12.84401792837371
Sn 6.080367297170105 1.565317935931815 5.709075007813858
Sn 11.044399153960285 7.520978710860341 9.83751363914617
Sn 8.055116596207403 6.282066343363428 9.985896696861575
Sn 7.709095603025393 5.644070545618523 12.852962900189508
Sn 7.2401121820432515 3.844656709667735 7.132262906477216
Sn 0.6299561892391151 4.603590270571532 9.238080050684212
Sn 9.362733514677762 7.728789507133357 12.265179180865555
Sn 5.91408003049209 10.293607691894783 1.0973288738604408
Sn 5.508713048413325 9.74612246617255 4.117279524396542
Sn 1.8902882906795055 2.032891173566112 10.537683467245332
Sn 1.0792102188959556 2.060671155477743 7.540166714907856
Sn 3.6800065701816704 8.21244113011314 1.8237429894934214
Sn 6.021834329929581 6.863371330489095 5.694932606663398
Sn 5.103751307726839 4.7253391731078285 8.992438853841268
Sn 2.7918175971359114 4.575499244916728 6.96634160645665
