38
Energy = -133.40770723 eV
Sn 5.722903604914908 12.662189843207134 4.83785485334742
Sn 4.63153874046618 10.87250991904404 7.211821469834332
Sn 4.728075285687046 7.859090078708631 7.925496616627411
Sn 7.138169004262531 9.361092755247025 9.107761907847392
Sn 2.3015325261046966 5.963076959018241 9.06069171704253
Sn 7.67393384030216 11.24738522494387 6.546964848859394
Sn 5.865303673943904 5.19196655937437 9.447439108442891
Sn 0.4543836861522789 5.636108126196332 6.690865633433644
Sn 8.544085404136815 6.641395351699547 10.66111392358252
Sn 2.587827783701036 7.755040005014255 5.708303827925702
Sn 4.0363980698921464 10.171529762292908 4.1923091411434825
Sn 9.799418051926716 9.347021654696963 7.699991171794409
Sn 6.995013710007187 10.61994874735274 2.9281757934431494
Sn 6.239614322161923 8.324712807312185 5.249381669320328
Sn 3.816695046563435 4.970697467679449 6.3396679705652925
Sn 0.30908082028799916 3.266673540070061 8.483105589601138
Sn 10.772191831442594 4.702260594576905 11.138944217561772
Sn 7.9597605172558925 3.581290333077343 11.345961080058531
Sn 3.2619444447375745 3.1164909177485125 8.816555848747317
Sn 1.8062384262186482 5.168552344831339 3.917999250249071
Sn 5.29640673867093 8.208813005332113 2.207691735437905
Sn 1.5674133729903852 2.699371762261466 5.755235690914324
Sn 7.978182159148206 6.761566064712463 7.538339658968609
Sn 6.056119355816304 2.09338168507961 8.982166654052575
Sn 9.125191177626126 9.24561912086212 4.646318994418992
Sn 9.277143668902397 3.7513046428798766 8.624998800647676
Sn 6.103555087687685 5.611816094590065 3.7933394032281207
Sn 4.599049446601785 1.844163427960849 6.038832904261196
Sn 11.042736614113723 6.326730141206415 8.624343991490434
Sn 8.403954766306992 6.340729797010752 1.9570114222385748
Sn 4.152567977992054 3.669394068623995 2.7734921198076354
Sn 5.778845653102907 5.303368375022219 0.6288822495863635
Sn 10.113342992494797 6.5097199082225625 5.4898303089562255
Sn 6.833103950011458 3.982298286982356 6.598258099835862
Sn 8.78317158544347 4.088002619400635 4.063812043843071
Sn 6.635818340106403 1.9613588039637457 3.655544146208879
Sn 8.302099680554889 3.4564397480246924 0.927152140026779
Sn 5.696183220490447 2.082578799281649 0.7770239909076876
