35
Energy = -123.30023943 eV
Sn 11.334759239106408 4.512211728090833 10.160649760184718
Sn 12.092286078570895 7.26223820726388 8.843510396066913
Sn 11.910843865826719 10.263968843842408 7.9096270024589455
Sn 10.943591824652996 7.325288103915043 11.706384263119666
Sn 9.970332939697697 6.646045793857819 6.862485365615574
Sn 11.608602209165682 9.091367757594364 5.194140522194434
Sn 9.571998160512386 4.362230179073215 4.975349132353701
Sn 9.620467136067203 3.2915589780483305 7.850991453358964
Sn 10.59145426249671 11.81256107695431 4.431904809574263
Sn 10.300789918462204 7.057477351725234 3.6105933547847666
Sn 8.475738763864973 5.41090410050452 9.682487326103521
Sn 9.692139358829508 9.596239860777354 10.060794819342087
Sn 10.390338751079334 12.893329773886755 7.339203686857686
Sn 8.607105596546875 9.609512041370664 3.8624881035441323
Sn 9.008851522714032 10.286344218175488 6.749260506986514
Sn 6.886148453408084 5.528719094002528 5.101766793626709
Sn 5.075834480686995 6.278035134790944 2.7055162671097044
Sn 6.327559104000645 4.49557578498734 11.685104151320877
Sn 9.396170409256783 4.761281074425282 12.571540418509967
Sn 7.456510896583329 12.524826393888885 8.100062302343368
Sn 4.473705882605765 3.794692730209735 4.557336478687521
Sn 6.698194176604944 3.039932667678734 9.063879038494743
Sn 6.024924883220004 8.362908582763517 5.130664833149447
Sn 7.5094004099262195 7.948207696237504 8.183599612179353
Sn 5.491926838468379 10.505557798910303 7.326627860102406
Sn 3.6146997567136734 7.713089456665901 6.9858107649149455
Sn 7.854354090221633 7.572035231782513 11.786500954044277
Sn 2.34239074230877 4.728662402324245 6.611713205838003
Sn 6.614036509486304 10.362529095572622 10.30226757792089
Sn 5.230463126034673 5.093283112045599 7.497142963849687
Sn 5.248333281138104 6.976807392800647 10.025252398915173
Sn 3.6506090665776 9.532221014527217 9.472842365123682
Sn 3.2527836168060666 8.528011346448 3.8723945541413105
Sn 2.233862947437044 5.564135421980686 3.5352019608554905
Sn 1.0173605505181846 7.3757898675871525 5.7292063395858746
