38
Energy = -133.67551576 eV
Sn 3.6596960020710916 5.951767137510136 0.39624826833514
Sn 3.6822600825181753 2.880588552248635 1.3335351235806416
Sn 6.340320001203746 4.443530800098659 1.231232529030072
Sn 3.8242361793920043 9.051151200198007 0.0581575635800178
Sn 6.2548703941304735 7.5671683835977275 1.1079077779435724
Sn 5.8593594427674685 10.671460097951334 2.2019347716217577
Sn 5.587423880024787 0.6389814999481088 2.6452929976956345
Sn 8.438839838343092 8.803910849927366 2.842809486599867
Sn 1.3423577879618203 4.799345823908363 2.2434843345934072
Sn 1.5249697377153943 7.822872569485917 2.0141099412697
Sn 3.681573897291021 4.188335069835194 4.152214079634433
Sn 6.6835226279569175 4.897709915970729 4.136731551271918
Sn 8.250847350905937 2.0004862857042123 3.809074082033767
Sn 2.7223555016579333 1.2279897286768156 4.1793265630217284
Sn 2.6901520803511896 10.61791900790076 2.436519958461775
Sn 5.154246595484938 8.053857325410856 3.9392014533174464
Sn 7.251381070087922 10.258733551452202 5.303192759062349
Sn 1.2598154888184454 5.745401472561597 5.158243278097798
Sn 4.464079750976325 11.060235458200172 4.707012512061285
Sn 5.696419996617962 1.6327888528061436 5.730199665358413
Sn 7.5492334567674035 11.417979709307186 4.496377044000642
Sn 4.38871866459676 11.060235458200172 4.940641199745327
Sn 2.2317619018042123 8.81951386006757 4.93691253478985
Sn 8.596879721776611 0.8405214232864935 6.732762110904419
Sn 3.2996101909144606 0.1616941797392281 7.295766730574546
Sn 8.172600123046932 7.179355479150353 5.375240869469399
Sn 8.762445249723223 3.9934648914046487 6.339017449205434
Sn 2.042220934059393 3.031931863942182 6.587534756805186
Sn 5.728954331012928 4.787711453177099 7.0826618237670305
Sn 6.209424375022498 11.366559741349086 7.305348948949077
Sn 3.4390763506063746 6.778235741707814 7.079784539842432
Sn 4.219295194546273 2.866474295437708 8.82237771168207
Sn 7.395337168715374 3.1598535970230457 9.059583682308876
Sn 6.029216600463053 8.255533179100167 7.300354381828277
Sn 7.567476310652333 6.39129654498777 9.284013503351549
Sn 2.7712078565875267 5.501325892271364 9.76514092596527
Sn 5.521351717604139 4.827423251677088 10.973086738294343
Sn 4.897330625339727 7.692405966866896 10.187834831459629
