36
Energy = -126.72616528 eV
Sn 10.623145005332692 2.933695953770594 12.045846682531854
Sn 9.13953689168832 5.311071982468752 13.113443646748246
Sn 8.465054864973476 4.6473967496912465 10.336661067955934
Sn 11.233283312314358 6.059730655230337 11.044274058330902
Sn 11.550972840631063 3.640818590993539 9.26730026934207
Sn 9.12775286130126 1.5621992223820684 9.672802099122263
Sn 8.933086475661783 12.501532551718231 10.551997477938263
Sn 9.906083734737841 6.476283359258828 8.272712350207643
Sn 7.4322011417034695 10.91853659555679 12.681112554351685
Sn 10.911022120698203 4.588446360214881 6.175233029403934
Sn 7.1410434226069945 7.900027816216544 12.22083875552641
Sn 8.330696187749929 3.563262497524167 7.435494034943246
Sn 9.521083880596883 9.398159783413975 10.796162433409958
Sn 10.502699840389477 9.328526032650188 6.130586788979727
Sn 10.925545136970522 1.6292745673670612 7.239232577923499
Sn 5.755206632506298 12.7857495762215 10.91012892956487
Sn 11.050909518332295 11.505455663144785 4.158286535675139
Sn 9.264539628667409 9.47753158940901 3.1415737000758797
Sn 9.239526528115192 6.780829145468918 4.6425910779374435
Sn 6.826474478931931 8.271984492148777 9.34030171080664
Sn 8.534265861704656 10.498417436975044 8.171007690684963
Sn 7.046519357856483 7.2466186499029615 6.57901980294694
Sn 4.769601095380214 9.919373736752373 11.343773171419025
Sn 7.096947161090882 13.162243904953774 8.110030531285444
Sn 8.294185081352929 11.782714024336542 5.253328033095049
Sn 5.638081473594264 4.7520157755508405 6.0005634471395295
Sn 4.000846405282517 7.186146794063137 7.37457796229995
Sn 7.11048333343421 4.914421001348545 3.401453072236822
Sn 6.378962295353347 9.525170331706839 4.8838324197870655
Sn 5.29776656889267 10.776478596885946 8.51366706840059
Sn 6.847950917310008 7.798683545078796 2.383898110735685
Sn 3.6127270788892476 10.215083992490387 6.053127555073502
Sn 2.6273914324839303 4.888378586259049 5.703147410884893
Sn 2.2200193355958926 7.825154328714702 4.95028004980703
Sn 4.09537292697547 9.11165244027516 2.886181241329204
Sn 4.186938229282704 5.993548677435332 3.3308167101689166
