33
Energy = -115.00608786 eV
Sn 5.517902198535651 10.009630881477959 13.124184963527483
Sn 6.423532091520038 7.110734719346442 12.294682964444295
Sn 4.527106889676092 13.079300161062397 12.877438971638725
Sn 12.056030923219106 12.299501848959718 6.443689737229133
Sn 6.728663426681226 6.800939323036671 9.342116942482093
Sn 14.376355886638008 5.2037087763031815 4.501218572636696
Sn 8.211505971339196 8.526457955247249 5.371271841376655
Sn 5.970496265353126 8.923629794477595 7.370749976485085
Sn 13.205584211211804 12.713714806080034 9.16678078850107
Sn 7.981506239445606 11.954351086061317 9.493256481503405
Sn 10.642148144356515 3.1324955978594766 6.636407144421607
Sn 13.588748297379958 7.6910068582889295 5.816733172679236
Sn 11.695866755173753 14.626582397536282 10.7864633331142
Sn 8.73249994550778 9.112658877870865 8.49936538915334
Sn 8.312072732108897 4.301955536949676 8.361393269401718
Sn 8.1745262490135 10.69050131558203 14.49041401465347
Sn 11.499771763377241 10.274408095489411 8.930404675013957
Sn 11.436786711038154 4.91211817335776 4.401696413455501
Sn 3.28676447484798 13.600078309265527 10.22356592377297
Sn 6.577899692665328 5.998552070038208 6.3724547148359445
Sn 5.045250554601806 11.25446173903349 10.253526278113842
Sn 12.680240110976971 7.502982270673039 8.648057832170068
Sn 13.115672380880634 4.765010697134567 7.12549423368455
Sn 9.951473060150777 6.512636149413098 9.661129214448634
Sn 8.199351431895735 9.427028530715443 11.622824191171963
Sn 9.85687841683449 6.257242505102487 6.519610306766653
Sn 11.186842766603728 9.374981098170458 6.048729441349698
Sn 6.111685464529805 14.33750306246116 10.351683696754973
Sn 10.410400295572336 12.019711909351765 11.458280949520468
Sn 9.492390254903581 6.820435713228441 12.649132928420151
Sn 10.269290830100957 13.659506324180697 8.359260808132957
Sn 7.46743519750331 12.790117164335223 12.54438342575
Sn 10.720857324372442 9.576943959940127 13.335645348306604
