33
Energy = -115.72932612 eV
Sn 3.8077051765955185 4.76665843735297 0.8974437751099686
Sn 7.357040743846861 11.589698584836471 4.890528552577195
Sn 3.6732664578265757 8.17551535807769 3.5683483870700363
Sn 4.608158334521779 4.038946725851222 3.791217890143546
Sn 4.425780305417606 0.9821555884594365 4.1622692598767
Sn 8.489213582732098 4.222608630056424 3.8331421836054846
Sn 2.4407303093169106 2.299370389785022 1.976963733960622
Sn 6.358869306357615 4.793407003131284 6.302464790429644
Sn 6.530964163395281 7.174382393567593 3.2495115019003764
Sn 4.585071101286267 1.5271785931937067 8.215806386974196
Sn 8.52847549727435 6.89924038300486 5.8078592742235395
Sn 1.9067418017334605 5.240724446007129 3.2056848525288473
Sn 5.684274279114814 10.361746192152191 9.920480495966476
Sn 7.027526467008624 4.963393549051438 1.3233371505425757
Sn 6.76937690767104 1.816369489243408 6.194396924781708
Sn 8.710746342036847 9.118486406301585 3.6851709080880197
Sn 7.613325483290584 6.146647085693845 8.72192913012233
Sn 6.6820932591709505 9.893009309213255 7.175797519662676
Sn 8.940297472305401 3.53198808798622 7.7471676275898576
Sn 2.0555357982621656 2.7324372781190878 5.110712549739533
Sn 3.3845729109611375 10.086084462656741 8.098836282840862
Sn 4.934847496179262 7.792534395378318 6.204801281851861
Sn 5.924799649510711 10.120001853538456 2.653487084075248
Sn 4.256181074413012 10.87227911443337 5.1636655445776665
Sn 10.756790551864425 4.773237359271663 5.63990529081587
Sn 2.2667445139360236 7.196120491648925 7.5630481946142805
Sn 5.668372681829949 4.064786173795002 9.790123147606598
Sn 9.58621458445313 1.800610423729873 5.181410383260881
Sn 5.47485787515562 2.1646784862271256 1.5074268187892814
Sn 3.606518058495789 4.32133207628576 7.29990772617919
Sn 4.873637433924686 7.575249296958315 9.386425989535349
Sn 7.31981845980314 1.5384959502839528 9.400476307258451
Sn 2.9471076374088545 5.394520557314279 10.08271505660478
