31
Energy = -108.30129869 eV
Sn 9.49551966853957 9.509361529572187 8.32748449540682
Sn 4.18734210643457 5.351769793323729 9.785940658452034
Sn 11.465085726195875 6.574970167882668 11.30111245389396
Sn 12.694270535234077 13.247174132427169 8.68968699684624
Sn 12.956923063332253 11.64937332954951 11.265085544227798
Sn 5.834646691418577 8.24687907417948 13.310543398136927
Sn 11.250086756801 6.370512894238594 6.200080141747746
Sn 13.207330773253224 6.571034348490026 8.639273821097373
Sn 6.489238423112523 5.9923964502069005 11.500764833450498
Sn 12.008282256339653 9.141591594974257 10.103715501983075
Sn 4.3378090306753 8.180003303682465 10.72321710504287
Sn 10.373398247946914 12.150220338777219 6.737357193809967
Sn 6.16041790234418 6.178627491252961 4.4854630298268265
Sn 8.718477826886076 7.025172119261822 9.828011926003036
Sn 5.968136954285471 6.843817454715286 7.971592006858735
Sn 10.64528646118737 4.84382261290134 8.870378484953527
Sn 6.809267793626524 9.18155443164587 3.6537377339473114
Sn 10.1159839520406 12.053428344525846 9.86433676214049
Sn 10.1177334583302 11.357944900477888 13.047502054955581
Sn 7.379916491586075 10.659097595347365 6.354089429359034
Sn 8.484967176036754 7.7991207696778115 5.567301491450097
Sn 12.092380044655021 9.121520400290633 6.96005946869493
Sn 5.262089650845862 9.928556624942948 8.38650496250663
Sn 4.714767055435179 8.465076310648694 5.708113848887392
Sn 13.343772698201848 11.639579685366108 6.141110065006033
Sn 14.45980509074836 10.518348076781844 8.749741504093784
Sn 8.161104482353279 5.151831161339943 6.888596921918079
Sn 8.952877086309217 8.451843240901514 12.80173483348319
Sn 7.9565047250283625 13.141687688536122 11.584863965865138
Sn 7.347144301505594 9.987364733898644 10.72385159398488
Sn 7.093307827235866 11.105692005618451 13.577167617639505
