34
Energy = -118.75090694 eV
Sn 12.402257270141108 8.781942869306484 8.809573994482681
Sn 12.640762074817225 6.81812368298098 6.417035849173371
Sn 10.951098584021189 4.13320476177938 6.902966540749538
Sn 6.437755790941359 6.639863458674127 5.386542692403175
Sn 12.50920259508899 10.067813769216231 6.162981487722046
Sn 8.6527047900089 6.460937892022141 3.2431642693751694
Sn 11.206699966938945 6.119328782406662 9.274503549234193
Sn 8.38351325602246 4.096001909471667 5.154020550351184
Sn 10.710505949345631 8.344870412545315 4.545306677481208
Sn 8.640166649651215 3.3803676410405448 8.730246123569325
Sn 9.014048941095968 13.141818964206646 8.320681890293931
Sn 9.573786475333891 10.272049292909761 7.176571491962589
Sn 7.777036177014955 9.367786722683794 4.545518399262452
Sn 9.25183235021819 6.707968774218682 6.621366630040313
Sn 9.152438709855197 8.33489037509844 9.376821269528971
Sn 5.955495589961012 4.0454388085955895 7.185900065913306
Sn 8.262049123467568 12.098213222978057 11.052341460249439
Sn 6.12873242048866 11.927978567275503 9.15026359656926
Sn 7.110621107505453 12.252378482301795 6.044639083713763
Sn 6.433716872289424 1.419527337396093 8.98283095299632
Sn 6.339236730014037 11.728202379011275 3.225039490394831
Sn 5.909507712308037 9.45824208746883 7.058271669598419
Sn 4.691565297319888 13.886965189273804 5.014207208575151
Sn 8.251152551787566 9.205278456235028 11.938738082291364
Sn 4.064124978411856 10.783606670438473 4.9988049016646015
Sn 5.869155448795178 8.661392900734771 10.002850796553926
Sn 9.004194916407782 4.90241605914599 11.410628727971186
Sn 6.736146205164673 5.8903106510766925 9.348411253395037
Sn 6.087076559457892 14.628257492689986 7.688338359258622
Sn 3.6684358555659458 12.572688809122793 7.573297816926504
Sn 6.6213247784698455 6.475499894786963 12.398768104353444
Sn 8.318748600068412 1.8812357071413022 11.50266017064768
Sn 7.039013462493782 3.682388913519599 13.635392824402622
Sn 5.685973684218413 3.4364877527911095 11.031708950865433
