33
Energy = -115.44540498 eV
Sn 9.472329583561264 4.446301604042223 10.821293552083285
Sn 8.935696666089957 7.27187634306335 11.58342693306826
Sn 12.206971380951847 4.100418219337216 9.724952486204034
Sn 5.652406533405443 6.557589932586853 11.368812497035313
Sn 7.120260139947399 4.1830392398528 12.562129030054884
Sn 10.63391842107436 8.371454914409092 9.348626327132418
Sn 10.827218631828936 3.416939758327446 7.25105003435585
Sn 7.353077089527173 7.894423268277401 8.959623605586634
Sn 6.727069089688836 9.360096626152378 11.761074990102568
Sn 8.111798488860117 4.68267731985163 8.276110247126496
Sn 5.607307280869483 10.393280332605416 9.033604360272275
Sn 5.531262250228134 3.406735171752816 10.196973017412603
Sn 12.089115177878664 6.324647209149993 7.634361720995117
Sn 4.575679838985537 6.079023422058636 8.5887909078134
Sn 8.487579088706498 3.15597218474899 5.518136522550919
Sn 11.292697498142156 5.2282391378857 4.866366594348885
Sn 8.754335245557538 10.821181129992398 9.680611986754357
Sn 9.224511003711152 6.927706962974469 6.578910672758246
Sn 7.593674003227879 12.003565233491086 7.204338068926593
Sn 9.842304537985644 9.928702099383786 6.754449087880038
Sn 3.077177349597913 3.5667330735864398 8.658097606510488
Sn 8.42280614520443 5.750792807173177 3.7780076224771215
Sn 5.952138120594944 5.988921124737724 5.62469436067275
Sn 5.720090876979785 3.240031482059251 7.134721315990533
Sn 7.121303731396826 9.27149390067073 5.335993014950027
Sn 7.785565060619773 8.671719173493406 2.4856003590220457
Sn 3.2255513617521054 6.859326400009314 4.355418734934048
Sn 4.922952218408694 11.69082250403421 5.634900050391042
Sn 4.889234840552537 8.087278102225818 2.2325200178232185
Sn 4.435678564043135 8.595875120683392 6.603369634810399
Sn 6.006528348315681 11.05312202303146 2.905706427584875
Sn 3.538369290229268 10.572951607733238 1.3540429806179697
Sn 2.9540513118172176 9.839438304950265 4.171012803612937
