32
Energy = -112.28423673 eV
Sn 7.8255264282163575 6.715467397279545 13.579674676200815
Sn 9.972162730473062 5.828066797786595 11.681348062863504
Sn 7.13843864282869 5.699932936354297 10.3830436047046
Sn 5.100496743736473 3.78292642575144 7.727900050322524
Sn 6.435537393571076 2.507352563973173 5.19892923792009
Sn 7.799436885384055 4.910718169034204 6.645225672582873
Sn 12.753237927254125 8.593982377942883 5.086422719000284
Sn 3.0245611502138274 5.818117698990853 6.748846999804603
Sn 10.101052179905883 8.796112466294808 12.51888238810452
Sn 6.434672874742437 8.429240034088867 9.156563136119882
Sn 3.377089697568995 2.9328668666444124 5.285925808825345
Sn 9.812479015676706 5.08101984496035 4.375848897435934
Sn 7.329295133043742 9.723816698364935 13.5212886840542
Sn 9.914648815455907 7.857306428952687 5.27568239825616
Sn 5.401649845340609 7.605983306243082 12.00502480136343
Sn 9.44764702105713 7.839966753541905 9.538681626943621
Sn 4.8643361043532884 3.1551908362428756 2.633450718266371
Sn 7.030565027065481 5.031573964543198 3.423445307766546
Sn 12.00999024860748 8.03880355237422 8.007171789110629
Sn 12.629209715544961 11.03392218239698 6.744735645654446
Sn 3.63654212925486 5.706632403160872 3.8350920259173575
Sn 5.796900123557381 6.853563930521379 5.76434266174878
Sn 10.519936193499495 10.79220104451021 4.364014803067754
Sn 5.555580268429142 7.656636017071468 2.71755276350045
Sn 4.011558817631653 8.728170100977794 7.340688422941217
Sn 5.319567435368406 10.455016957002242 11.213948390862976
Sn 8.301917168756653 10.471007766377552 10.669843151883837
Sn 5.406124811538578 9.767682248742897 4.854635746002557
Sn 11.639862292981762 10.674762302697001 9.558994223991306
Sn 7.925394951478077 9.595558743561527 6.363499553556762
Sn 9.729703769307513 12.929683394566966 9.749990910386956
Sn 9.691318052031962 11.774128630529459 7.099190318730589
