37
Energy = -130.73942873 eV
Sn 3.2392248577909126 7.171092200988396 11.147648067425244
Sn 8.16253904262362 8.337186394782664 6.078806766950218
Sn 5.926644604679402 10.430022721206182 5.220383264445793
Sn 6.409857671963219 8.881926270183055 8.47448502846845
Sn 3.879371627132251 10.098894135961926 7.342378136003335
Sn 10.737693620802444 9.370901300566777 5.028831315054842
Sn 4.563820986676669 4.567334988451865 12.037458292253909
Sn 10.74511792515022 6.475984781045052 6.120098352469088
Sn 1.6313148624983262 4.462785538115935 11.034007877869673
Sn 5.549203982874321 6.157866737948208 9.505684527495658
Sn 7.1671959081081615 6.236550811676425 4.041653668026007
Sn 8.627037971697344 8.72530663160018 2.953313251657086
Sn 6.069284306461072 10.148193084715606 2.1506145076058014
Sn 11.35788032921127 7.0958789867945935 3.0659393066103084
Sn 1.7066214543633038 8.11198816873248 6.47697507449598
Sn 4.7160073847191075 7.193955254173222 6.423350610359956
Sn 2.2328496952920265 6.162009474222719 8.547727921779689
Sn 8.10123441520438 4.845962327994613 6.5176997130366034
Sn 4.420643727501811 8.251916816798571 3.666143018322471
Sn 6.2646460853759836 1.9366552115765077 6.480298909456935
Sn 1.5703419189721344 3.2358562108805704 8.103711356300634
Sn 9.843427709044432 4.54160184249193 3.822004214983981
Sn 6.440931490061913 3.3329577528641074 9.831520294887483
Sn 3.6257610646995846 2.2062378902618223 10.15394342708683
Sn 2.347451694080935 4.348788078583146 4.882302293037679
Sn 8.86993419462692 6.029660250243043 1.370168156195447
Sn 5.079465150951021 4.05165370546804 3.8741501138510324
Sn 5.878327278969709 6.988523102076388 1.2884620118902435
Sn 1.7214222653370872 7.1318427695078634 3.5696490342156673
Sn 3.8843908500909854 1.0357139116534078 4.780250861384623
Sn 4.415557690328054 3.98456650380126 7.585381254608428
Sn 3.1888621438941183 5.354008558252719 1.4704934337893485
Sn 6.745443210734633 1.624539327637779 3.3485547128447117
Sn 2.532820063017789 2.5022770091373077 2.1909464967952057
Sn 5.377288595167165 3.2222395312376952 0.90876657713362
Sn 4.519325356414992 0.3090277379798732 1.841846167150226
Sn 9.075686888902984 2.062722005809497 5.2889800094776405
