31
Energy = -107.53595971 eV
Sn 13.256641178031044 10.844022893077787 8.081030065179043
Sn 14.137244222204664 8.13375354140272 9.313203160604116
Sn 5.564750356103291 6.327502776608725 11.4420599288172
Sn 6.45876150904076 8.290299025971336 9.40005892161766
Sn 13.619916690275796 8.095894367562204 6.411019174449993
Sn 3.0490970571734226 8.152857156522566 11.206655668614621
Sn 3.9155686833211667 4.045357258848271 10.340282418092844
Sn 12.06723245242143 9.671271663668383 10.734019185919038
Sn 5.360238253204675 12.938706706738456 8.729644210355858
Sn 11.239885733381884 7.815928184170884 8.400945187235088
Sn 7.145603654502207 4.527881569797342 9.421642978288677
Sn 10.150315511117421 5.078718439423837 9.05876189222392
Sn 10.011902892090092 10.621346038180658 8.725438651768176
Sn 11.274739249912539 9.86273837405192 5.892965310045913
Sn 4.1143383017754624 10.225042544033926 9.324796580042031
Sn 7.917528284531672 6.709085997976904 7.301570056331684
Sn 7.187375975299358 11.069541698820204 10.235863433733142
Sn 3.5536975036491656 6.6141818445058735 8.802517626880675
Sn 4.956703022757739 8.432253997814712 6.691615628529134
Sn 9.503118781116392 4.4926752353600055 5.940472698133206
Sn 6.827025416702418 10.973931338724176 7.04981242465946
Sn 3.318180803885188 4.077410872590176 7.2748112381108925
Sn 3.7931734220797284 11.245730926004397 6.542705399466211
Sn 10.360952227256885 11.458138131427486 3.562741131667894
Sn 9.44925399352493 12.521943136255143 6.214416815622468
Sn 6.150778812520272 4.494182265464459 6.379854264307557
Sn 5.515393642260626 2.145433265318181 8.579528279961636
Sn 10.228497004533093 2.42453628582237 8.000301884030335
Sn 7.442873185579103 11.63617139445088 3.8833671778666266
Sn 8.441161966345101 9.206730516710353 5.192686760144354
Sn 7.688810593933345 1.964134646571207 6.432931997510157
