30
Energy = -104.83441811 eV
Sn 8.654130282830405 9.725113625560178 2.1224228879401354
Sn 6.091418859501251 8.1311737859361 1.2455602733484634
Sn 4.338022131362133 3.9312152794768824 4.337536641851944
Sn 7.574358761272342 4.495419662290573 3.818981435826249
Sn 7.778213327447391 7.655230995667315 3.9895219571088902
Sn 4.920484776118577 6.751252360756854 3.6909976275028655
Sn 3.5986566068759522 9.368911171499354 2.8336121802066767
Sn 7.7039577049667916 10.771299165769824 4.818412997137155
Sn 6.444523681625881 2.958535033293915 6.3730913982551
Sn 5.941650053847996 11.101886228275065 1.977755719479887
Sn 7.030870736693814 6.000953238598369 7.082791988307436
Sn 5.066758023737184 8.881025349637328 5.72742793819357
Sn 4.766026422649974 11.59050380733041 4.785720942549585
Sn 10.348694915873578 6.138582414818968 4.697082882897335
Sn 4.041855228278008 4.848260594201916 7.21166010020043
Sn 3.688354443818151 8.52695984112295 10.563386959079688
Sn 11.579354704340433 8.199827854063063 6.550591328511006
Sn 11.7510147106419 5.506592329809802 7.641904610239596
Sn 5.875766044329316 9.49788848467144 8.692189258903285
Sn 9.32223943150797 3.7932301319811406 6.475835240408981
Sn 8.574763328316958 8.716753917578188 7.01047414500477
Sn 3.2478588189442856 7.6497409767993485 7.778463086377242
Sn 6.576489540500764 7.04332210743715 10.145772603699822
Sn 5.661725244453345 4.156306155314753 9.65109569873471
Sn 9.033989261715435 5.201612637850393 9.377207891772315
Sn 10.475380919241324 7.828986869677643 9.337698250751497
Sn 4.483361848334315 5.857487910617763 11.918975231307645
Sn 8.182494551890793 2.916731442115809 11.023388773302772
Sn 7.697387777601851 5.64339486408997 12.600363013098013
Sn 5.731922347171991 3.2935262496473774 12.7018014238932
