37
Energy = -130.23384737 eV
Sn 2.107381147244336 7.65631665539472 2.3549385216171865
Sn 0.44124222201797836 4.959303376329466 5.767922519377793
Sn 0.8726631657802386 4.976162071397025 2.810509445402725
Sn 2.8916258115571027 10.201188192463949 3.953297267565493
Sn 10.962708515453507 7.727328400925078 6.996422995854214
Sn 4.494227935527018 7.437612077007564 0.5046202202386026
Sn 1.5436300295771497 2.7985743771340834 7.613464330561799
Sn 2.2413381030965422 7.6380587370451405 9.001804314571116
Sn 5.023897335693487 3.1454065891921195 1.295741312164361
Sn 5.267032676158036 9.327592984304657 5.656141880674626
Sn 5.327088555159337 9.385132909003605 2.5063560118284522
Sn 3.539805758983479 4.621803246677131 6.079195769973983
Sn 2.5067317887041782 7.494321335705537 5.622790302775454
Sn 2.872540881014493 2.8040521687675874 3.510086222589417
Sn 2.9574990457607537 4.691444344350306 9.499745696826889
Sn 4.216912676045395 5.599616689953345 3.0625662887654483
Sn 7.314761106017274 3.811450092155335 3.135045315533943
Sn 6.787235591649531 5.495462279668728 0.31897133067259903
Sn 6.5032739192626305 6.78538477386058 4.782678051461343
Sn 4.868425243349923 6.607078720562582 7.831493058292393
Sn 8.588332638309673 6.631299205099949 2.565085488506085
Sn 8.064154044433991 9.39899852509217 3.6483134634010748
Sn 4.325323672309257 1.6828766164684708 6.33524032925641
Sn 6.1732736032919115 2.269991933198475 8.708698225174786
Sn 7.067034942879911 3.532727820106955 6.0800767736462396
Sn 5.747701520503707 1.1818509248639044 3.6336506175528327
Sn 8.083150564499793 9.320843802538194 6.655202424042907
Sn 5.789056024522434 4.6612181935054116 10.530016553477768
Sn 7.508525905013999 6.952786384494254 9.28263465029808
Sn 8.92586256866291 1.3720831149644215 7.787833573338547
Sn 8.794862324544443 4.1773482002059374 9.050157013562883
Sn 8.828932328571119 6.265765908817168 6.590740026773262
Sn 10.21406755493234 3.4308828196840744 2.921935576506594
Sn 10.962708515453507 6.035183271490581 4.404587301197746
Sn 10.579384716564588 3.499008288397731 6.109426708472306
Sn 8.863626923020206 1.2522262753845295 4.704776109063952
Sn 0.03822626369315493 5.399387880808991 8.915603495999706
