34
Energy = -119.03936275 eV
Sn 10.001168094573536 14.617654389703652 11.439593431381843
Sn 7.968138629251199 11.802667773222367 8.65051241569334
Sn 8.869763453382127 5.282259443113911 3.0263922251309796
Sn 6.289065940654286 5.658768031045599 6.192635196724851
Sn 5.503797708885144 7.100789917561173 8.730224145073532
Sn 11.32837738875268 7.930169677843126 12.11932513005033
Sn 10.709662349795108 7.913063517345346 8.966025988519089
Sn 6.2287824965346035 7.5503531115546725 13.378562796305456
Sn 12.425072236680732 13.616116181696574 12.867143025586502
Sn 8.340597193941571 8.86255398658541 11.599082204342157
Sn 12.355244604375127 10.524456278178443 13.914691091469967
Sn 8.351797616227351 5.592565033277877 8.953485722298545
Sn 11.657441089587355 5.229210441185925 4.283513463622783
Sn 7.862229011389655 8.842098012431666 8.553336966177193
Sn 8.856294150867898 5.90990105765917 12.553233797524157
Sn 10.889573629535235 11.0382462717006 11.40017938587208
Sn 10.160926591226318 14.221911901419807 8.279758734883442
Sn 11.933542017265758 7.778756345805039 5.962680181424269
Sn 10.432487685542714 7.907352848870764 3.23977633171273
Sn 12.50754811405425 12.922513503772512 6.779709857731286
Sn 5.961565846712342 3.8798864105467232 8.551014135627762
Sn 7.255503184571023 7.699523154216703 4.075620501925027
Sn 9.734471769198205 12.23535279985625 5.648070037416724
Sn 7.1003454052345845 10.685269286435227 13.901606605783929
Sn 9.847551511883005 12.324431361823887 14.33141868418271
Sn 12.56781446955094 13.171580718260385 9.90561320584367
Sn 9.658709066706564 9.100952051395167 14.433119261368097
Sn 8.209748042514589 6.607383154036908 15.347272986334788
Sn 10.948616208593267 10.890830442203585 8.320714557832268
Sn 7.532752296214226 13.9486731617529 6.82042966274034
Sn 6.115771358704558 5.426257049252212 11.22610390858817
Sn 9.343315783215848 5.990755623993048 5.959360771732745
Sn 8.165739614871057 12.202028087758801 11.580160173767775
Sn 9.183255980667226 9.23465543901403 5.811878229714769
