30
Energy = -104.92844194 eV
Sn 5.202361516811213 4.251101545227395 3.449525672174727
Sn 10.849395788202731 5.589104446259943 7.015085845024588
Sn 10.093497356662702 7.721572070818439 4.800879233103442
Sn 3.2388745948751323 2.1934700814487087 3.918718755155599
Sn 3.9389940724134993 3.6511363198423563 6.397222276439308
Sn 12.93823515791839 7.653357782533243 6.12741084268581
Sn 4.27590038161329 6.898933657308961 2.629577798633211
Sn 8.930656758743968 7.763492320045862 7.7697021863644276
Sn 9.08264681134852 10.278175125295093 6.021976822893526
Sn 2.1289998185096506 5.0036624564772545 4.069259071285411
Sn 6.694587295884619 5.297773058383086 5.902267140157091
Sn 5.032185798852957 5.983858351962983 8.363575869068438
Sn 6.641361214739711 7.984407600440028 4.386153338967252
Sn 11.951574113579667 10.303732022319217 4.8586345727111455
Sn 11.913495505389674 7.6940871570368055 9.137235069810485
Sn 13.154015645748865 10.213963544844495 7.792782188703697
Sn 9.542786847437421 5.61901948231151 10.168224444426693
Sn 1.9344098896612183 5.7087554295975025 7.173882296637826
Sn 3.9624695053402874 7.110440576209438 5.6207907337477
Sn 6.892671133179968 6.79726604209235 10.939692414074992
Sn 6.212382744412456 10.675963473731668 5.502139503001112
Sn 9.768365794051142 7.608420975328924 12.283625943410081
Sn 6.093595389366209 8.824416918296926 7.794342918339528
Sn 7.665860551249906 6.030890672636212 13.723519034955505
Sn 9.968619192382896 10.595021559846849 12.090862610466917
Sn 10.21520779622148 10.220912533662224 9.096135796643813
Sn 11.03005111415853 12.300443615127369 7.103420786522158
Sn 7.139067088083196 8.858640405840736 13.490216819211458
Sn 7.231122820274872 9.850583349506552 10.442754753253167
Sn 7.202874722557728 11.652982348559542 12.73820508274707
