36
Energy = -126.28633887 eV
Sn 13.659737481037084 7.522738680573363 10.824412549210036
Sn 12.633871779343071 10.079984139268419 9.434999084241912
Sn 12.702406411876224 5.018879270462887 9.288144441897686
Sn 13.612584658617031 7.666901077545749 7.762773104454144
Sn 11.589337278632238 5.824839436064326 12.153348512298043
Sn 11.021998629961768 6.297672108344065 7.063373887933201
Sn 9.596203095173646 10.22987073789871 5.254123540276118
Sn 10.255159057092145 8.950234330701164 8.14156484057051
Sn 9.87897678634136 6.289921362975363 9.856684734895243
Sn 7.461695847337765 12.107881748840981 8.470567265903483
Sn 8.409371124593097 11.845161641843145 11.462156325468
Sn 8.150028677216104 2.5031068387286664 5.038751626395005
Sn 9.426681827442337 3.4235875389521047 7.706178144890975
Sn 10.763349747382678 8.813898375189728 11.441933131083049
Sn 6.7783095340262 9.144724442028238 5.176392857996514
Sn 9.219219828514674 12.373487935519668 3.271124905074238
Sn 9.011287188794553 5.503558390255923 4.902950672725036
Sn 7.057139417717675 12.047094011169019 5.3542528638455575
Sn 9.69607657711152 8.080350890329036 3.2998322740642054
Sn 6.27879355905395 4.628852563735904 3.711898513033136
Sn 7.722910718215942 9.319208479369703 9.821337890336274
Sn 6.6049194691442095 2.3875662838902745 8.06700250248088
Sn 6.484176053870925 6.454899291471239 6.206265202487949
Sn 7.603979629402644 10.045619226830983 2.51569234390579
Sn 7.28186849971522 5.279944463908968 8.869366289419014
Sn 6.547185359880679 14.14742446371304 10.530300867531093
Sn 4.423057362020065 12.866471538063754 8.785048778862249
Sn 5.05115515028343 2.376336896310353 5.391991034035946
Sn 3.75737008661773 5.278429024339161 5.348774252586933
Sn 3.9663949702247017 6.680740464483381 8.063239265772944
Sn 4.871536057856058 4.88622634616302 10.42259882532074
Sn 3.6584398466019707 3.4326169112316136 7.934418497612616
Sn 5.144447426816643 9.904147312389112 8.02306005656089
Sn 5.499736997787768 11.436688782937102 11.353375753382506
Sn 5.122901351807484 8.018248954434496 10.680163846044488
Sn 3.0924406717786335 10.2198813149414 10.283274363149467
