38
Energy = -133.82672952 eV
Sn 3.161565998668814 9.676676239187584 10.323619278857727
Sn 5.5922046097516676 10.41239073020714 8.48400290401449
Sn 7.82292726917158 8.930941874868367 6.568940238448807
Sn 2.75946534730592 9.871764855401919 7.234875333201442
Sn 6.0177580625596425 8.402894545295283 10.814010918560589
Sn 10.509887495896834 8.371795060238673 4.575861906511831
Sn 3.4888458028212406 6.6045958705146735 10.961783363375455
Sn 7.798899883991817 6.752433546747423 8.633558046331835
Sn 5.028789169234821 10.60457297317299 4.855207370177423
Sn 10.687113038097962 8.134244358900428 7.609887907214558
Sn 7.591011734807499 9.427156733509934 3.611026489261884
Sn 4.608505929677801 7.565467254388047 8.208396217088593
Sn 7.332185407374639 3.72024426033788 9.225898530779855
Sn 2.4915760060881413 9.428697256339099 3.384676435369654
Sn 8.944657952566459 5.940212863945213 5.665963206516334
Sn 4.259099025126236 3.839275761173105 9.676413991211927
Sn 10.67928820675314 5.074445638605232 8.183018122624462
Sn 1.6257610967330536 7.326728087622869 8.59469820013289
Sn 5.020604405252967 9.65128879558646 1.7308533885332482
Sn 2.0228465522767385 6.974174508486708 5.219328100591207
Sn 5.4454854851449905 4.8654299773943945 6.951285470740092
Sn 12.561642232883035 6.16006520550238 5.980963410129278
Sn 4.998072021064126 7.3705301006337995 4.685064377559073
Sn 3.321481901375417 6.830371860944034 1.8915025942510526
Sn 6.49592140770539 7.040199563155018 1.9787237338042865
Sn 2.459213892344732 4.1871171215809495 6.982681126428705
Sn 11.009913422832353 3.628984709752335 5.433697568686693
Sn 10.877529935696185 5.626344358206459 3.213113438582683
Sn 5.69527638750903 1.0870063939296257 8.87570221852298
Sn 9.688427050011672 2.1596359531949307 7.749738086084527
Sn 2.7166079603986777 1.5248278363431391 8.622555718431746
Sn 3.063742938876877 4.394264219665635 3.8118553872585172
Sn 7.051029994210749 2.2801942931236496 6.36613775762708
Sn 5.111103346383405 4.519918984499017 0.7049369540265713
Sn 6.42739468275542 4.335122081958269 4.090652270865247
Sn 4.1149177258457295 1.6774258182058912 5.929095069023267
Sn 8.051495549660329 4.588931499337214 1.6360937924775067
Sn 4.711095926605442 2.246967258062651 2.7611771122189968
