35
Energy = -122.48467332 eV
Sn 11.04738773972731 6.328113317651443 11.516302497551873
Sn 7.956406051413811 9.864564556548709 2.4122503655229828
Sn 12.564526745868845 6.560008149605653 6.194399509081311
Sn 8.893629654508656 10.675478007874744 5.148203785952674
Sn 11.291052469372977 8.909280090400491 4.726947543159372
Sn 5.304037489509306 8.151217465838952 5.385921075138452
Sn 4.586382281643153 9.091688861216 2.6843478652287165
Sn 3.5628883865555854 7.260196730346498 10.051295633042828
Sn 5.915919949870945 6.9781939052830175 12.120136869212258
Sn 9.66135787395639 6.424190426476029 7.012096829597513
Sn 8.31999908601616 5.085450349775439 10.927828070056472
Sn 0.8904102808601784 6.194508796979387 4.8902024828864885
Sn 5.493279639212013 9.69668041272343 10.064714220774983
Sn 2.3810936447654933 7.022411035789833 2.3687510252555786
Sn 2.1796112125295313 9.013699287990173 4.787760425279662
Sn 8.78565448982451 8.335890939214142 11.16714394417713
Sn 5.843494325379017 4.0722188431683985 12.411526590769274
Sn 6.802318222665258 9.683549119674286 12.800592687530024
Sn 6.706878663360953 7.111996108675509 8.974106357936238
Sn 11.321661467211625 4.7148811550166085 8.887347774677547
Sn 6.6853834274478015 10.085406813738814 7.249858846436347
Sn 3.0267989058687115 4.271086665896528 3.5465636244621277
Sn 14.110826005071953 5.823788027382328 8.525418454958638
Sn 7.3458699502154 4.582060483739507 7.628839437770023
Sn 8.534369835056475 7.654992050523766 4.407974529795913
Sn 2.477242579038215 4.183740114650548 6.677104201968558
Sn 9.27491822564351 9.086245321400117 8.37021254176116
Sn 10.719885676089609 11.065029922875386 2.6177042161140744
Sn 10.407236877677446 8.031431638876372 1.980722155546439
Sn 6.724766435375187 2.6632658867531616 9.843364772480655
Sn 2.9893129067094883 7.170845384846003 7.041831246347971
Sn 4.4324456600637365 4.4665157696159925 9.3480208127649
Sn 5.4701938910040475 6.108258760525648 2.8821183465274425
Sn 12.020193634008153 7.862770485645093 9.07721970448002
Sn 5.111412168586674 5.138370754240863 5.70725533516837
