38
Energy = -133.85636839 eV
Sn 4.083781979760335 4.067536976378191 10.031185388942003
Sn 2.665142904654266 6.860076712829237 9.871748063303334
Sn 0.8716029286788651 4.4079271668642175 10.410309785833537
Sn 5.431032950266146 6.893140755786111 0.35484784329601404
Sn 5.031134464471775 0.19058782049498305 0.6971985809181134
Sn 2.1491760905474835 1.5470811394195934 0.8353655351399607
Sn 2.9579446527968205 5.043228458245013 2.1140383459953123
Sn 0.47484521640314653 6.941828137195771 1.5353282025990276
Sn 6.270483973860381 4.05943172309498 1.9625947046394951
Sn 3.1316924915338133 8.715000857376172 1.7302740969080326
Sn 2.6134844438678706 9.183420227807748 2.0917249525474735
Sn 10.448540981759177 3.1474950578201653 2.4524954486984365
Sn 8.479160599126526 5.728855111597724 3.3818913683147036
Sn 7.236848644560288 0.9325236939481956 2.775911545832098
Sn 8.023029964271773 8.567176960335722 4.596669030435929
Sn 4.0513286129982795 1.2044273017258755 3.399938507927501
Sn 5.521789115332175 8.827067827674007 3.0007514482149533
Sn 5.597520648415595 7.009197246355079 3.3925617448240444
Sn 2.1291946377193933 3.433043720561928 4.721073610068224
Sn 6.9172915384505265 5.353436716819857 7.2416733299808485
Sn 10.405880233824101 5.391833487931883 4.5404051530725456
Sn 0.7241260330795999 0.5143918029059221 3.7947841933062887
Sn 3.2579891998160413 9.447023501435151 5.219286465878322
Sn 2.1164370044538288 7.361849579011584 4.320292828409947
Sn 7.811525162122204 8.272746008492922 7.803897757018401
Sn 8.83851611677899 3.5730215000150967 5.565465159677066
Sn 4.473402572862646 1.913149859273718 7.220678679895107
Sn 5.262881070139532 8.827067827674007 6.210852186692416
Sn 9.666336029686468 6.470255515667421 6.189165971465297
Sn 4.308751702111379 5.599247410190166 5.672126613971593
Sn 6.043496919545668 3.034192406814695 4.85901422912199
Sn 0.20994144223205546 3.9571065972969044 7.202536581747594
Sn 6.208607179182085 10.457757528688731 5.595631334454636
Sn 5.169104229682198 7.27190428623345 9.136082483456928
Sn 1.5181271191374373 1.2442169068687536 6.713476255471238
Sn 2.7147647776118786 7.919630974303327 7.399692278413077
Sn 2.821427778744187 4.959888491393717 8.194366796698567
Sn 5.334299095243695 3.8908551004828387 9.359294948198976
