34
Energy = -116.39628567 eV
Sn 10.43839068213536 10.72859844929043 11.595560125343589
Sn 9.690968424675493 8.904176561995772 9.354327165980928
Sn 12.111122003072637 8.920635997188755 6.81204201928855
Sn 8.711030239173596 3.5057073019957548 12.040643039710172
Sn 9.360896224678012 5.92220664360215 13.77458363393284
Sn 5.387134734129526 5.0963754629219515 10.443231193764525
Sn 13.354427480200796 8.921166911113216 9.79905604012649
Sn 9.89368476943979 10.8798441427514 6.59556963347656
Sn 16.353249598309958 8.475994118368828 9.176029774830667
Sn 15.147473610576151 10.043413199399092 7.052535064468827
Sn 4.404140187201627 8.384452747887469 6.944663779557537
Sn 11.810262733448733 13.293803608728654 10.72124145951082
Sn 7.429581411159149 7.396191378115877 6.314600013890975
Sn 11.601271344100594 6.517727083964451 8.37036712076018
Sn 7.284770666227331 3.001117056737889 9.520871488096306
Sn 6.878841596449378 9.625224403316661 8.260134335114218
Sn 6.340704062549152 12.254538888985723 9.373828233664499
Sn 13.394728206063743 10.490155466444449 4.586669336579953
Sn 5.359902267454953 5.385697574556572 7.272068246179108
Sn 8.258085191174226 5.663901705607065 8.61252577789397
Sn 14.757326111255932 12.839116100429477 6.245045998157552
Sn 11.854603589468718 13.016031173523885 5.815847496606647
Sn 1.7906863220028266 13.009337417799657 7.600919925310799
Sn 4.499132624126971 8.759818187772936 10.125505278062501
Sn 10.173790627415208 3.1981889598589115 14.336775356522804
Sn 3.3565360285681707 11.259307076620953 9.058503151600068
Sn 9.476660374910495 12.441838083338125 9.185305584513646
Sn 3.093477573869674 6.383045977593062 9.001232889967522
Sn 7.754091529332442 6.532578564885329 11.40802177420376
Sn 4.415192400527654 13.99268642606872 8.094386676875436
Sn 7.200166102174802 9.440493028705987 11.343613433288821
Sn 12.792928929461747 11.717370571556298 8.408299437054271
Sn 14.474799711296289 6.8153921400123485 7.739953168268289
Sn 7.829439937066138 12.32449309440539 11.937805960785496
