39
Energy = -137.30710145 eV
Sn 7.655158573560667 2.439219997362597 2.2832321645758133
Sn 7.065920829830756 4.279902308780214 0.02920130567011689
Sn 9.898136663051439 0.947088696035991 3.334520648752624
Sn 8.444734152139922 1.651576781672997 5.780519280137575
Sn 4.158399740545766 3.769326043317474 0.7440565692259408
Sn 5.031409184731395 2.8501146592838236 3.4515564508873204
Sn 10.140486052562292 3.8424414255301635 4.107069716743071
Sn 8.651794592527033 5.914830499952777 2.242553218714445
Sn 10.616153436590416 3.331245100969001 7.12287687632932
Sn 6.915847134667342 8.856772908083926 1.9549467045936018
Sn 8.891914412352282 5.63998824286763 8.011952546686208
Sn 7.986824775961116 2.4425784960978763 8.75200685396711
Sn 5.449829856995982 2.5438670290546366 6.393662679657789
Sn 2.6272621243925407 6.279934900754456 2.1639179494107954
Sn 2.3558649883698153 4.366324838353882 4.621331880276564
Sn 9.173677992777598 8.526358422065545 4.047443536521316
Sn 10.345662085857896 3.9066019480369754 10.269476011949346
Sn 7.196961283569749 4.750173648125303 4.953291635246088
Sn 5.613754675766904 5.769415586610877 2.385573966919517
Sn 6.442189097508533 7.758208701502013 5.060568758832371
Sn 3.1350394088457274 5.929388737661824 7.121067549908944
Sn 8.006351014183329 11.329303824135604 3.5935490097566873
Sn 2.140150568370717 2.9964678334205304 7.316904964833615
Sn 7.923127256947095 9.959459600641305 6.586385341271473
Sn 5.960666606710988 4.860692130621427 8.220883084521603
Sn 10.963536210978614 5.131544298992402 6.555494549765396
Sn 4.381594189044113 4.612685106322356 10.778581707754675
Sn 9.367210560637597 6.783979298872412 10.723525677101211
Sn 1.2719072691172333 7.4371807016856994 4.975500642677213
Sn 7.447068804255931 4.471193140238991 11.125406301223553
Sn 4.064959830509242 8.758710290824109 3.5415486598133143
Sn 5.207717424441482 11.330735236003083 2.375202434039077
Sn 3.3483405912442925 9.073178253258043 6.763138232632075
Sn 5.4340189625268955 11.050415659341638 5.377924053538603
Sn 0.5670991571108401 7.831034617111171 8.039282173496277
Sn 1.092525205917622 4.989187583679888 9.386899588537055
Sn 5.913628943154871 7.90060902658242 8.02964597089061
Sn 3.1474275991305807 7.419832180597267 9.852806340588131
Sn 6.167253864806819 7.273354310230986 11.009002183183254
