31
Energy = -108.74071848 eV
Sn 7.182886408897102 5.007355417298578 10.345393897275983
Sn 11.684622514506351 5.982160461701465 6.399299448805977
Sn 10.077598588620132 12.881279639556242 6.536357399869361
Sn 9.735703290891623 9.816826076955659 3.2121080204204
Sn 12.518699667495161 11.96033251017543 8.388805123930638
Sn 3.757259001155683 9.60545960248464 9.18513448186138
Sn 5.232189578674505 7.36624495708112 7.345772634820167
Sn 5.470948219623893 10.345350965173198 6.534177162859696
Sn 10.096680418375925 6.251004374337958 9.714925450294105
Sn 9.780164446973599 7.221241198784348 4.4914924043989295
Sn 9.48817206739044 11.449091144776961 9.29263367667421
Sn 8.083812797349221 8.13668444445479 11.688993354715874
Sn 6.182331985659572 6.3440476546458395 13.290630885541479
Sn 8.1703619985844 6.090338803117681 6.919932199566636
Sn 8.829264225352482 13.396075707811265 11.462322819237723
Sn 7.090392373566633 3.5613080058030153 12.872227748942201
Sn 9.514306299399266 4.294869590351936 4.748635583995351
Sn 8.425422280241056 10.462365222642442 5.794977997158607
Sn 12.897737710420195 8.728000052872353 7.430129680275829
Sn 9.239380683187578 5.564474016560431 12.742524656788488
Sn 4.976484264317754 7.188611288485056 10.489212964369981
Sn 9.66556198370723 10.693978830377093 12.488066045598382
Sn 5.569801834515445 10.15309211703275 11.573172367732148
Sn 11.701632757070882 9.560406309932983 10.327792539427536
Sn 10.036352327320287 3.8157051568292575 7.65272849320127
Sn 7.064064753717212 9.145371598592323 8.947402137900374
Sn 11.670026061191837 10.548085426547436 5.403381967434591
Sn 5.987537766513524 11.945554809067373 9.177000479633618
Sn 10.697249344569817 14.425151750819323 9.25831310759153
Sn 11.881996881973917 12.557159968143639 11.395128994651373
Sn 9.900596972358333 8.523310767773273 7.594502824474687
