30
Energy = -105.07187117 eV
Sn 5.496085571701348 8.593154467037467 0.35249615644032567
Sn 8.09801979318136 8.04057437461367 1.6746984192148189
Sn 9.12101208424682 10.326088516339635 3.3687489370455617
Sn 6.089342310166671 10.287194786019853 2.6988745377519274
Sn 5.199594329104456 7.185579602254971 2.9024930924377235
Sn 3.8914354373049935 4.583484893465911 3.587538870068877
Sn 7.809163558641703 6.8743522239395105 4.549591460725921
Sn 1.9662894691459598 5.3538005170651 5.757071001796856
Sn 10.356456003265638 8.129045912888015 5.1834261547045966
Sn 7.951873093929417 9.97181719805421 6.101476985421138
Sn 5.317620658941208 8.78125115618907 5.416643274837317
Sn 6.569995564748217 3.941293979829022 4.836173155862253
Sn 8.80557961092321 2.48182756853438 6.273653092185357
Sn 5.980544557524144 1.337489156946366 6.5756238244373355
Sn 4.189391123899457 3.929098603066692 6.936828185692975
Sn 3.6334548523863237 7.294248250535084 7.348790783230413
Sn 6.225784701066512 10.557974164773944 10.721313364057801
Sn 10.301900175679881 8.769148614229522 8.114356439137062
Sn 6.365038831913706 6.032039542573862 7.116699663430045
Sn 7.640390321230054 1.7724493853006869 9.13184245323088
Sn 4.549800945412859 1.9716440628959837 9.238362543141527
Sn 8.250752737916706 11.499083001776324 8.76155463209048
Sn 11.000489701032874 11.193072004864558 9.664721835245269
Sn 8.679911157047053 4.62203534488238 8.342412302102394
Sn 4.536608513533984 7.985372874023736 10.295471819289704
Sn 6.115496460498401 4.363153571875933 9.921130706788935
Sn 7.315402752174437 8.228389460497441 8.992322276621378
Sn 9.757891487321533 6.707714921168367 10.331098845872113
Sn 6.971566548169322 6.635800661127524 11.63507312540679
Sn 9.00908811981737 9.747801655156106 11.365492533657001
