31
Energy = -108.26314182 eV
Sn 10.48812758948638 6.668372493626952 13.083080407048268
Sn 12.121209864473617 5.448342314620712 10.916037308402327
Sn 2.2741914283797877 7.319449897651 5.269929207959172
Sn 6.486904995010878 6.668622990356308 7.876022243199086
Sn 11.540666531444659 7.358125777670429 8.607362615868675
Sn 4.073818966544483 8.512726245519529 7.420052518648714
Sn 3.9208686462789775 5.798068928180651 3.0756010443194346
Sn 9.536851857316885 4.053160417141639 12.087409609850564
Sn 5.915207528540551 12.247360999870788 10.181220783700804
Sn 10.677350746422473 3.3063685332331354 9.411449895881299
Sn 4.095927261795117 5.091277465574418 6.353225966234617
Sn 6.457250618855763 3.1188093590577513 6.94346995784066
Sn 9.001067778049142 6.182442319615061 10.157768517452
Sn 9.910900746985135 9.009080222010773 11.131661671202778
Sn 4.105218388188324 9.854037657542207 10.22547601229572
Sn 9.019976925680236 4.661865109741376 7.262170571479528
Sn 7.096528655092395 9.473220971860078 9.391691954660427
Sn 4.441421886047441 9.039963242603047 4.012394866852889
Sn 6.5881311471176796 9.592670070819336 6.044649708163686
Sn 8.340375252631931 3.6486149964691066 4.370463056070385
Sn 7.477076452202135 12.19426147092505 7.517790629891248
Sn 6.193932404614899 7.561656432343956 2.0745658841103833
Sn 4.2906566738939045 11.561751316316021 7.623850916810201
Sn 12.251801645655645 10.091986596279948 9.688869843940779
Sn 8.993194603074514 11.885850882903068 10.572581050207141
Sn 9.069990338575792 7.364189183531203 6.045787428332899
Sn 6.426869160706338 6.131631961580604 4.756988882294392
Sn 5.366832701272481 3.1116061881263217 4.120243106386861
Sn 10.803994148920296 12.460045651099067 8.243373377529757
Sn 9.781820280221154 9.782794339564463 7.8346154434756174
Sn 8.907762005390644 6.425482696325575 3.1423362194391147
