32
Energy = -111.24088514 eV
Sn 9.92488412832069 15.524696947326134 7.74361586990243
Sn 5.410889890046891 1.778629749509362 9.564647037991566
Sn 9.207807892692305 7.068620116578284 6.735791923502856
Sn 7.136792493663129 8.089645907860252 8.564348322387008
Sn 10.244997998226244 8.931189266625818 4.618658998570924
Sn 13.417475363018665 6.223571413045939 11.48093901829129
Sn 5.997044334623185 10.556175072495199 6.440675891874635
Sn 5.866717132092718 3.128875229816977 6.558463057194387
Sn 7.374241398183986 9.98788507001615 3.7697153177056375
Sn 5.389969315224773 12.91279965219192 8.15810133235552
Sn 13.013106349733077 9.15010346085692 12.104428370540933
Sn 10.487900031058196 13.437168763370925 5.6241603605565516
Sn 9.139360096714926 10.758357527919465 6.653881021899908
Sn 10.980067952946 9.596359864565416 14.1788773130046
Sn 7.6829301397403205 11.165686061403843 9.360413556491055
Sn 8.14128317989429 2.6605757231128533 8.560093802844106
Sn 3.500638074552857 3.6852386593744737 8.408840809183934
Sn 12.851875043109848 5.690273206797377 8.557034373595295
Sn 6.44685654839952 6.00285080826574 6.128856379856555
Sn 9.678325743630984 9.560354635568213 11.469854916267074
Sn 4.50317008144149 8.074029698794225 7.132663680703137
Sn 11.458403352398957 7.960229642713675 9.748697140532753
Sn 10.922258004345268 6.943618910591313 12.957698673426156
Sn 8.532613678734098 6.66731909236786 10.965259922942774
Sn 5.155531410930135 7.887738037776901 4.0620411446526035
Sn 8.006768608314928 14.198778507996742 9.708788753946084
Sn 3.774484077915005 6.442300343275968 9.510079979545447
Sn 7.755686152700192 13.712510666808399 6.630554793303192
Sn 9.95509511233464 5.117168388470924 8.81011921507291
Sn 10.529588715140866 12.645613689387885 8.678632731702663
Sn 8.050260367664276 6.9268372249622345 3.741951472114829
Sn 6.205699642555167 4.704857696190171 9.446764654432158
