33
Energy = -115.20963882 eV
Sn 2.340569744823981 2.090341545731549 2.9308353726232768
Sn 6.77224696245928 0.8069849086728245 8.940872202135202
Sn 2.1709891355985707 6.968071851927662 7.60664799063308
Sn 9.726453771913565 4.389966334831289 7.590771060583443
Sn 7.749289402320953 9.124331948511568 4.912574810447259
Sn 4.479355736106605 7.739283653168891 5.6962930599433
Sn 8.015560114646206 5.761063918453547 5.03549995716261
Sn 0.5437805860471778 4.579288449305694 7.497460119607278
Sn 5.579748576071507 10.852175458496852 3.405754493506745
Sn 5.59771258878921 10.359599560927576 6.9224457455644695
Sn 6.6262148210504455 2.4643164223984417 6.519333703266309
Sn 6.409474837386252 6.394486109739095 10.330726878581736
Sn 4.246647736729025 8.485599142034731 9.18121244499841
Sn 6.3162072931153155 4.814790663993865 2.270045498565854
Sn 5.976036770888561 7.778972658246022 2.8459323621553136
Sn 3.111307633253475 10.607405004520256 5.196658952330495
Sn 10.224891399199286 7.1977716188449925 6.799093487395752
Sn 3.159140291804853 6.311014658982255 3.045432400397181
Sn 9.469848164764928 1.385662752958395 7.838046416084553
Sn 9.312720797349813 2.6288884300928874 5.034371679799227
Sn 1.3735729545035995 8.28167365093841 4.844763402515124
Sn 7.299565287401588 7.891569602985559 7.8531579838468435
Sn 4.639041118203839 3.3908300121160035 4.250799876344397
Sn 1.7414661776150246 4.374214513058211 4.814235119317727
Sn 9.379856084002984 4.385207697421151 2.6062692257783655
Sn 3.187742379508105 9.331224166446475 2.365724224932841
Sn 11.703605860015399 4.469693461235054 5.34080698963467
Sn 10.658035127572102 6.888946980677007 3.8212449736835654
Sn 3.582104308045114 4.108121817145062 1.1597408624669767
Sn 5.717106418148702 5.273171002404333 7.406507104985529
Sn 3.6001475474489717 5.431041799545516 9.89710138344775
Sn 3.2986998351318357 3.391216966626225 7.605327445735227
Sn 7.541176680543381 3.609449264691919 9.505773105028041
