36
Energy = -126.46107616 eV
Sn 9.562389794129064 14.070164282238682 8.673233302831095
Sn 11.417804040755794 13.783418034176941 6.376060019117806
Sn 10.45431757130214 12.4627191036221 10.993423443525067
Sn 11.53002372948091 11.522894599345943 8.285263244176862
Sn 12.767176360273641 8.820004194444522 8.131568205578876
Sn 7.855859913546837 12.171147717458872 12.534524016345934
Sn 9.931164044110611 9.60435343781266 4.1071195737993405
Sn 9.000918997278237 6.754676362650047 9.31237775752755
Sn 11.6210900390775 7.582295796650536 5.63005478010755
Sn 7.112105839324589 12.81436724269543 9.725693217646526
Sn 9.257549047810771 11.863096267870116 5.964204802810752
Sn 9.692553292499532 9.169108457228697 7.3693359990116365
Sn 8.412450206977436 5.278844335214254 3.9820493892791267
Sn 4.377221550024728 8.578792189019742 4.6462353759691855
Sn 6.451869778285487 12.054322256422047 6.92341835941766
Sn 7.629714122244538 9.30769812783754 13.368660154856897
Sn 7.391995880182708 8.08974915701479 4.357841211610142
Sn 10.314391333577547 5.080660951630041 6.8236721055382485
Sn 5.2501684406308335 9.127454215454323 9.86576131630024
Sn 8.288568074348085 9.99955055871493 10.163457957065129
Sn 6.221239117977446 9.09875068730118 7.046791281869233
Sn 7.364649231460798 6.098915931302406 6.847022591117842
Sn 11.648590683500455 7.534115265844198 10.53532859418904
Sn 10.42030137465192 9.650150121407265 12.271912361571852
Sn 5.410075089816507 6.067032784836887 3.036627514250137
Sn 3.4282481528609883 7.672039983787757 7.549924425942851
Sn 8.583561424184296 2.8170277406831294 5.8486404573983295
Sn 10.966062179727416 4.475637953487509 9.863091301679596
Sn 3.2533002585385833 5.626131201283213 5.149871448469106
Sn 4.208498803632837 6.181855577105718 10.349399168897463
Sn 4.881649604168705 4.7869748587303595 7.601915774853662
Sn 8.29353922475471 4.3815178018383465 11.429310967488297
Sn 5.807947803076411 3.581283523919507 4.838096234985967
Sn 8.306438681551167 2.9483069173359793 8.808177550582863
Sn 5.634349679860564 3.3997168371063755 10.162687229178795
Sn 6.911207226313337 7.095534616638286 11.43324851307868
