36
Energy = -125.95383599 eV
Sn 12.959223900903588 3.8819316602008214 7.915936354656009
Sn 12.26172448412515 3.6596325418893825 10.773056806785391
Sn 10.142874813354627 2.5234089262419994 8.851700146746708
Sn 11.62580527876295 6.350812844536648 6.412812497907149
Sn 10.361441990342044 3.691910122170156 5.965770891833172
Sn 11.675138069153821 6.406223542686403 9.491870489825997
Sn 7.480973528045597 3.0407184456290066 7.509550014478524
Sn 9.39245484252383 4.709753893738693 10.917749689480289
Sn 8.311721517747776 4.96543299050074 3.114253571170621
Sn 9.892989956029993 8.971452202166304 6.423230311520212
Sn 8.060705897065423 2.2936333021912705 4.53832261853829
Sn 5.537464762156648 5.766939032028106 2.235178537574993
Sn 9.013758269490065 5.64638597659477 7.997500059859513
Sn 7.918888580571505 7.198546625824852 5.083683544415638
Sn 6.940195733377501 8.657245377433343 2.6296057321297712
Sn 8.856728126933062 8.051262158587072 11.395671531140621
Sn 5.13523895869253 8.008084115441878 0.42273023908472274
Sn 5.383040617949962 3.672622676272184 4.365380896976813
Sn 6.617127873881141 6.479309883875658 10.12231478262846
Sn 8.39710917370107 10.664025982175232 4.347731726187717
Sn 4.987199445802245 8.908556391302398 7.954368793953314
Sn 7.924014768480128 8.834157342815917 8.596922658382056
Sn 5.65713698976507 5.835164602484834 6.444714187087397
Sn 5.86778975435233 8.429334574404532 12.438310625786901
Sn 5.36355907694453 9.76986344917789 5.087164307603082
Sn 7.567705431082085 10.829676068704797 11.22285373248911
Sn 4.370979388857724 10.545808672444938 10.810995098898182
Sn 7.604443003978808 11.939927506068763 8.300492332628345
Sn 3.6978057873770065 8.344912894882587 3.043022892638324
Sn 3.5467670179256974 7.694039437973504 10.511008672662696
Sn 6.402441803825933 12.526378342463447 5.677765178428514
Sn 4.731234842866891 4.523570773864894 8.917948544505649
Sn 3.1925766544527474 5.833826643912285 4.643680719626733
Sn 2.8772424298926764 6.6717605354785 7.600643786193951
Sn 5.690992474894794 13.18280104013237 10.46650352001748
Sn 4.4423282580620285 11.949353349562045 7.935743057093991
