34
Energy = -119.73366311 eV
Sn 9.026882635097543 9.804678465140162 13.60624532807041
Sn 11.294569394984773 11.3971090323272 12.02557853377211
Sn 11.433354136753955 8.351714737124574 12.652478625935094
Sn 5.507143864155558 10.980737598467218 9.498416998922407
Sn 5.428479755068903 8.669694584613854 11.62871706256786
Sn 8.530088977312717 7.67031090653459 11.422144240003378
Sn 3.463627529939143 6.505280554983692 10.742093771238018
Sn 10.533813814533 11.669950552590208 8.990528474343911
Sn 3.853826615146608 9.653884741402507 6.868724713349325
Sn 8.368323347695776 10.860343389086578 10.925423281035865
Sn 12.319785107225176 9.410948983186415 9.847230008951838
Sn 7.663682647577508 10.825258765345106 7.342322725487177
Sn 2.8859573148261033 9.4258573652191 9.823979444019225
Sn 5.787998442543392 8.04911109357631 8.480321847254388
Sn 9.352395129018564 8.797102122986056 8.737452477041694
Sn 11.14909293372254 6.61141981486632 10.143395705957982
Sn 9.012278412775206 5.343981537961229 7.751804855371712
Sn 11.39498311258357 7.401013911273702 6.822037884794566
Sn 2.6295343915528844 7.004292860258447 7.641899147830399
Sn 7.0217130348637475 6.393157190309722 5.571484579442379
Sn 6.382965213012434 5.544327114599952 9.967562522643886
Sn 3.812796263467267 4.318792978137462 8.562435607843538
Sn 9.46786601383767 7.943529181276723 4.506432972756151
Sn 4.96219831084011 7.325057035695638 3.259241562969074
Sn 8.849501224483179 2.8041437767256086 5.6688513546780195
Sn 11.18007729726567 4.58123523167705 5.735418596646973
Sn 6.189934233270306 3.7641958120708683 6.877560725629579
Sn 6.618168962290252 9.263529845908565 4.947875142629661
Sn 6.08952975852969 4.312562313023366 3.364427667208807
Sn 3.6888652770346324 4.940082441062941 5.506375617771419
Sn 7.470460031905274 9.000600349751544 2.0847746828132423
Sn 6.876319732864738 6.253925851032791 1.107698449211936
Sn 9.851156063666927 7.1125458629108875 1.6183527604399648
Sn 8.986032043561844 5.038280747703663 3.535228401984811
