35
Energy = -122.76863255 eV
Sn 9.023187569734022 1.9387804845961778 5.2720365627318495
Sn 7.34363308283032 0.28249938612302394 7.312449685793177
Sn 7.462068872346252 3.8388608762119407 3.2998351092624594
Sn 4.736816433904379 2.3689548766385187 3.013707647843926
Sn 9.987273500945559 2.276256512361824 8.162622004925948
Sn 7.842050630893629 1.4692535882081965 10.190515514993713
Sn 2.8817216493039965 3.004394541132076 5.681155590734011
Sn 5.992834248416154 2.620381067530815 5.7932324119350795
Sn 8.26700577352773 8.501019836806924 4.611573789545843
Sn 5.0559155351792455 5.558332485667907 2.430515026257116
Sn 6.643634219164666 10.513040713718977 2.9096770449905938
Sn 9.309181139930732 4.814579625708572 6.422406334037419
Sn 7.411096183453131 11.296935606273076 5.658276965775495
Sn 6.493925337342905 5.970783876880581 5.2750785878496504
Sn 2.3458446219445594 4.168387759163043 2.9499818697544686
Sn 4.666257466155649 4.970462054059243 7.517830856416246
Sn 10.145238223710638 9.97378710281907 6.668594238063435
Sn 11.181095189269492 5.455516064842694 8.863090775093692
Sn 10.15468233900475 3.387386224762294 11.066108508276455
Sn 7.778739003562465 4.374834942452256 9.113065264244138
Sn 5.283955897025062 2.142416596032187 8.76090939912375
Sn 3.317040994810017 6.117744151653994 5.008190995382486
Sn 5.573539391729179 8.939414050137799 6.11631926929033
Sn 3.890469481392709 8.932553311993729 3.411233222379294
Sn 9.391846757168668 6.2839507645491555 11.12285673513658
Sn 8.89940900798212 7.587245182312884 8.275084744862077
Sn 8.830686701048599 12.547311949065417 7.968445141417856
Sn 7.359241257408781 8.528482801960651 11.186429519070126
Sn 5.99946141313796 7.593352176325829 8.738888666794209
Sn 6.252255721553728 10.880811842350017 8.598999308943743
Sn 4.1565598315590675 12.126442934998554 3.7607942403055654
Sn 1.3420660887780862 8.417775908015726 5.365998705601531
Sn 1.5510406419643195 10.701735957368344 3.4733469334487026
Sn 9.287803649268639 10.302595124177547 9.755224148538387
Sn 3.1283164074514347 10.69954543274665 6.207520564482767
