39
Energy = -136.49933269 eV
Sn 2.026141793224947 11.020777211777633 6.130889507411803
Sn 7.416946404322207 10.350004220576455 4.718841365963886
Sn 5.806357480044723 9.843500948719473 2.1759580173513844
Sn 5.019038084859767 10.72601917678124 7.060081807739435
Sn 3.9002127248630196 9.316202058683835 4.403197329434305
Sn 10.315248512869937 8.471385713740904 5.374056614378548
Sn 2.568169302120518 9.559108948521262 8.751198538227644
Sn 7.9781386143078485 9.231952314822777 7.557720697441713
Sn 8.603145223628925 8.321087410360844 2.7013446176342657
Sn 1.4640715347578892 8.102798656502996 5.925201574169191
Sn 7.336649366018867 7.2040174579956 5.424907729077428
Sn 5.395013000652297 8.669681262041872 9.320882498135358
Sn 5.666021488324369 6.8428373862177345 2.947271448473259
Sn 4.345963442633206 7.066031963706676 6.787204827303466
Sn 12.345666702101788 5.76945051274236 5.653001686362113
Sn 10.22501713147893 6.312106128820598 7.781239021182594
Sn 12.345666702101784 6.104777926451769 4.3831773858392244
Sn 8.237625957782821 6.937318451527417 9.946233702894753
Sn 11.128033445279673 6.626152953958613 3.038013420892014
Sn 9.977119556171626 4.157228001833671 10.079416520442111
Sn 2.4908221581399728 6.8730280907786225 2.8723407573582183
Sn 7.103016030235651 4.97272963017532 7.667000143047188
Sn 3.1995385624365005 6.6484093077902315 9.822534415462172
Sn 12.053537175995114 3.713506659330629 7.998961623470101
Sn 1.281252069326527 5.4127057305071515 7.4158304885166055
Sn 9.334918163986028 5.005300451043561 4.9462610255189325
Sn 5.842778489182042 4.956944397528251 10.406933644171795
Sn 6.421251027101021 3.886597034870102 2.1243178149865916
Sn 5.27644617612103 4.277378347672197 5.08619123660644
Sn 7.545646497322544 2.413772813036115 9.762583193080497
Sn 3.382852736385097 4.106503389836186 1.82782401996116
Sn 9.253058618185 2.7865240652701417 7.228316275383259
Sn 3.9286075832677496 3.9227783093790642 8.182928346020336
Sn 2.2361319480048736 4.141046731309153 4.736302033818531
Sn 5.872902264819115 1.7713547267866494 7.079475135115309
Sn 6.70394030232053 1.5738348468183994 4.148196620771196
Sn 4.511582311187142 1.1988242044547173 2.0856269086343393
Sn 3.6496844667654664 1.307190090289892 5.064236024792824
Sn 1.6167296289106472 1.8332746707187983 2.8282833552516284
