35
Energy = -122.65428774 eV
Sn 11.954752761415735 7.976805847340895 9.664453459629623
Sn 10.171382823031854 14.01831500196144 7.726217303387064
Sn 14.541022516909988 7.271616282120392 11.733303385446082
Sn 14.862470532494905 10.04950187028472 12.851433632426748
Sn 16.637121584375304 9.486165848029124 10.493418736934652
Sn 5.658913850829532 13.543551392596505 11.0555128807108
Sn 4.1392610734471935 7.18617298364842 10.028869050380628
Sn 8.349056670511658 9.12075021064164 5.8167825429645585
Sn 7.104459592446654 4.4723545170296175 7.250245066122041
Sn 9.730201483308587 11.95812492480095 5.378466825597903
Sn 12.409756225256665 11.988672128648622 7.451673986331141
Sn 2.505222282531785 9.568444935585884 9.237990921649788
Sn 7.909913926666665 9.895874994204386 8.934897743542711
Sn 3.7282089443456945 7.917995942247331 6.926830098334382
Sn 6.5400923194195775 11.37451454101733 6.444209916028537
Sn 11.915413666100747 9.307048832255552 12.35422885213587
Sn 4.100263412234933 4.983084384004757 7.959578346787353
Sn 8.625115743531797 5.422069192698899 12.008209059952181
Sn 8.024867892189748 13.09171104094678 9.458610971839915
Sn 11.881238677759535 4.826668334340522 9.213912875085592
Sn 11.738710211309218 6.015516192057137 12.004046716191219
Sn 3.6386920243682908 11.300252770355405 6.931888272796083
Sn 9.115821824066488 6.481557024454661 9.089815841161615
Sn 9.042999240626253 3.444631558264244 9.475874221295786
Sn 6.469988813814942 7.354362084230791 7.713325031645475
Sn 5.174316410040115 10.967023144515858 9.654806436604048
Sn 10.589512564242506 11.123587448082567 9.857385929018601
Sn 10.940575833398906 9.408073076233917 7.122563226643505
Sn 7.517822377079456 14.116507901199077 6.182005738722135
Sn 6.986044863040457 7.833488192689743 11.028938826101127
Sn 12.742169272123993 6.800390155682767 6.961333035760031
Sn 13.856773096788768 10.56842282899338 9.974684913977972
Sn 14.927856797551614 7.8134237641551145 8.762198607481082
Sn 5.0946910039706115 13.840844760748082 8.155053578711515
Sn 6.243293450745697 4.614995369046733 10.27400918946224
