36
Energy = -125.36170226 eV
Sn 11.860600803199185 6.667199845809643 8.913396189115613
Sn 11.576240385957787 2.871720920733581 6.935439050536153
Sn 10.519130715825229 8.699339297140737 11.033363555898385
Sn 10.246325388602896 5.71823508110252 11.355255721049442
Sn 12.329603211446127 9.656988018430866 8.747790048364967
Sn 9.012220597468446 4.372758921150003 6.637853289409082
Sn 5.4265104153938095 5.972011220017018 12.242046871936163
Sn 8.12179725903656 7.446799149278382 13.011108702763682
Sn 8.425266666485735 10.441769978564276 12.43311367382118
Sn 12.101167177153261 5.5344553830184005 5.956875173376913
Sn 12.403025166563234 8.514399445106964 5.8519371623421055
Sn 10.897825053838867 3.387601628897326 4.010783108559824
Sn 5.7120392030096125 8.819398516920309 11.4083240581437
Sn 9.554582343387027 11.094995913971061 9.472580757989775
Sn 5.551633982258477 4.927317965523609 7.820773657765154
Sn 7.587917673522155 6.083483092428988 10.134055525907913
Sn 6.522007757616676 11.477912730657438 10.11372667705768
Sn 3.88045629788156 6.608269467025836 9.73213360484009
Sn 7.702464902120367 8.803384824799156 8.87741386987097
Sn 9.590242007318212 7.406809670374933 6.968063114532146
Sn 5.84897148874776 7.465522051724198 6.427561926012353
Sn 9.53117477109966 6.026523253580447 3.9687729194022783
Sn 7.75160485755159 3.3793030182585473 3.9835510127697833
Sn 3.244869026613347 9.824502640312645 9.884778915515556
Sn 4.179533184446326 12.053778440769781 8.153007838093957
Sn 1.392087358248152 7.860130117514671 8.616227689463742
Sn 4.967112989909854 4.230010259516263 4.790850795869742
Sn 6.174642906359617 8.243055822406212 3.6262664730823775
Sn 6.286015426769745 10.452704792900448 6.851263767009486
Sn 2.9429029156204223 6.327934563226361 6.357736147352608
Sn 9.820881455232502 8.926065347240995 4.379458895148181
Sn 6.764284648447107 5.674451941155676 2.3263878900023514
Sn 4.050005761190025 4.439494279261888 1.9782590812932404
Sn 3.1805323758750244 9.445443588712195 6.666618646988901
Sn 7.5233028517403815 10.787928979206676 4.120370752716274
Sn 3.5521267612945224 6.910672380709245 3.5088266060566453
