31
Energy = -108.17510512 eV
Sn 10.160344911408345 11.962306031986719 3.5109569023507503
Sn 10.224540457711871 9.739166434573942 1.1647138066513416
Sn 9.046219371937115 2.239230098091618 9.36410648520335
Sn 8.567225217731613 4.895769858820312 7.831973526483915
Sn 11.243115117150877 4.156906694202607 9.476982516380337
Sn 8.548949690854103 4.991561646430721 4.622295589104949
Sn 9.902522321185252 6.99421385708679 2.686087313824948
Sn 12.722610867677016 10.880469514452196 2.119888489804879
Sn 6.0807636944778 6.377508194158863 5.940940227100518
Sn 8.4990943035275 9.620685053392096 3.683433617738105
Sn 5.8941926805865235 4.20826167592813 9.003298817770949
Sn 6.795284285858095 7.1812921853630245 3.0216414429791203
Sn 10.041789461564647 7.004701298267599 9.487493941356856
Sn 9.086844198987567 4.621178405512545 11.512578715940995
Sn 11.5441280989399 9.223850847070823 4.143929173999799
Sn 3.5280138839418203 4.817344667338915 7.181638934470133
Sn 10.473956759523704 7.021283712285669 6.045828097211319
Sn 6.778405627362525 2.604498922785689 11.315354991273423
Sn 7.972885281160475 8.423289504342648 6.945271210268482
Sn 5.886105026655594 5.510019436781742 11.975800437426726
Sn 3.220415737047899 5.353861008476443 10.491887806665718
Sn 6.0224051257387865 7.350492231984898 9.348877657623865
Sn 5.634446808421927 9.447034136385984 5.1501190819535445
Sn 3.210198284708835 7.528194758567624 5.722535046785014
Sn 6.376025032957023 11.103753540236195 7.861317333781989
Sn 3.9782474597818136 9.298690223443327 8.205968911229236
Sn 8.531440566547747 9.765312575841431 9.60927909034644
Sn 3.200554519010225 8.351475611693362 11.017964766306799
Sn 7.818422144828823 7.8409082064238484 11.867852279030393
Sn 1.7895682430231987 7.135369426641112 8.454315164451172
Sn 5.714905382243271 10.139576380536695 10.974144924564879
