35
Energy = -121.9297716 eV
Sn 6.330624395245156 7.167998229391922 5.528885834902107
Sn 1.2863315434022429 6.189666791359188 6.555599579024962
Sn 3.1709722452087865 1.4216109367088225 8.243866746369767
Sn 5.1670884179356324 13.075346686194921 6.397835052398754
Sn 6.2051089425120844 10.280854659072617 9.131925745969236
Sn 3.445138303935021 4.649192218437816 7.960726242801272
Sn 6.6832490938084534 1.7998297279476871 4.488835128278276
Sn 3.867332939294366 8.7248302444507 4.629284894059733
Sn 3.3219632944016526 7.404754959102845 1.6479613689780421
Sn 6.647771989906746 10.336660038906075 4.06411649974299
Sn 7.278287841361209 1.513854041895634 7.624406131575518
Sn 6.1284735548553035 7.454574900521072 2.4056778297829244
Sn 9.905093361514677 4.934597134641547 7.193225414981712
Sn 8.904748097200317 8.618581069292897 5.242726293015772
Sn 0.2736757384015346 4.2000475730321 4.522592216643719
Sn 4.374084588353998 8.231263626450309 7.773448508172075
Sn 4.281618026962756 4.54406759575834 1.1717487273843676
Sn 10.759657680877812 7.3880752451445675 3.3319994986377646
Sn 10.144144316008754 2.0931091971295235 8.15928751592556
Sn 7.067782742938671 4.527485617648068 7.761091311096203
Sn 6.761266484281262 4.500848053410809 2.8607599909873405
Sn 6.436663559157841 13.075346686194923 8.072340358914436
Sn 9.327454256304817 5.008108213561151 4.229732941428097
Sn 2.2567841525402352 2.7715457230583604 2.691321722863721
Sn 2.951162479324721 5.540543100230213 3.9505777798595463
Sn 9.66005248003676 2.280053872475856 5.259424100646038
Sn 8.598849270994116 9.152212209459421 2.0784443759568614
Sn 0.8243977648655691 3.0746450332480135 7.238031448644756
Sn 4.904027593052779 11.244260273883826 6.402549452830354
Sn 8.27081564694555 11.028336151430306 6.930677986694384
Sn 3.3991665180318034 2.0043715744781716 5.286971190635939
Sn 5.396723551986711 2.919141917872637 9.7150305160636
Sn 7.678638172624806 7.84135448697378 8.27736788531998
Sn 5.443773243136378 6.0665035655903985 9.894959141433116
Sn 5.183236778985008 4.354593173901045 5.430552495821755
