33
Energy = -116.03612163 eV
Sn 9.386011686683537 12.552495094751105 6.543316856603377
Sn 11.66828736242858 10.336028839303848 5.432885321270632
Sn 10.743218523657314 11.53857239951313 11.651430806136647
Sn 12.831646484523725 8.747799852571015 7.725628665305467
Sn 8.54753808257345 10.900446893081194 13.660007413486841
Sn 12.39786932455691 8.631175316589948 10.872092572711109
Sn 9.407464848528063 11.421315507226979 3.6574872700529792
Sn 10.094671111144024 8.22199412469314 3.931634485948771
Sn 7.834419762884808 12.182689658198496 10.739634611091525
Sn 12.424182435531227 5.629613734569616 7.399437893728138
Sn 7.995729191905739 9.629348400363059 6.265711451272311
Sn 9.292484631916992 7.955908388348768 10.400423188506881
Sn 10.325345962415458 10.358504278198204 8.80814081996628
Sn 10.496025964804383 8.693732971708078 13.19346272141115
Sn 6.663090411047875 11.974954214296107 4.981472663289743
Sn 10.101587201099965 7.566941812982891 7.0174272395203845
Sn 6.264049132923357 6.943434428062596 5.001507824843923
Sn 11.384401432678386 5.720915312792097 10.289373363118692
Sn 6.4705268712152355 12.570048957722236 7.957398034170096
Sn 7.209010439093276 9.221803285711582 3.2151259116039377
Sn 4.036482370039339 10.650085959382054 7.786491462209864
Sn 6.835633142014185 9.691862649208007 9.149880298351908
Sn 6.026484700991495 10.092660498913261 12.080605793192008
Sn 7.710325657673625 7.642906645895208 12.918817618619983
Sn 8.517492348337967 5.077857588283852 11.139890499033774
Sn 10.328898105506642 5.290182264611606 5.023884249575687
Sn 9.763406195931786 4.09009739928547 8.036555416841379
Sn 7.207513037681462 6.737019168942471 7.999177323745686
Sn 4.075637662424549 8.868678193403625 10.159954758585833
Sn 4.335378969338104 7.764702528851189 7.042494825259909
Sn 6.723114634207453 3.8714959312080954 8.895969095227947
Sn 7.485932669959427 4.323553832987926 5.813175022899013
Sn 4.415775105105578 5.930481643272084 9.340155478090605
