34
Energy = -118.8215943 eV
Sn 9.599196929332145 4.285865576059009 4.011052315447463
Sn 7.160101697785615 4.845094014498382 1.6464815225651133
Sn 6.469924669350731 3.432322666859111 7.115533069900099
Sn 6.82971774937127 3.0635455590279257 4.14758298703056
Sn 12.022144788524875 3.144400689573273 9.387972034357917
Sn 4.272877296501124 4.346957069104233 8.797450399882006
Sn 9.769149722068361 7.429389508174844 4.761160195904856
Sn 9.098276305837036 3.2568602581442883 8.618575417230808
Sn 6.732837265826418 3.8207405093723605 10.49417375938432
Sn 9.699089551344217 6.490625482811582 1.953238041430992
Sn 4.747221741207291 6.86286105502735 7.037354916264886
Sn 10.897122177712605 5.46310286107988 10.809509220190996
Sn 7.441964225408087 5.913449545123485 5.729668562682498
Sn 5.038497107025231 5.526905751101593 3.8987356230523673
Sn 10.911726397317485 5.083958218001843 6.924585252822633
Sn 8.47776642077425 6.26257168290358 8.87072387253939
Sn 7.013182678443891 7.688464713532202 3.0872484347730453
Sn 9.572860337708203 8.214768335842784 11.056615261127977
Sn 12.584316899806279 8.084624906224795 10.803732202559216
Sn 8.578419557060284 9.993227851801668 7.999315106746929
Sn 10.978422527514697 8.029432412310712 8.196345867352811
Sn 13.288414766888842 5.858076563071366 8.76250868420915
Sn 2.9639049040436056 9.923957593200896 9.913522242298011
Sn 3.6541502092873537 9.895412429008118 6.967136676495187
Sn 5.843172647247336 6.627272637516506 10.250018819127268
Sn 5.845840367111653 9.42420726168658 9.136235131719005
Sn 6.595878019835156 9.19017376988975 5.866137395304062
Sn 3.6464972084817093 12.70456613647736 8.656359212743306
Sn 5.0819527891431004 11.502819566149967 11.411145731536662
Sn 6.029370763777465 12.155811956978642 6.616455312885458
Sn 6.2506301652667435 13.65193952327696 9.618843820254757
Sn 8.220444327686405 11.388532386475244 10.827263733940665
Sn 8.783479775333442 12.942012416102166 7.890188038400179
Sn 8.950974587180548 14.24186746683726 10.549043549786283
