30
Energy = -104.73571073 eV
Sn 9.545794423148998 5.296749766900484 2.531155500116892
Sn 6.912197753600596 3.749482129501486 2.5215031358762756
Sn 6.061100500447602 9.384716370084956 2.7457818370495786
Sn 4.942993888874308 4.80301230361469 4.8999822125720005
Sn 9.49329871800581 2.466412284242665 3.7135346105816978
Sn 7.005929702955411 6.6909586357894835 3.383740215773229
Sn 4.062394789035275 8.51898967712029 4.905704347463405
Sn 8.575622085304142 10.014579962981342 4.502054750715454
Sn 9.500253291722416 7.1885536267994015 5.149033830190145
Sn 5.814261566306572 11.220753302695934 5.197708022482868
Sn 8.206189380402824 11.496922079145302 7.152570643505513
Sn 7.22983339808593 2.8447675731932196 5.625807551237112
Sn 4.282356928267392 2.540272204532865 7.033521941855497
Sn 3.106053621269646 11.046015566254958 6.462678651606537
Sn 7.20837279622749 5.792360679265637 6.593808433018443
Sn 6.765511693490414 0.9658061164237822 7.8977695355867485
Sn 10.005929908992872 9.751296703439033 8.759401288107371
Sn 10.265124497421278 4.411760719449655 5.841409496821154
Sn 9.632142096611048 6.851607651561842 8.37506936114514
Sn 4.009148100944271 5.498326120230743 7.97640634224366
Sn 2.941664220937788 9.632100554486707 9.100351622776202
Sn 5.3792025770962155 8.621906001132363 7.536646758636248
Sn 6.905203884126751 5.974735720920742 9.637723302353697
Sn 11.091366508429125 4.258306445288858 8.698443416652406
Sn 5.44778843711022 3.2278381511260696 9.79386239067583
Sn 5.323293671816427 11.893747539540133 8.557938009612554
Sn 7.299430082963648 9.460988333750493 9.649802543717621
Sn 8.346866834747482 3.3370001467633674 8.644894142156932
Sn 4.200049451942783 7.27140964965558 10.444734237449305
Sn 5.0143354995053055 10.362334293897849 11.240672177809655
