37
Energy = -130.89500913 eV
Sn 6.868053893912922 4.511357190036237 3.523302414583788
Sn 5.8371678951427715 6.0459663271901185 8.471360390203102
Sn 7.558156770780369 8.585172728590843 8.319520924637077
Sn 5.321399593803412 2.277045131966354 11.614868745024832
Sn 5.599114236450134 10.404535307060625 3.3174531273309493
Sn 2.7144975092305192 6.884876947294032 3.8976539256838167
Sn 6.533754809734614 3.4952674079625963 6.94325032881192
Sn 4.073199501121599 3.3993361710610808 9.061986647565055
Sn 9.190691047263265 4.382714756230921 6.0012070373186415
Sn 7.444987962228233 3.721468671458505 10.005540449158586
Sn 0.4791449107289017 4.78127985386747 4.008370204785831
Sn 4.922742055033667 7.766549350857853 1.9990478514517336
Sn 7.741980900585236 6.219386622287539 1.0567062941081835
Sn 5.684830293370097 0.8253822547279988 5.467920119173055
Sn 5.738936367670483 3.936383002218584 0.49850429324094264
Sn 8.815134153982342 3.2772311680299153 0.9387417160774894
Sn 9.212193560576688 2.280216454399162 3.7413388873337565
Sn 2.6951780797484863 0.8521115604914961 6.427552837704991
Sn 7.17831421896395 10.558380785277146 5.8408511639020215
Sn 2.5429863420476315 9.857932652981374 3.2472762787533394
Sn 1.93596906847293 9.155892276203083 6.166676658375034
Sn 0.9479502305838258 2.614408141959497 1.8178543046193574
Sn 4.8182881995269975 9.161146125514463 7.123178543329546
Sn 3.832905119849989 11.567938648936499 5.602415670379498
Sn 1.482330194893896 3.731540510492402 6.86619706916093
Sn 5.082881335416215 5.228963591306193 11.31209352447913
Sn 9.874053669548415 5.401696750115785 3.062072911233686
Sn 8.220945921647319 8.708792295427362 3.093405314085675
Sn 3.3308642942576685 6.338847221345558 6.76138317205546
Sn 3.166262940858385 0.9473287433658348 3.2946712453133356
Sn 0.37992886949060856 1.7068024175428558 4.672239026663154
Sn 3.397043369285293 4.137998611466213 2.4113123422823555
Sn 5.877286505854069 7.371759956019557 4.892383948363044
Sn 8.746618690506796 7.4209051594684095 5.774311202377298
Sn 6.45582485948915 1.6336656283211541 2.4243375495772264
Sn 6.069910205892943 1.1213882099455583 8.88899042628036
Sn 3.984225102284653 3.444084048814022 5.209776134809397
