33
Energy = -114.80962179 eV
Sn 9.142281789605931 3.093247986075277 8.260954891310547
Sn 10.422955179403191 3.153455608891488 5.588058016845378
Sn 10.658614687767818 6.041716237079191 4.108723526110741
Sn 8.399850490246706 5.101833196840055 10.599656607189486
Sn 3.70112408605602 6.978591691801867 5.607157392589141
Sn 8.422122180240349 14.623502467666528 5.980622499150493
Sn 4.193186964726142 5.906252582664964 8.588925027578385
Sn 5.967371538434391 8.060926642310136 4.030122858001158
Sn 7.352715116239012 10.293802201308448 7.877734431899284
Sn 12.01374357802003 4.280424450843489 8.069587569083913
Sn 8.63992644731514 10.404358933822602 11.620641811847088
Sn 6.2695891869896325 13.46815752322601 4.132334874615732
Sn 7.171910782393143 10.648512805340415 3.034783642654665
Sn 4.411007023352052 9.092872086612552 7.796234927514416
Sn 10.900393312533732 3.272293116897851 10.754584939928849
Sn 11.269436568190914 9.259219243704283 11.082591058579474
Sn 10.018160076282278 6.15666063127459 7.124020191809087
Sn 9.071771226682117 8.002336627312816 9.344432170879061
Sn 7.952277561233345 4.832459623979407 4.92118729189692
Sn 5.201000327814637 11.022313901654178 5.537610167461787
Sn 6.782364548829043 7.0924121150877815 7.05437934511113
Sn 8.90893488136128 8.533010172280003 4.8765687515228935
Sn 8.157077582235743 6.623448912808202 2.491981145189677
Sn 5.712956908925888 10.583186193452411 10.382539633213282
Sn 4.154174366409321 7.893374190215164 10.94134571155497
Sn 5.466263460048377 4.888072719160686 11.291217299948169
Sn 11.032740360825352 6.294654462555015 11.345911202749187
Sn 7.007129328794675 7.802333650668306 11.521161848310983
Sn 9.418660166081008 7.950846730003047 13.36602438368903
Sn 5.103793795175611 4.298341723267028 5.897531859779749
Sn 6.146673891279769 3.514531439457478 8.627161056903482
Sn 8.547404429492126 11.792163148246194 5.492722601901412
Sn 6.170079453960993 13.248259967956411 7.358193644177317
