38
Energy = -134.19397128 eV
Sn 10.769403144173586 4.6895961813127105 4.429064000831735
Sn 5.797644255137014 1.3678781736037304 7.544832545306902
Sn 8.225092968588656 1.9931320916877429 5.618076471665382
Sn 11.566538192397092 7.779870057289744 4.453529513986003
Sn 8.482214991010485 1.6708911251063958 9.124596819078567
Sn 8.312006919710711 3.7257335572392467 2.8609742424104656
Sn 10.24204652217604 3.517415045291503 7.327802831442893
Sn 9.461791466241836 6.938876439745927 2.422707307918241
Sn 10.016584543776556 6.671168682953579 6.8455037921054505
Sn 4.873630566904567 1.4721126812042389 3.9341406907810987
Sn 4.218091710190599 3.2022430274443496 1.3837131692963824
Sn 3.265692011284045 2.928442269949943 8.584975476838354
Sn 6.104591674083735 3.2633166081463028 10.146782620116975
Sn 6.553288527459691 5.841816364884029 1.4685865639606297
Sn 7.078831492949442 4.172543840665693 7.32796356386033
Sn 8.956876301811485 9.271661196045475 4.7507906135568625
Sn 7.707457962258036 5.9130256444326434 4.828016193233897
Sn 8.879456315994393 4.699749424163989 9.827613117986706
Sn 2.0464833627265318 1.4161994344497624 2.706339638414222
Sn 4.837605565012193 4.414155312668329 4.186795217670892
Sn 8.357494338679235 9.131496232166365 7.787115129508588
Sn 6.6189079756071525 8.387192618940066 3.11781837822479
Sn 11.566538192397093 3.039547034494898 4.098784675276317
Sn 3.83166715879018 5.653051471919919 10.128838926524676
Sn 2.5114932390046945 2.581900678041162 5.612381720474394
Sn 1.2523081414325534 4.185420899583613 1.5820541753287674
Sn 5.79713314667839 8.114465957603146 6.233536963022735
Sn 6.508849336313137 6.730626928432535 9.054411469250594
Sn 6.388467232953986 11.291395163631915 6.353157411866681
Sn 3.890955889972614 5.488134690082301 6.889726078766982
Sn 3.4290369450071045 6.212792256814702 2.2203311216930177
Sn 5.7058041057243045 10.058150928517833 9.326879013254258
Sn 3.2975461700620343 8.322494485855357 8.788856561353434
Sn 1.6430637437870521 5.374448716992221 4.544135311190398
Sn 4.30278237077291 10.184218804530556 4.453878963761212
Sn 2.496083022747916 8.120166568513646 5.8635473527879585
Sn 5.18495450586318 12.867730827520571 8.614048043587028
Sn 3.285408220047729 11.075353937794608 7.3473345463139035
