38
Energy = -133.88057289 eV
Sn 0.3715181782549844 4.230806048071723 1.4203022507856626
Sn 5.6892135936479615 3.425102220136529 0.6570430663775849
Sn 3.231617597066142 5.27445230022371 0.6670927086666896
Sn 2.6251626770153274 2.071803169661567 0.9171542435513231
Sn 6.588431659602358 6.7212492227550245 1.1906901380323118
Sn 8.76015185736216 4.49013597328746 1.9463011896273368
Sn 5.016718123749026 0.8308673078933239 2.337368336046892
Sn 8.813921984081164 7.498906243491814 3.378653001561809
Sn 1.5379770866026687 6.265966861363718 3.334723714647718
Sn 3.849499547331161 8.064993285312973 2.089727840046592
Sn 10.066274864708609 4.198294736710642 4.057625582668156
Sn 8.000548834696225 1.53425834150474 2.0488480980969888
Sn 6.6048561823826955 9.5698970646785 2.648103186570162
Sn 7.420037789229753 3.469928064619588 4.5329594982266315
Sn 10.066274864708609 4.866958547322968 4.820196694942699
Sn 1.485108291569858 2.364022599344287 3.8236320702062363
Sn 4.094229929930797 3.8126549790897433 3.3293623713955425
Sn 7.1043334429093 8.986604411151673 5.603832457916409
Sn 4.116334325482206 9.015684921864118 4.9841335382478
Sn 5.744708546647818 6.536159110099429 4.133164555806975
Sn 9.641028204840218 2.3536744869193704 6.540276509626365
Sn 0.010188763281140682 6.831766903353923 5.926357619422309
Sn 7.98814162118431 0.4932682425669009 4.877882258605017
Sn 3.0520696442535487 5.674586569667133 6.102496577567429
Sn 0.28303677163064944 3.858432471268588 6.80928632637854
Sn 5.155752164064363 1.5496224161720484 5.267495004715099
Sn 9.569302812171113 7.340248173068526 6.612011665497557
Sn 6.323250860649897 5.280974623993241 7.244096425576956
Sn 5.2421339641101 9.539958563156695 8.032519762908771
Sn 2.2918058787258015 8.488226205195971 7.459270584406858
Sn 9.278704091749598 4.794955348066154 8.397761093362519
Sn 6.9883570628026686 2.580343541041644 8.402915182713079
Sn 3.0794749578327734 2.7562187180759197 7.044059374708079
Sn 1.261328107932656 5.912944858030432 8.76480051163566
Sn 4.289953935152901 3.8223764684869326 9.674455333994551
Sn 7.586571311027594 7.576214026391155 9.032461250900518
Sn 4.421202033109444 6.791393530878555 9.11048761579923
Sn 7.105466397278533 4.860704262573743 10.515107176250277
