33
Energy = -115.17918332 eV
Sn 3.8321618145173546 0.9650427182094078 6.30375063243914
Sn 5.100333106422953 7.941875023944705 4.447814303383885
Sn 5.699047438955412 1.753013759439235 2.398970388025197
Sn 8.752453895475693 7.591401075266052 5.6163120835436775
Sn 6.7949219702542605 8.64997722181743 1.9226498616866528
Sn 2.2493886391413516 2.108780946378869 8.683137249884483
Sn 5.157176936954552 6.35745354417733 10.677175978706753
Sn 9.200432729476523 4.676302072937067 7.490604025883377
Sn 6.21394662758222 1.7594547990300822 7.940031753795803
Sn 2.2147939245844177 6.636001052681033 3.830626168943595
Sn 4.583864162027942 3.7269875887801827 9.526358868434038
Sn 4.976427321493567 6.114627272340735 7.630680393429063
Sn 0.5656702637997655 4.620034370426999 8.365742827257518
Sn 7.326702299182411 10.103765205139704 4.584126355313102
Sn 10.97670529229629 6.988443197932628 7.523597306719923
Sn 2.9732863385921324 4.107468515645956 6.5185499357350745
Sn 3.5095525560986887 5.236992695628887 1.509564835018318
Sn 3.2676438714840796 2.9531156671156418 3.727583923924271
Sn 6.107174273636063 4.6662713464029855 2.6296864346696602
Sn 3.9002651176118723 8.627715445825773 8.638696742415764
Sn 3.747503186455576 8.405073871882415 1.570613046916206
Sn 6.884442344059067 5.300939429061694 5.55215163022919
Sn 10.746558958553722 3.9361018574501996 2.6390927312514836
Sn 6.528191766369537 2.374725250335791 5.070164948513922
Sn 2.441743286074281 9.703880040794482 4.228055678754308
Sn 9.22214859053169 1.7253197771143776 7.748904776750916
Sn 1.8475485387312673 7.017917786377918 6.966697638225003
Sn 4.822462518012769 10.970616547777123 2.8410013858511634
Sn 8.762522117904616 6.154342889986978 2.944243774085288
Sn 11.256904768018023 5.49827903028507 5.068290554507202
Sn 4.723839312573103 10.591074176307066 6.050704904173634
Sn 2.2756404282118043 6.360831024956417 10.120415415142048
Sn 9.641517278928115 2.7344117071801803 5.010381653769097
