31
Energy = -108.27018536 eV
Sn 11.865510312881169 11.50801841924623 8.71378258827358
Sn 9.989936423581057 12.052155700580784 3.6913482331356695
Sn 6.217822872212829 5.847872700745873 12.124012010107835
Sn 11.503852359278254 10.214253852701345 11.709748093016502
Sn 5.692230546144569 8.74440765598711 10.888039856052602
Sn 11.480122596414008 14.65241091004714 4.3063919236410095
Sn 13.95115918663793 8.643817678882954 12.342739316119491
Sn 12.760218359203321 12.073638487108315 5.300815750119351
Sn 7.8518065216709845 11.808326009751099 5.940927642062313
Sn 4.114403568263902 7.725899082499696 13.080048042925538
Sn 8.718619535375591 7.836584011601145 7.085993251526403
Sn 4.778077546176015 6.224825149665384 7.191328292388777
Sn 13.670001347311176 6.549845702275588 14.459054303342104
Sn 10.58384522399121 10.1814972590156 6.218397583679968
Sn 6.495261475566066 7.29467191079718 5.020548352098756
Sn 10.79399197761562 5.4045021962227 10.295993426596883
Sn 9.828740753426429 8.271365788199782 9.965008470806598
Sn 3.7012284426045867 8.62639903569317 5.877669890413877
Sn 10.47132917502188 13.501520896761635 6.9032203421154925
Sn 5.992452103425148 9.163209480463761 7.680537188849486
Sn 6.92737761737547 6.45583923127914 9.243871546135459
Sn 8.224583708464483 10.224568166232045 11.783989577687828
Sn 5.833535421875859 10.068094081047896 4.347758606775811
Sn 8.532351879196183 14.605046586399448 4.906227540545387
Sn 13.596841429937545 5.6441407572886035 11.429668304661794
Sn 8.883846345889173 11.067856401128536 8.721742631428311
Sn 12.782452961403218 7.955301008507243 9.574921612829309
Sn 11.30773676150229 8.374184158636712 14.184759041459202
Sn 6.839477150704589 8.49378810986759 13.972507053233983
Sn 9.04847153017453 7.001413887101226 12.63295935311164
Sn 11.22926056923112 5.149559101050811 13.375069662264572
