36
Energy = -125.940205 eV
Sn 11.566923092165768 7.336063359192566 11.55488078501717
Sn 10.472377126019394 9.922721114115888 10.326726763790573
Sn 10.287573200307525 7.3930296211543185 5.885142928641107
Sn 9.306877065077618 9.94342198428441 7.462456056131303
Sn 10.406720886481141 8.417442139018188 3.0176775315905933
Sn 10.205493598796822 6.812404365734934 9.008224901242679
Sn 8.596926367320204 8.0132304606883 11.994749651108783
Sn 8.242509892965446 10.166388744393517 4.39024340003764
Sn 8.033351467948895 12.605280578212076 6.506419158336799
Sn 10.515396705438844 4.158894789562338 6.1873428045657155
Sn 8.38938422852139 11.048757946213799 12.335902511707067
Sn 9.671011252223376 4.956564850031665 11.744813981147272
Sn 9.93370967100279 5.4101097112843615 3.439658918314524
Sn 8.709904702538683 1.9104400632514122 5.2614265111841565
Sn 7.561206993781018 7.423805606176399 2.752841184325112
Sn 8.052289532200735 12.497039882812018 9.660285908626156
Sn 7.246501023319287 6.986843525673891 9.464224509198113
Sn 10.21187439123212 3.535352354554178 9.168089681329704
Sn 7.124265804617134 4.097436946756579 10.347136294634321
Sn 7.292394412791994 7.492854460706825 6.428999433237647
Sn 7.60814527945027 4.256512880582085 7.2393854175024215
Sn 8.02436031102667 1.5596844157788727 9.00800078176437
Sn 5.720376666642984 10.808483280492188 11.06215022124566
Sn 6.4184187057276185 10.209498427290121 8.107885667166853
Sn 5.410773131033955 8.880512181211158 4.659262945117294
Sn 7.285529389409416 4.170030993214643 2.7250301252682836
Sn 6.027983178297423 1.3873845846263535 6.7831670077308654
Sn 5.122984239032133 13.265131531609379 9.131644740602148
Sn 5.119971269712518 12.072918961044655 5.921623277015617
Sn 6.2739510474783176 1.5276003660497524 3.6346104416424616
Sn 4.912982757639221 6.096551241590841 3.451129040016233
Sn 5.205950667971554 3.8715061743287853 5.31424944361048
Sn 4.480357393628797 8.353116197154842 9.821622383363477
Sn 2.6541964618501632 12.580635056439887 7.560232688870375
Sn 3.526353849936784 9.60065262455175 7.1971913242924055
Sn 2.871508987323861 11.164623790223294 10.21650672335169
