32
Energy = -110.94731794 eV
Sn 12.328159711874648 11.385165267041362 8.760853009134658
Sn 10.299889676869014 5.434157014140007 7.856594626801605
Sn 6.570412260498831 4.274813557749168 11.154851716601392
Sn 2.7113134482697636 5.983710879253023 7.396431494981255
Sn 6.0658654190747745 3.286278049267178 5.193473170353222
Sn 6.5360081412321085 8.402145395789256 5.239664539987107
Sn 8.813797707115684 6.154796680068163 10.37275529628048
Sn 6.747890728391745 3.3538204628056563 8.326917913001948
Sn 9.05755997027077 3.1379217429255735 6.442750085716934
Sn 11.732865394446595 12.164754170683555 5.943325085608965
Sn 3.5837809435582884 4.893488950067825 10.054646663045732
Sn 4.484958641471524 2.0118581067921593 9.903165673031713
Sn 10.573692665442039 13.434318989626025 10.943201145166595
Sn 12.29905300056049 10.98149591602312 11.784667401109253
Sn 11.873691011236447 9.014316085171265 6.2428780299038245
Sn 7.250803165592542 10.446110949168991 7.899998484430498
Sn 3.6380920496303553 7.611409324332888 4.786393439063692
Sn 3.644716235982742 2.962223541783555 7.264540732337951
Sn 11.882065971861081 14.464012993996311 8.299660227933623
Sn 6.181798167986264 6.426161547752691 9.085641374363735
Sn 5.679602224188781 5.756282082924202 3.4770878367078364
Sn 13.62526649492078 13.40179459229229 10.573146541841213
Sn 9.442121732921981 10.600007974319018 10.141584809914939
Sn 4.549089106054752 8.4570671627244 7.713141115298314
Sn 10.156513493072554 8.364878289118653 11.963276721185746
Sn 7.542173512120731 5.785208512875884 6.335194792717146
Sn 9.286019748419431 8.3009333368308 7.667971179468551
Sn 11.813554514106272 8.466031821613866 9.373846337289159
Sn 9.310577527751356 12.78755512522573 7.805816061046316
Sn 9.245494035455394 10.44362080132448 5.417186006772093
Sn 3.0986706951783787 4.500258709445548 4.490991711914169
Sn 0.9040008299561221 6.385750177720265 5.1783128138455705
