31
Energy = -108.54135818 eV
Sn 9.241389929086408 11.850953158640179 4.360990801738445
Sn 12.914685402540313 11.854188994990457 9.068323575078525
Sn 8.883951191887977 7.490780922603694 13.951209561160956
Sn 6.63590897676554 5.565370666527088 10.307520466486851
Sn 11.859139309869372 8.59594994750462 13.984545640632609
Sn 4.684595555491466 8.779557950360916 8.52568969599068
Sn 12.188810293038577 6.9035137722787105 7.333068637664626
Sn 4.9756623458434746 12.68579820143173 5.680457565344645
Sn 13.244943528894796 9.772451910734665 6.884934389191022
Sn 7.469102174649277 11.989293725388347 7.108789452780068
Sn 11.240055982805117 6.349549176363768 11.975123845474174
Sn 8.92660158972402 3.762582323207229 10.66949499799391
Sn 6.982194054085763 10.4086073898158 9.651706217014137
Sn 4.334099469705923 11.751725490602345 8.547993411585463
Sn 12.186716644251238 9.987239417317566 11.323051663907856
Sn 5.282567319047489 7.633811488881587 5.554889479033311
Sn 10.60432094249131 9.240242734204815 8.886204809689877
Sn 12.16498968488512 11.41312812175745 4.5755222448088855
Sn 10.35893302445359 8.960469383059209 5.620213219673186
Sn 7.313721652240633 5.7352904798598 7.139591155042547
Sn 4.507633700917657 5.803186902651814 8.36411052251361
Sn 3.51196338865523 10.084300244470944 6.028480099923283
Sn 10.634722166033683 11.929158294792652 7.157281462504687
Sn 9.782883235976756 6.105111413384803 9.021076892625379
Sn 9.470686689173585 4.606165832359937 13.473747473261534
Sn 9.65241636853171 9.838274665881373 15.488838291631698
Sn 6.594170803839203 10.287249110388878 4.5799595992998805
Sn 8.285895881684127 7.9259450818472725 10.983970637876713
Sn 9.454015928616347 10.374603090969321 12.562742850422334
Sn 13.230671033152625 7.499504212503582 10.093532261720508
Sn 7.638346393479234 8.834272414022674 7.14121012841232
