39
Energy = -137.69678319 eV
Sn 1.386047658741406 1.4239819859416556 9.591800700052453
Sn 2.294430693914716 3.723418669256167 0.26480194662890955
Sn 4.4154511384439274 2.081695442251716 9.274276292166414
Sn 3.538767454952319 10.408988082061624 10.557104251016131
Sn 1.116125947999434 0.39624812952556343 1.3800042512736153
Sn 3.7213611971093288 6.7743162589882155 11.009383829995558
Sn 6.7316287471907135 6.171137329459838 0.4333347415667906
Sn 5.2845050413212435 8.588126286813768 2.0551063332762514
Sn 0.6524995460603531 3.014970913160604 2.932636603054166
Sn 0.8365179559253638 6.386132379079065 1.2731368091867585
Sn 6.256199317256434 0.775170637318308 0.40632971880150925
Sn 3.6019002239826774 3.0398043044547594 3.2514219991227566
Sn 9.656635742003191 4.007262022884893 3.1996735656065285
Sn 4.064134535124676 0.24180859549562955 2.448634419526191
Sn 2.3512417848568967 9.177566746968798 1.5962929012566442
Sn 5.290180335722132 3.6191503466132886 0.8008952709588814
Sn 7.324258891874453 6.1142891800108385 3.3814782609214795
Sn 3.6507886462857377 8.844250664115568 4.591760677214699
Sn 1.1778240437593035 0.9332525646563206 5.068279299947779
Sn 8.349969072411026 1.183826047998491 3.230068156853881
Sn 3.401200433489483 6.244275060436198 3.109207507554198
Sn 1.732391537924913 9.349399138325753 3.4295508907177816
Sn 0.8598611323818318 7.846569758365395 4.066864366503475
Sn 9.074118031007572 5.4590502286742595 5.932240405225399
Sn 3.8866154631427476 2.2889049291647003 6.257453071500797
Sn 6.591904778179966 3.3018635093156568 4.299369414376818
Sn 4.020237558929047 10.362989764650052 5.255410221548749
Sn 9.674746546019836 2.4169564125472487 5.847266917295081
Sn 1.5930810340628176 4.3942776429376655 5.949089160599547
Sn 10.121472487035094 5.314692768369155 4.2027389108658415
Sn 5.710121347198912 5.833406735382505 5.83136411310531
Sn 3.10925665659278 6.289610999381764 7.801597105502926
Sn 9.706062762698355 4.1100227704092 7.1451376439002505
Sn 7.042461953723012 0.7411794670513442 5.980529558139526
Sn 3.474202086929977 3.4690251143585846 9.027987942262426
Sn 0.8508787117957738 1.9615274268780194 7.9449283340368355
Sn 7.143062077020123 3.5685975439723627 7.449380007828835
Sn 0.21716727720688525 6.977401062457461 7.08386631615866
Sn 0.7063792454037657 4.790036731964403 9.274276292166414
