30
Energy = -104.64064751 eV
Sn 7.600231360064864 3.222330698591346 5.198139145159889
Sn 6.983449513798739 5.31469656482358 3.1467730657873587
Sn 10.288350190363374 4.540379795802268 4.072882573126563
Sn 8.474765145243614 7.897456394885865 3.738006316951344
Sn 4.059626325600595 5.98490828289307 4.142928648168233
Sn 7.131376302194561 10.469625236540072 4.265378357930091
Sn 6.3997008209692705 6.071214227053342 6.064353325838046
Sn 10.272692839753729 10.08104185131424 5.293512642650565
Sn 10.301494058092516 3.070123709443299 6.641645051626253
Sn 11.47132844737886 7.4861040020296254 4.114323442838881
Sn 4.863184537515469 8.67421942626185 5.206387470146754
Sn 12.464409000298355 8.221020440380661 6.942175992168635
Sn 3.6069249249259308 4.908735909090713 6.93692241456412
Sn 9.995592389243997 6.285884925905248 6.621968001511721
Sn 7.718671272007395 8.660166116009933 6.83236638870615
Sn 6.481089595654559 11.543869446110438 7.093923375071235
Sn 6.311396152099213 3.7454724860532753 7.871176259430812
Sn 10.109169355515217 9.59710003736948 8.39517460927191
Sn 3.6268782261178836 10.250859991797103 7.4888742809651685
Sn 9.05901634595338 4.587204902135182 8.947067951507258
Sn 8.441666253880722 11.78342740813913 9.562109321339499
Sn 4.104245895536344 7.35641680202404 8.560318557549538
Sn 6.05683697988558 9.873184877378 9.603988700336785
Sn 11.40490793240338 7.147462511509461 9.570729041878897
Sn 3.1372586120934804 9.556813646412644 10.599695867152125
Sn 8.51126803037267 9.218220319931232 11.462442643511329
Sn 6.583899302209266 6.855389130859596 10.26545618077397
Sn 5.585514661179431 8.893589680332768 12.502950911601628
Sn 9.299803227394044 6.19404607320353 11.443609254596112
Sn 3.8307230935997563 6.684505897065138 11.590190999185413
