32
Energy = -111.69749468 eV
Sn 10.575164993004964 10.682575593679704 4.626941639696818
Sn 6.279852381255839 1.5264677629899288 8.229375209992003
Sn 12.037897170070206 8.426318884036451 3.46651971122922
Sn 4.049506837702708 7.613377649391336 7.362138757954422
Sn 5.6454071558725 5.051950354132893 7.002799618562128
Sn 8.621831898833877 13.31330259727795 10.44037289439303
Sn 8.603435726458095 12.92110140791973 4.62470119224119
Sn 10.957935808957764 5.898074369225329 5.140845978883745
Sn 6.336732228330588 11.871919509562993 9.369690866097914
Sn 3.3889572739221796 4.327042649873809 9.058280250292455
Sn 10.102584165803387 4.262820876933023 7.90688528934486
Sn 1.261480249352249 2.741037909934805 7.485339115945923
Sn 7.541658941197036 4.010626690860418 9.404768397419636
Sn 3.9060093252350168 1.8122949662877632 6.274205985702097
Sn 5.732277802053891 6.4703538265608955 9.83162766947394
Sn 8.972083262002725 7.961518616181457 3.8887921807981902
Sn 3.437184674024596 1.4283978828787172 9.345124827382564
Sn 12.765538739883485 10.100338772000097 6.434291061230702
Sn 4.978702518455775 10.475770963701063 7.024577127065812
Sn 2.951151094746291 4.6997577796846794 5.6580632943771985
Sn 11.137564736139257 11.849807039123636 9.305024814758157
Sn 11.502804751299045 7.095207806901558 8.104629947532874
Sn 7.051241079583597 8.920891744875764 8.718182902779787
Sn 8.848997690259797 12.64788744743772 7.496251867233458
Sn 1.1672547144041667 5.958762535864343 7.787291269779431
Sn 2.8321685302829596 7.193872915037682 10.093005115147422
Sn 7.617299475909432 10.221008499451237 5.624667484854684
Sn 7.785992676742093 3.219765251582014 6.261810034217915
Sn 13.541353632379929 7.27519815666168 5.9170884102783905
Sn 8.856383794342426 10.254904106138008 10.805909503736675
Sn 8.57005907296374 6.852443295433658 6.816434497470899
Sn 9.980865306990545 9.642720826488633 7.665452677324072
