34
Energy = -118.56737251 eV
Sn 10.072289029473161 3.9901092754549063 5.037798922437091
Sn 8.604160158068801 5.644473731949218 2.1194015949553457
Sn 2.847281985968568 1.6704533877979224 8.839949190382258
Sn 5.418440167165241 6.839148343325215 7.306249625274444
Sn 7.2102845084334115 11.036594090464693 5.094006665564099
Sn 7.511153352477659 2.694435220264258 1.3635803866048704
Sn 4.72320502341597 6.967179429174302 10.266768261018353
Sn 7.666213443048407 6.3367642813311384 5.142412100730133
Sn 0.37878111177535234 1.726615367557036 7.079801957823136
Sn 5.905765443994841 4.168118036909737 3.8593152047614883
Sn 3.8168770993676517 2.704899963746121 2.1435132970446533
Sn 8.132417267539724 1.2523218509644987 7.150605691607892
Sn 3.042417039337271 7.909781668180252 5.907378314740115
Sn 7.2670008948916776 7.875151671236686 0.5900033665047566
Sn 9.236808866695839 3.835265772164701 5.99792735287701
Sn 0.9748048741801838 3.4797352666112107 2.297959635411143
Sn 5.713963743596143 5.256393496630721 0.9274589900914926
Sn 2.8609521308701207 5.134220981553667 4.132301791430592
Sn 5.48088949639522 7.516339924337617 3.2910968125398696
Sn 5.315048275454072 10.019630849362335 7.250114693110059
Sn 7.618719057858757 1.6984966667476054 4.217623519097166
Sn 6.2884891635029225 10.379098334994408 2.194343018533063
Sn 7.632059757123415 6.65837505813731 9.523537841055266
Sn 8.573348020862312 8.666521549946088 3.437138178687018
Sn 10.072289029473161 3.2293140308134576 3.0746703408929954
Sn 3.050096243185173 8.950658073560966 8.77936844991169
Sn 8.041253192633956 8.653096980573617 7.129642451522151
Sn 5.855301223657974 1.1358272661870203 9.063191804235498
Sn 7.079984044296729 3.939806829499217 8.30797144620719
Sn 2.2438374063727324 1.878902188073793 4.732090135963924
Sn 4.177444659266154 10.230887117096778 4.3509235011416845
Sn 2.0132353792591218 4.404472563322269 7.186843203875135
Sn 4.8335096844345475 2.8140848280564046 6.497665426624646
Sn 4.17027403766534 4.226654393851772 9.335145794556052
