32
Energy = -111.79320384 eV
Sn 6.667361792968311 10.874963689381001 6.846862326325224
Sn 5.541431233761361 8.15570972928872 7.769164313367206
Sn 6.341940259324604 13.439848497860154 8.692083600704771
Sn 11.817867767360122 6.016889342729177 9.475748648886665
Sn 11.456500414355174 11.682074143857072 10.1584112899807
Sn 5.853269606381788 9.421903886347936 12.176757772272493
Sn 12.444816424998074 9.010129468282459 8.818996181535416
Sn 12.969596335624264 14.551219617375722 12.838110791726043
Sn 6.697901855016561 12.378403443272468 11.517878028694312
Sn 9.310263042026833 14.472850726623161 9.245481309183427
Sn 8.574738879924242 11.364268375369647 9.184775654459326
Sn 12.897656594392735 8.49386261400808 14.28009931182351
Sn 8.03245305220598 7.5577104351170705 5.7689113244228665
Sn 9.049534892909397 4.8529568689462055 10.197363657510461
Sn 10.924795987573349 12.935500061101836 7.2442120911588335
Sn 8.828698817371803 10.19153052880415 12.023918689430594
Sn 13.847226139921142 9.576621606021499 11.480343118480418
Sn 6.998517414052801 5.55243762756431 7.997186739439836
Sn 11.010929955136564 8.002158702398605 11.673135125425215
Sn 10.09194725934387 13.400272188324777 12.14913380916591
Sn 12.356445192600427 11.49174716724589 13.41271247820425
Sn 13.544447584119498 10.815004128521043 16.111503516615652
Sn 7.280785470678913 7.3688581517853695 10.572529743455831
Sn 14.917716197640393 12.476099004217497 11.430782994536406
Sn 9.937483534949806 5.36611875814899 7.179649840109561
Sn 9.703484239112198 10.132210936296966 6.498377223767024
Sn 9.404498933648519 8.01236678148103 8.665636578978313
Sn 4.950223035740253 10.682475042499423 9.43775695165091
Sn 13.657242702835683 12.28624611019179 8.25367732062036
Sn 14.966397267137218 13.000927095207595 14.576447271982863
Sn 12.552779760344327 14.627249434488915 9.8987535867042
Sn 15.582820473778092 10.011051635400847 13.974366688687082
