30
Energy = -104.46158527 eV
Sn 3.802863673309849 5.7883751841642495 3.0422593179488864
Sn 6.584140158341264 5.620552524885431 1.4347448124969888
Sn 8.568543927874266 9.693153149186973 3.740158011059195
Sn 8.911975631703777 6.702534375085506 3.2003066120696917
Sn 6.993652610567778 4.3337620426223165 4.51964535423011
Sn 5.2013808725554975 3.146576130249318 2.518536818983343
Sn 5.739537915708028 10.804837808746381 3.6910005269916915
Sn 5.782557332917745 8.000490548935971 3.1213440892630095
Sn 8.011477775306956 7.9072030206535775 6.20020585852287
Sn 3.8628460884145657 3.8168738902990302 5.332390933360373
Sn 4.01717518375885 9.42894320795494 5.793396111130734
Sn 8.72211334314988 3.0322443008361133 6.700129874494404
Sn 10.464406394024863 8.388642648737356 7.8754690825192855
Sn 6.374724338831039 10.22607092173923 7.488107347405044
Sn 10.044343693165505 5.673947241703865 5.888037065574682
Sn 9.23678687933616 10.786646042520848 6.457886182210922
Sn 2.8510012044595485 6.9204994319668325 7.257588372180508
Sn 5.807250661029335 2.8162836985938045 7.6292786539676305
Sn 5.397981816047383 6.462284577839202 5.945877136774003
Sn 7.399370089873792 5.362283808315301 8.41848816082233
Sn 12.446234029753839 6.230913158649015 7.462986749825528
Sn 3.2807667107845973 9.676331196115166 8.913688775651716
Sn 6.520190292295761 8.33865040631248 9.815600449795962
Sn 10.481242614248721 4.670838267283486 9.218240959766158
Sn 8.473565003437832 2.5143355115311814 9.694241844114275
Sn 9.196207598584998 7.160840334012927 10.194448727311777
Sn 4.180224342047579 6.543400690847883 9.862908598085921
Sn 5.64521206826613 11.174004548821234 10.361311677819591
Sn 4.240516927667645 8.906926392176954 11.77059954632709
Sn 5.750404702393868 3.8602488190704722 10.439816229152806
