30
Energy = -105.15193865 eV
Sn 6.276025787917646 6.1516324130813995 1.3987845569985657
Sn 6.274579041838002 8.17273951582684 4.035743517695387
Sn 3.840392545022201 6.963911012380569 2.9848613006930904
Sn 8.378241445920612 8.13741619073364 1.88507549411303
Sn 11.032736324605496 7.9238620308550685 4.872379985898963
Sn 8.779177020948795 10.181340394955408 4.459231131377191
Sn 10.90292462373694 9.457074294511903 2.3806494978154418
Sn 8.186512543173004 5.508381407239593 3.795373410258207
Sn 5.353971529230133 4.261602801590531 3.9029968277178515
Sn 2.661333396343844 5.0172079812697 4.969430651472314
Sn 5.2332375263058655 4.782145394380339 6.925625851731745
Sn 10.61820562720544 7.3256661074241665 8.81786423331216
Sn 8.183458909009754 7.4962584893969 6.2214356639220485
Sn 11.474311011883657 9.766527431094296 7.20949496804078
Sn 10.211718595110247 5.4434522836481545 6.439527883211925
Sn 1.1113843561399241 5.1896332589042675 9.712269549032646
Sn 6.441610422007598 9.699000569829911 7.0281491813263575
Sn 2.7943903731397284 3.314420103878495 7.986214907426594
Sn 11.003090270006238 12.152790955572177 8.842904877462427
Sn 2.834645382333926 6.5651246228048965 7.645656920854629
Sn 8.859406703258717 9.860365081716685 8.777533071750945
Sn 5.529425382605132 2.726231683725156 9.324013385648543
Sn 3.342538763192448 3.7762818813444863 11.138252213522097
Sn 3.3757658039454057 6.9732324822902 10.802815688461562
Sn 5.586421295474704 7.332587069604913 8.739649114629863
Sn 7.677464145827903 4.986609698336759 8.753348276427307
Sn 5.934653626146837 5.348439644724556 11.205946586715449
Sn 12.226498919231911 9.531355656268902 10.322078093787646
Sn 9.789141008659083 11.1076829188756 11.364232653798366
Sn 9.378101566384377 8.138390570340105 11.34982445150132
