30
Energy = -104.16366242 eV
Sn 7.695342877080834 7.839097073292413 11.478248645874405
Sn 10.741079599806497 8.343505623900878 13.020285102784438
Sn 7.360712649018672 5.464403049663021 13.212759141565027
Sn 3.0763213298352565 5.699648467197957 8.492947688252865
Sn 7.583602616481561 5.192230691138151 9.915974562412186
Sn 10.495668794136494 8.103974034887276 9.8812943764282
Sn 4.934970871434721 6.8354963113984475 10.809529233439225
Sn 9.96282796055139 5.545623784220267 11.782284511709054
Sn 12.036734280342802 10.330436122417218 11.231944572203531
Sn 8.899356472665657 10.532373281279575 12.027638861967176
Sn 1.3857246439353654 8.0910265470196 7.649842331449767
Sn 5.439067713055772 3.966223942110539 11.486727156722678
Sn 8.690410686488969 12.041663459953421 6.685979917678544
Sn 5.920429737049722 6.396207544414195 7.329651977667594
Sn 9.97962035735442 11.3807305998536 9.36846077994527
Sn 1.1750920961962754 5.392624128915123 6.188056766697197
Sn 3.479817440075025 7.351746154914258 5.5964505862059015
Sn 10.724695487038009 7.263921654012031 6.550671135857947
Sn 8.48979654057329 9.079402845792124 7.739402620164286
Sn 6.359984781148773 9.942237318024825 5.838581121919445
Sn 8.98052387517606 10.59008539704448 4.054628586260389
Sn 11.521055585036539 8.841658854837814 3.8142764955317046
Sn 4.311411589903267 8.766749952741987 8.384130689954466
Sn 4.024532803431533 4.362765781636481 5.921406570375951
Sn 8.622672019033192 5.2257314297972615 6.1315140106803385
Sn 11.3299211629747 10.252608477080171 6.426285849400987
Sn 7.832952692426951 7.6318040066944395 4.587221427391191
Sn 8.931368772039917 8.368326133280343 1.8782798852873894
Sn 11.677052709379549 7.273753914185912 1.3971795600645063
Sn 10.28909806881191 5.862910511661847 3.560064684363183
