35
Energy = -121.61265286 eV
Sn 3.256209817938274 8.98423561057742 8.648171694142547
Sn 13.920023571128445 11.09535370468952 7.050182956018944
Sn 13.686921495656302 5.930500162116043 10.221487338381234
Sn 11.731120599971698 7.269328735757871 12.005933340548545
Sn 6.188134839543066 9.253209142876612 7.798723628083837
Sn 11.314639135121473 4.1991956696071675 11.90263392313754
Sn 11.620222703733434 12.660600073692704 8.51818449035781
Sn 7.887099076757291 6.64169637179562 7.825983644572372
Sn 11.993583975843974 10.367820337587341 12.601857764107882
Sn 5.522190630298372 9.95881570469969 10.725098392660943
Sn 9.575588909418874 12.199270268336088 12.611633818905997
Sn 9.08412521574106 6.139253450597111 10.697521467695228
Sn 3.7395018235005737 9.05407871311326 5.680900528665489
Sn 14.568471583780008 8.4822471548535 8.525583609085134
Sn 6.630163548665089 10.93679243204886 5.4458674147292365
Sn 9.575253198446253 9.13953335511818 8.224528855367513
Sn 12.162951361020985 9.914744856363917 9.563324506340404
Sn 9.533832761218932 14.204477226647699 10.00635795050559
Sn 12.340967710936171 10.734359095310753 4.357131353554052
Sn 5.941015610073131 7.065576853549837 10.280484445000182
Sn 8.40270187677691 12.439621721700904 7.419962291202276
Sn 12.9876918864295 8.30966213105513 5.955786087338855
Sn 10.833809766749376 13.11420731271763 5.768424629663952
Sn 4.546251588929306 10.82210630333286 3.5787821252944405
Sn 10.379278164510099 15.064974348912491 12.648161182952302
Sn 9.664594835909188 10.150639213047665 5.485611244223793
Sn 11.694260170450793 6.90339244058664 8.280118698267836
Sn 10.067034707956566 5.884236771592547 14.208118686065028
Sn 8.234462111789362 11.03225985678585 10.131873913575081
Sn 8.45102500740835 3.7554770577074397 12.503563882324762
Sn 3.2595738236346254 6.118369091017139 9.453731308765628
Sn 7.173949507274049 6.388029967146831 13.171251516201872
Sn 12.342229377039375 13.284731297454373 11.374377222569679
Sn 9.079171126245893 8.681027606417603 12.452302189364886
Sn 4.747984373534028 6.59374774544925 6.9229664882416975
