31
Energy = -107.67015448 eV
Sn 9.188738635493486 5.240461401069525 3.863917404648129
Sn 6.848138013557148 8.461725250961189 0.9365987302579771
Sn 8.520227091202694 10.894052173769124 1.9558031013931718
Sn 11.638448233771237 5.68924756402946 5.533480684484579
Sn 6.546062808902306 6.551455116051445 3.2173183315741936
Sn 10.234737436142725 4.567249001946637 8.018241609877295
Sn 9.366400489200819 8.041793136731691 2.556513598742466
Sn 8.721911216895979 7.222663926272616 6.316015720475935
Sn 7.553606158058614 4.357114838968592 6.4026416698938835
Sn 6.322344096602524 9.69563465947078 3.6063014464061935
Sn 7.858017674632655 3.2257957539098068 9.351603124596602
Sn 12.099238460934703 9.58967489582071 8.862214968597764
Sn 9.373088980529072 5.060913986222033 11.157411694439983
Sn 10.082365903162737 11.781566324683563 8.825122925719853
Sn 9.256378741255979 10.253409275143422 4.840218735157625
Sn 11.40705292111536 8.602991928693074 6.198994140812013
Sn 8.666538615202938 9.69233567944647 10.253420768652237
Sn 4.631089935965191 5.598515290270389 5.808612695342702
Sn 7.314447925708023 6.401065550600498 9.215495186750543
Sn 10.288763872375375 7.319036590062129 9.334708323575335
Sn 5.880063268967886 8.437246163452457 6.240890610721663
Sn 8.583997660316475 12.638076092451525 6.369863567049199
Sn 5.019445837643532 4.319708498546113 8.565401485838699
Sn 3.9656113657898557 5.749971679593468 11.102510934018362
Sn 7.099092573202982 10.647358204711068 7.8857943579980745
Sn 5.327998226664044 8.704923264554958 10.118127968882654
Sn 3.570646856457081 7.102004058340723 8.239285200254198
Sn 6.610462711236355 6.639669058961965 12.307560844402037
Sn 5.945199300792879 8.000985103519685 14.777236159993
Sn 6.663733595611021 9.872614928071496 12.575564523815277
Sn 3.7991511124616957 8.31555802116239 12.725483553528099
