33
Energy = -115.48405861 eV
Sn 10.59494581860384 8.751972595351006 1.5690070012307484
Sn 11.22767190671735 9.81955406927944 4.3202565085652385
Sn 8.329712369588272 10.420777528494204 2.6580148614730774
Sn 10.140790817022747 6.571690825118274 3.621137727178818
Sn 11.148677452412043 8.04241429760047 6.979022962538317
Sn 8.311883080653544 10.106326197892768 5.626904804708482
Sn 7.8866668069388535 7.535213809376597 1.2767412012103754
Sn 10.853509592583569 11.06356959799656 7.081077650908659
Sn 5.514422042631784 8.763326588695728 2.808576235483386
Sn 9.348043216383648 9.467819956371855 9.344268645101995
Sn 3.5999251419799343 6.168097433392824 3.303795538116752
Sn 10.287796113341114 4.330415287100703 9.231880709501324
Sn 8.450792234269473 7.094843727250035 6.080287210801651
Sn 5.593760967413744 8.16980421926089 5.74444487882306
Sn 7.77621373152754 11.719054303315147 8.12142873866406
Sn 6.910348877982634 6.067063745339827 3.6878497722336374
Sn 11.138164252603389 7.132669523709776 9.915900099138305
Sn 5.813122366237702 9.470517826609507 8.43547510598901
Sn 7.795752264919484 4.616515329292549 7.526842640470896
Sn 7.387310162304987 7.018694194245239 9.532295475867768
Sn 5.260432071950151 3.657820918491389 3.853309045861986
Sn 2.6846984403046767 7.325018255766471 6.092961185399244
Sn 5.190349737363596 8.756103666196974 11.34660011007192
Sn 4.775231653664756 5.792527403877777 7.715283930374565
Sn 9.68729360281659 2.8880820207543714 11.70809800120675
Sn 9.333569913686029 5.790163864779486 11.9573025350326
Sn 5.480441531471333 2.8843319234974283 6.807253696843312
Sn 2.8888789169401647 4.275809733801235 5.753355248841521
Sn 7.181645929426204 3.7840956421319927 10.421995448966378
Sn 2.925041908732439 8.593644593895718 8.892804073303067
Sn 6.233140848304639 6.097333399952283 12.296276832269836
Sn 2.311085889596598 8.008549380683524 11.667776469583703
Sn 3.795225851064024 5.780173265617944 10.483093288772116
