33
Energy = -115.81818335 eV
Sn 14.225799175809513 7.899200191225703 7.556254089215784
Sn 12.364412662164717 10.202236016387204 7.293268656995602
Sn 13.227135433674974 5.06635019190626 6.970784229970458
Sn 12.399972387652719 7.491214526840067 5.2174549148944145
Sn 14.234236744132994 6.041454934420337 9.880866212513503
Sn 9.843780034827846 8.826287904859239 6.59732468336291
Sn 12.59782046139393 8.781324469624463 10.097721103128155
Sn 10.244833800612447 5.90237070771354 6.766378027691434
Sn 9.839988525679438 12.24726282658349 8.33503713597345
Sn 11.332638545535556 5.926670199614568 9.51261782915136
Sn 9.431923241313267 4.860584392815129 11.71308192479799
Sn 8.081276168175114 9.68283930369212 8.92232732376437
Sn 7.950351111583978 9.097440432122808 4.35736884422342
Sn 8.511666322297918 12.098281063668065 11.023296817917966
Sn 9.731316836014877 8.19657763015681 10.94545964150167
Sn 7.549929227780327 3.3426316370731115 9.808189545870817
Sn 7.20545850036839 14.381160298094338 9.571818409569108
Sn 7.808094623039557 4.200904693948823 6.688926368319149
Sn 7.108104436363229 12.456515769031288 7.348247202256608
Sn 6.008351036510792 11.329570579977839 4.793117874665217
Sn 6.2603511118973 5.200529148973786 11.757145307815176
Sn 6.502325041161786 9.71009400877227 11.547021873963928
Sn 5.267881606838816 12.220674111093178 10.348630912403483
Sn 7.937067242548648 6.261973090440386 9.12585505623202
Sn 5.9932521909588 8.753328957167454 6.7132393674588675
Sn 8.016468018956227 7.2933021556769395 13.163394644852918
Sn 5.035258169876177 5.683746601549215 7.4630131586294715
Sn 5.324930688873643 7.45051681932982 10.023965025847165
Sn 6.533085172108599 6.41019396410067 4.7007481618251905
Sn 4.285647928310928 11.182338470776106 7.741582321402514
Sn 3.1413841661604347 8.375115913243954 7.987854634152399
Sn 3.5492209392969447 7.086413673937426 5.175446170904039
Sn 3.2231092336387555 10.191001733650602 5.092098259552406
