34
Energy = -118.94789787 eV
Sn 3.9334176392763283 10.878119536680119 6.673189859501078
Sn 9.427028552484643 3.918197811758827 8.646254955691568
Sn 9.178666494763345 5.741849357994089 11.069178729175764
Sn 11.963484090748292 5.383429433468187 12.71334123295009
Sn 13.650664005012459 11.395305610897498 12.063815964531733
Sn 6.229929952273902 8.941237396035046 6.477072393087291
Sn 10.523858802225519 2.964217500018467 11.342904431032874
Sn 11.253424218589938 8.568390915126606 13.181694036896863
Sn 12.335232778969944 8.154576031987938 7.247685771952514
Sn 12.764788035570245 10.48605437081596 14.775114857226658
Sn 4.667522159031622 13.661283751272107 5.796979673498993
Sn 14.01897393172651 13.302310759881797 9.726585506794223
Sn 6.426359437388441 11.462633532996017 4.69405372265015
Sn 10.692476644451919 13.812494397683892 8.843289297855847
Sn 7.527186782966065 11.936179838854882 12.34357917329239
Sn 14.023157489681736 9.812852753965242 9.538575111006583
Sn 10.34016666807914 11.756890623210387 13.545209647246473
Sn 11.699611300513919 5.215572745459209 6.938261126480831
Sn 11.103510216785738 10.222985705617404 5.494561769941024
Sn 7.585519011384249 13.78267918599144 6.52385176264869
Sn 12.470367083080854 11.737155304351202 7.612291955034376
Sn 6.7184384895190705 7.556035379958648 9.1726273914614
Sn 11.726986249936115 13.863084689525703 11.643904151840008
Sn 11.146087494743231 11.078521260708367 10.256394736485982
Sn 5.091235565250007 13.314048651523724 8.75891488310815
Sn 9.62164295229644 7.15606215927704 8.321966765520491
Sn 9.192337123389922 6.493733347489663 13.925710623369604
Sn 12.377635410488686 4.596282748501592 9.706321811226674
Sn 5.398962944892004 10.283669913067449 9.291036513305556
Sn 11.886960402994747 7.649465749690206 10.435853079635143
Sn 8.467010904156774 9.61708828700014 10.46946758548293
Sn 8.304615985573047 9.338117577491008 13.594402435249542
Sn 8.551804657010361 10.814784210819147 6.834196035257755
Sn 7.891943545346455 12.463278378279036 9.304178653023675
