32
Energy = -111.1880847 eV
Sn 4.570783273257922 11.55948334717345 10.087581520615638
Sn 14.622658199938417 10.070704556453396 5.576247990673058
Sn 14.878160047375909 11.77538627166953 8.143452504154238
Sn 11.877642889798773 6.141023611430048 10.238315221627657
Sn 5.757021920499427 13.365294100561295 12.15598181731132
Sn 6.765603600877918 9.739749443978525 8.31868895881029
Sn 6.350729658223908 5.879591046382665 11.024205343628653
Sn 12.444984763818157 12.26318898634778 6.304417706073971
Sn 11.979353764036416 11.20465588426753 9.24393341376035
Sn 8.831173946823458 11.675602823754327 9.367946862079135
Sn 5.025146713450049 8.620051478825154 10.945767663062766
Sn 11.828432759039105 6.282584929068052 13.496790592529452
Sn 8.761595569210376 12.926529103133253 12.024305969182898
Sn 5.115053954659971 7.260310876835219 8.243497549410302
Sn 11.78054141157122 8.836200366326405 11.444185450759546
Sn 10.989832705069867 8.905334638932223 7.5309821075645305
Sn 8.237529993845687 8.458218606212572 11.051856650991903
Sn 13.125509198285988 7.353989642859933 6.011708080194037
Sn 11.715159565155805 9.719582921870542 4.637929219700004
Sn 14.107708896989518 8.731388909446247 8.38368302942509
Sn 9.275091472287755 6.740912022780152 8.821023906472712
Sn 7.0050559672314625 5.027712345583169 8.2141549903034
Sn 6.338800392313487 10.653004539046979 12.79211099805276
Sn 9.553234446019628 10.252107263122126 13.017292396370115
Sn 6.754699467602397 10.766346219893938 5.471476271564264
Sn 9.055242078864172 7.438945012337112 14.202363059926107
Sn 6.300918657642166 13.624356253669818 5.344468822323223
Sn 14.446945031714952 10.25626906617423 10.868395753975639
Sn 9.396394559435592 5.4124630151929685 11.837483942503924
Sn 11.765080733879044 9.076920559357445 14.55184411622706
Sn 6.326658431062827 12.795112671462904 8.04292861409391
Sn 9.512937484492262 11.429419828090014 6.465543030580762
