32
Energy = -111.75686721 eV
Sn 6.485666181854067 2.649672902996692 7.981241922278699
Sn 3.560799908255442 1.7900178385861178 7.244330351018461
Sn 3.50520072554963 5.047572094731871 2.2869967397463684
Sn 5.598620720466833 1.620717460795641 4.93156400352378
Sn 6.591831581543588 10.622229655906851 5.619931557328077
Sn 1.2307446291872655 3.4365183988348917 6.478224004873301
Sn 2.9952276427328677 5.5857898077086325 5.507861794807802
Sn 8.912408916824067 8.969778143982383 4.543539639157652
Sn 7.640156263190766 2.5432974947018248 2.959938621243575
Sn 2.5652657725332646 7.541570657722354 0.9821081605362539
Sn 9.665763984364368 4.44208960434564 8.634264435015568
Sn 8.625237181898589 3.359275633832825 5.832399479229706
Sn 9.569549050906808 9.164884661189902 7.785013063197833
Sn 6.418652209373247 4.903063193129122 1.518692034546592
Sn 9.934309817835306 5.305283277144219 11.50432823274507
Sn 2.803440399700508 2.55692722063197 4.025739023382409
Sn 7.070260304728943 5.756150988948188 7.251167115191981
Sn 4.209500375315253 8.744595854712818 6.6531012626385735
Sn 4.052595537542359 4.637518964170257 8.079294918948822
Sn 8.627067377397749 7.7765178253473275 10.491987466195509
Sn 7.133692011820029 4.74347100466852 10.374807543270656
Sn 6.837105134951504 10.253529935706275 8.586814809942286
Sn 4.0098535688583254 10.80082117973966 4.190803099592519
Sn 4.9598399404599185 8.99155406831061 2.0209330594413872
Sn 11.250113353509288 7.071050185813079 9.020543217846102
Sn 2.5109641797450095 8.014229419503588 3.856653547419346
Sn 9.90114652402177 6.379870686935274 6.216066003200946
Sn 5.81996336031539 7.592985428206396 9.346138428840181
Sn 7.579916599408663 7.642855091476852 2.0900149662213985
Sn 5.712854771079216 4.606988143667326 4.432478799583592
Sn 6.104611455261976 7.676292141199754 4.68673180305524
Sn 4.2703583285595075 5.683661657571627 10.8643089141313
