34
Energy = -119.15886616 eV
Sn 12.985768901139863 7.486446727548446 4.842554513863171
Sn 12.200568488844741 10.211867746130684 3.581980339832845
Sn 11.260215284029572 7.562885418275552 2.2842680021968813
Sn 11.677231293200597 9.87810575269984 6.487719611209857
Sn 10.89747407496824 7.069884290498329 7.1897880168286985
Sn 10.127021272224596 5.916110036210544 4.574284936239242
Sn 11.536084572999007 5.306649481039817 9.51494047548953
Sn 9.588581625829363 10.24960847434965 1.9024066692698633
Sn 10.828993928364227 11.609237247423486 8.72127058221585
Sn 9.186381499551365 10.434729616184647 4.855321882198082
Sn 8.27345940621657 7.912735018828131 3.164134614672875
Sn 8.171607617794825 11.725539162802702 7.386013150341658
Sn 9.930536463162825 7.333312629280629 11.137972462679688
Sn 9.08446978147267 9.18278440129285 8.942113332882782
Sn 8.029413672967582 8.002092991311795 6.329268706754426
Sn 8.116589406352222 3.5921417972418754 4.654030882896736
Sn 6.429708121568292 3.4255364031897355 7.145880182702363
Sn 6.419714961879589 5.970341345307413 4.706110535252669
Sn 7.318763575528793 5.8412720842167865 11.733780980073341
Sn 5.949483833185834 7.2073607579827055 9.28564486042221
Sn 8.422216938623901 5.356147292233211 8.574793221187894
Sn 9.481056289075717 3.8503203303912517 11.149555676300087
Sn 5.003660056195577 8.96125600199688 6.688854384703409
Sn 4.65703313158668 8.226914422591754 11.768117511273093
Sn 4.381492835221423 5.587045682693583 7.334790198749317
Sn 3.508316542675014 6.999140659421652 4.919341605238507
Sn 6.819358152613495 3.024712067392636 10.094218533208561
Sn 5.973864879500467 10.288826859431367 9.358047616942425
Sn 2.9580098849695964 6.1451785208931895 10.034152279058432
Sn 4.74439141435341 4.464933924343312 11.854161697062635
Sn 3.7239431686963216 11.110200321423466 11.161542303876526
Sn 1.7453351790068412 8.89233120255014 10.521444301798315
Sn 2.992392419868215 10.671417016820193 8.248630148749593
Sn 1.979129105604398 7.924361181430546 7.542105772845023
