31
Energy = -108.22014975 eV
Sn 3.42026205588835 9.545732235464833 3.2193946273814515
Sn 3.1066790232763557 8.936353451970511 6.08655779475061
Sn 3.5279706329375973 6.6249865983903335 3.739856950234379
Sn 6.562726601219875 5.5618460480293095 3.6283580612689144
Sn 8.269748912808351 3.9195989425005 5.683273144813266
Sn 6.10395270481456 8.751865756268607 4.032256357618622
Sn 6.050989868530281 4.422556461338611 7.811785846408836
Sn 7.146416233095326 3.829177384717177 10.660684617723211
Sn 8.477338243190758 7.627184758990446 2.403436418888764
Sn 5.033873783544478 6.7203395203795555 6.298746096654012
Sn 10.181726592268495 9.622066844382676 3.970757329177075
Sn 11.3639793859838 6.734129751167959 3.446910814204287
Sn 8.895523886559548 7.028071750373956 5.392074501887522
Sn 9.05721285963965 4.958520029673206 8.539809913178273
Sn 12.065145868323938 8.20950366276673 6.059271060659996
Sn 10.68742841859562 7.55652990839078 8.741949617085574
Sn 11.257633209154548 5.195285161304069 6.230178875441366
Sn 6.068478245561221 9.792039939004727 6.81073682320157
Sn 7.425624826044568 9.37306772494332 10.834463341378004
Sn 9.416221406759638 9.81868580562697 6.968165967856527
Sn 7.533295774693453 7.615115583128519 8.32819243827866
Sn 7.954717558703335 12.315193800480282 10.30188906420102
Sn 6.383356731427774 8.228619848141344 13.366032091225824
Sn 5.524456313823479 6.58122115157491 10.623773097295413
Sn 10.34286168272505 12.31596439437109 8.551773454364954
Sn 10.904074145429055 13.243443539232246 11.395941448228998
Sn 10.47918780945935 10.30750310124106 10.897489529853772
Sn 8.957920589634444 11.97930826781318 13.129283639937308
Sn 6.413494176670416 5.24536966180438 13.236498464955153
Sn 9.389221102631629 8.914405166659444 13.450096299763555
Sn 8.662356045476093 6.516441035578693 11.670917849721745
