35
Energy = -123.55719225 eV
Sn 7.703330845396672 4.0276351514941835 4.275131455224766
Sn 6.315839602692464 6.669130795999737 3.7574981515910273
Sn 11.135819228135416 7.770827747784024 10.011768113690747
Sn 5.976826958599166 5.695826166928203 9.012186503442935
Sn 10.199668047435585 8.258117938326011 6.8245665303234055
Sn 11.22485979225559 9.598070791981366 2.224213287991507
Sn 5.388649759447717 4.090314709304325 6.5317103524974325
Sn 8.980424218965844 9.782533198899626 11.16348885958523
Sn 8.466156298129523 10.833721403972012 2.7885664557481182
Sn 1.8459299955055986 9.933788997466102 6.381117595653004
Sn 5.774486057923709 10.109274273121725 11.214547199640885
Sn 9.706496922441671 6.3618504591521265 4.50849592250624
Sn 7.718649371032355 2.216664209178233 6.645072178805316
Sn 3.660522325605745 10.236880408012519 8.900344900302013
Sn 9.83579772778928 3.1276330214045607 8.629718318296394
Sn 10.328855001347982 7.637250355909946 13.085549642401942
Sn 1.3345790358652896 6.986324445725915 5.736057691491933
Sn 10.668034910006282 10.693442687288575 4.9952339125811696
Sn 8.343535051615664 5.2205940423150565 13.332727049457551
Sn 10.676145942638971 4.9442497145616615 11.241280389754863
Sn 6.74954370453268 8.806704036278644 8.509047539953153
Sn 7.288520661048079 8.12670910645833 13.255560646410705
Sn 11.238130092161034 6.569598271259284 2.0084912262383625
Sn 12.354517633364926 8.01306544116986 4.589977319254111
Sn 4.232607969496673 7.597097058052579 10.585478788688837
Sn 7.685584527647178 3.723668748340662 10.643547014294064
Sn 8.477495198851742 7.942332520835453 2.020310735779667
Sn 8.327146152930553 6.849582350282603 10.639368520320692
Sn 1.6677433795608267 7.846844079297142 8.7316687341386
Sn 4.173044031292288 7.462570617472713 6.933489844528896
Sn 7.876485593368295 9.029215208084258 5.078848699131613
Sn 3.526138285202135 8.574084157674815 4.046453679256772
Sn 8.407700756240533 5.294228597929789 7.168874708704427
Sn 3.6703273635808342 5.369509454689569 4.40834776018865
Sn 5.030010669166571 10.350293426258316 6.082042158927921
