32
Energy = -113.22870459 eV
Sn 11.836011169767797 6.733352806070855 13.370403099561656
Sn 5.473030026002973 10.206410642708313 8.312001802508929
Sn 11.357420388235914 9.665265993407248 13.229653914116108
Sn 8.90427842673222 7.757185574209775 12.549731989041494
Sn 13.483001816215909 8.246307664094711 11.276123643287173
Sn 10.636387361929284 9.172785203578075 10.439975270910997
Sn 7.187957874603895 8.2347459365217 9.955013445629099
Sn 8.248957144757673 11.17450358144785 9.693085731821723
Sn 9.654760030939704 4.873963326038557 12.168538735336162
Sn 2.142754751785919 5.419561813611646 10.440012275965747
Sn 12.438877571989252 5.257844435241796 10.850860107373757
Sn 9.480660047929295 6.338250673973175 9.618628396431344
Sn 12.162549474903225 7.338692007403113 8.610017454640495
Sn 5.279063597179069 7.4751824878334325 7.03586452213129
Sn 9.861523934770373 13.118667002209202 7.570294494088577
Sn 10.277777883224301 10.072394879519896 7.476827519036731
Sn 5.951212585858916 5.443888651997747 4.982304623702233
Sn 9.098321963714794 8.821165125185077 4.832451541618328
Sn 7.5907213291594156 11.001771393928683 6.408029972838845
Sn 7.801843646054899 13.804988976703005 5.376672804069695
Sn 10.6632348611816 13.551987989797272 4.471407168957898
Sn 8.4213534571683 11.49106944635191 3.3847518769661367
Sn 12.228385511556443 8.833705309670908 5.5672059824878
Sn 2.4386248277979417 7.61199007758111 8.157819734324901
Sn 6.643178364922619 4.722585911963932 7.9475689740947635
Sn 2.9010847690841226 6.258000662753535 5.418092217701709
Sn 12.451985771906509 11.940649593195433 6.320368168827487
Sn 4.854001861168153 6.388487805729501 9.778886491437955
Sn 1.7043246614899012 4.563256329435085 7.6310486267831426
Sn 11.280545786931905 10.763183319309794 3.4884224185589336
Sn 4.2344412033049945 3.3482830940903474 9.334643158495744
Sn 4.2113009875753535 3.4404923143634716 6.308109521448379
