32
Energy = -111.83447551 eV
Sn 5.228275941327339 4.591612910428073 4.208630422828938
Sn 2.6773636160352137 2.9128496201541787 8.633085697492664
Sn 8.399146786063472 3.052348527075979 8.998943192718809
Sn 1.8481489402860893 5.357296952287399 6.978086469528704
Sn 9.311368326936755 10.060441144745853 3.0468701764032877
Sn 3.048600751759645 7.268893171978985 3.8757714463245097
Sn 5.774300204272451 7.405297959603502 5.300813384235699
Sn 11.26994966120969 6.920978299991454 9.47733724438589
Sn 8.504670550288374 5.765640175922508 10.113525599590712
Sn 11.040186986353314 4.585924241849815 7.814131024317313
Sn 4.845161320846067 5.0141497558448656 7.616571458446761
Sn 10.162372490128243 1.9773774602464937 6.818431971896326
Sn 5.374728374425492 6.895411703337731 10.121731471543114
Sn 5.743468192665394 2.0489323290697676 8.122233220232621
Sn 3.75512875868964 5.509277960274261 1.4567413568491094
Sn 8.883777784104243 8.853941682786665 8.556743374289836
Sn 6.514127544716112 10.355171989509453 3.92514384274915
Sn 10.796417110884459 7.537118091093251 6.398743189326512
Sn 6.235760554509872 9.706100685731526 7.214441356491305
Sn 2.3311609759447505 4.329244295137928 3.995694657135185
Sn 4.387745882484132 11.356651444330067 5.621747429310981
Sn 7.471567909239804 3.0451183541120943 5.768799885723151
Sn 8.230868376673195 7.350436562346953 3.5433709770654467
Sn 2.0894228471385032 9.403233664338522 5.709638060137705
Sn 9.173406639911375 10.233845592295479 5.972363361977924
Sn 7.9502308914857736 6.016119542746412 7.106813152465622
Sn 5.31385160136948 8.190646705902275 2.0797801611297966
Sn 4.9199022569464805 3.9259246485877095 10.542847326268038
Sn 6.733903000969814 5.451603250764051 1.7237719214296452
Sn 2.3988224520682246 5.655292607812463 10.011451532007408
Sn 9.774317358477443 4.916656226434988 4.937145646175497
Sn 3.5154457551699814 7.8056185150271045 7.832697996385397
