31
Energy = -108.40625668 eV
Sn 9.480301113731796 3.3540591130098556 7.3882377897190645
Sn 5.960444225622484 1.3173474112548613 7.998293069995572
Sn 5.8179103773716 6.638632709237044 7.9178485412641475
Sn 4.636187560174849 2.206406354531673 2.7980078207145707
Sn 3.218644108492706 5.298094209258078 0.451610779518194
Sn 6.619286379048283 1.4697151232245782 4.803564936233078
Sn 2.093981720914494 4.414410070532052 3.1400596349960606
Sn 4.3692105725068755 7.946928621199191 1.5684368879625392
Sn 6.954051172658785 4.004209695908881 8.75485024918548
Sn 5.056971284297876 7.7748217185797746 10.674392975144485
Sn 9.253115104528947 9.79113992528829 5.95521141066387
Sn 8.40530886917544 7.573211171507991 4.163477695049441
Sn 1.3044234369080014 7.275348759034501 1.9824421538981802
Sn 8.595003122597289 5.109733705307926 2.533076473955892
Sn 2.674903060784381 8.99958869170163 4.011432225044956
Sn 2.015459130233757 1.6698784074900057 4.175727492619216
Sn 8.855647411255237 7.329374703101937 7.546076472391868
Sn 0.874376303905447 6.509914902138297 4.9526518290297235
Sn 9.34040981560171 2.6813709364204303 4.362642090503522
Sn 7.863287110531193 6.4387509242051975 10.299402695385005
Sn 3.4663089652033627 5.528518130761496 6.102069506614137
Sn 6.371914358323928 9.189791678477473 6.2198222384566275
Sn 10.362513296131144 5.560715632713827 5.578349348811988
Sn 5.55076109565746 4.9914497902213695 2.3354020828584487
Sn 4.042914042530566 2.620664903062442 6.066569497483512
Sn 5.124527794573885 7.193869890843522 4.384399041717548
Sn 7.13544060558484 4.653587532155139 5.53466931118269
Sn 2.8371852901766212 6.749079110591543 8.846467418752347
Sn 1.7550159194731532 8.916141705999104 7.0323450091452075
Sn 4.334065192101199 9.535231480602928 8.388778355041476
Sn 8.635269785533614 0.47054465420983466 6.695952219175543
