33
Energy = -114.96151272 eV
Sn 7.22456573582652 10.227948149102904 8.03685110622576
Sn 8.739513395762668 8.013045901989255 9.426896216882849
Sn 8.660566908580062 7.15890890659878 1.9929631368904817
Sn 2.9469642410774712 5.196129783868882 6.898062434546267
Sn 5.705443453321221 12.177892619719252 6.2126083376924885
Sn 10.863093900797214 5.447938943842732 3.6378301095930174
Sn 6.981269981534595 4.090710156476406 9.12120696164234
Sn 9.615590745600397 3.6091326723953316 7.2897565997661085
Sn 11.020645078681138 6.277959612456893 6.540422766937084
Sn 5.114687579533142 2.8260169771212817 5.675036147218396
Sn 2.6615057498072887 11.534242036357957 6.582792726089918
Sn 11.665145736429501 8.093930478607438 8.769537959128371
Sn 5.61103843743754 5.838190031646438 5.3163894291336815
Sn 4.919338397937616 8.077992577647073 8.202669974236581
Sn 4.447264485263857 5.477669935273286 9.767015219216242
Sn 7.882237709998307 6.189784379535665 7.219356459188758
Sn 2.8379190599948743 4.055253399804477 3.8883340561631994
Sn 4.502871401135508 11.121285180925026 9.042373531633212
Sn 2.9544529423225097 8.480805961176774 5.816981052855503
Sn 4.213463423117456 2.60976316264126 8.600857371494095
Sn 9.013110266073763 7.79232102128122 4.834411708482754
Sn 10.193656307247434 9.718246433329961 6.882049725887189
Sn 8.44007530309221 1.6385535445027108 9.2760539739487
Sn 7.665387027637362 4.760128482853244 3.360873951499948
Sn 5.603665242769015 7.748958092302807 2.878418944969826
Sn 7.599544025873842 1.44249357522341 6.35585285264319
Sn 4.119405345614611 10.619871364947889 3.9544917639847394
Sn 2.7119716545297026 6.961040931394669 3.2530676716345983
Sn 3.3671485658498086 1.2164474907530491 3.8538175047860386
Sn 2.1294114213475464 2.2496261443051857 6.426689144227848
Sn 9.548500711929774 2.7727160962025637 4.413213082127748
Sn 2.1209536266139932 9.248672691001959 8.569427072859943
Sn 6.177765606312284 9.11544856281711 5.502242932883176
