39
Energy = -137.75531849 eV
Sn 7.012199989578432 2.832953936387646 10.6049217352941
Sn 4.155851434011957 3.6393191747450553 6.794590055662382
Sn 1.7465216926831884 3.3241547524425408 4.482429495322828
Sn 6.965038923432616 5.1851445230390025 12.562358507141397
Sn 5.006154161286651 4.994039624509286 10.039123345257485
Sn 6.834531610111553 1.794940559920853 7.690431669040473
Sn 1.4334593601800072 5.586594118133621 6.4977539162300975
Sn 4.748387103667614 1.5419345182966178 4.589702204928661
Sn 9.457557596013679 3.3799275745948907 8.706900196769837
Sn 7.775734679023472 1.0771907688032127 4.460418793240621
Sn 9.6259053570703 0.98059195569861 6.860946136590724
Sn 0.43433939686360445 3.7252795361362177 1.803215269052025
Sn 7.996339729681143 6.545656335997808 10.247253648717834
Sn 6.926579451014296 4.981189787702523 7.674883563103522
Sn 3.901417800257474 5.8904860631973115 4.760097695916873
Sn 3.246393693167809 4.675147568513225 2.0017695020402786
Sn 12.2380932875071 5.582832176683466 4.069029161209938
Sn 5.230157620538728 7.547289692416188 11.516506734959528
Sn 3.6317854360143023 8.901010756902439 7.892101749532661
Sn 5.472349420974431 2.590972199452144 1.862021081893725
Sn 5.404999865563006 5.06119042637093 12.580299187946961
Sn 6.681410556217451 4.046349169863001 4.452801665429868
Sn 9.728922400445667 3.5349367887356187 5.258540739594969
Sn 7.481383023818926 2.737030849908492 12.5623585071414
Sn 1.5427892364698579 7.960787483822035 4.512788902768821
Sn 1.0353729215114515 6.801692320793708 1.6722006801871703
Sn 9.7972487928837 6.308063781895123 7.846199122056401
Sn 3.8610447962501513 7.686316854695195 2.4038053171382208
Sn 6.511358970936164 8.985059758119828 9.116915552291774
Sn 5.917512219772386 7.8507788697495595 6.317861066651619
Sn 7.60110848441036 5.230759373808836 1.8055204765186474
Sn 9.27317881084178 2.7841450829428553 2.2884678103164484
Sn 5.04950093119061 11.56141383917575 8.247651538872978
Sn 4.541239786352288 10.52099961269513 5.366474021573906
Sn 8.435121207075422 6.62240620074502 5.088345640347129
Sn 7.281238845000537 9.621096970375431 4.246072345344506
Sn 8.773792639465034 9.45726543983789 6.890573996867585
Sn 8.085818918263314 11.521651216322503 8.960855699293154
Sn 7.180447528124488 12.141054574949576 6.078122791317777
