35
Energy = -121.60966968 eV
Sn 3.017139750068678 3.2238229163792944 5.041792440548315
Sn 6.623428293839596 12.468563388816845 9.715152748853049
Sn 1.864454109340891 8.594557818892296 7.071539992617102
Sn 5.8782084706580005 11.140992110013846 7.032512939819471
Sn 3.036593287611232 11.211061193825778 7.819463118290413
Sn 7.953680386523074 8.608192829498513 8.678256624963014
Sn 9.104130224961619 11.398225342043196 8.025774480695965
Sn 10.318224022651094 3.6777798935965764 7.149850160359866
Sn 8.246354639828185 2.6710050142548893 5.093980294312799
Sn 4.05583021160172 6.984842831638942 8.063537509083037
Sn 5.547990526325573 3.18372275048424 6.539704377392146
Sn 13.494166546417778 7.543197260027692 6.631572109621942
Sn 7.669860829359142 6.175685762982723 2.804132840987907
Sn 14.659763070276037 10.073561445012848 7.80000851797278
Sn 11.787563385849763 10.261574873114887 7.339218745043901
Sn 5.49386583861031 4.138183782690649 3.5843106540986494
Sn 7.86702044961136 1.5787736471634182 7.9618993222076515
Sn 7.77744741382301 3.1372973441451917 2.1813084749617153
Sn 8.739751718794942 5.713221396077496 5.549228003732523
Sn 2.031065726795735 4.930970956095602 7.3446127279178395
Sn 7.974808584229334 9.564776327777654 5.644518068091922
Sn 13.22375307673645 8.355868051078419 9.685910322353715
Sn 0.16773627083149317 6.818226106475086 5.7164022500724645
Sn 6.753321316310821 5.8005445119925305 7.809705442763226
Sn 5.112410066728051 9.640322659147582 9.542913704818682
Sn 12.57267640786684 5.517469031504637 8.700022602332073
Sn 5.955919933257594 7.290252743295614 5.0144360440122675
Sn 4.6324522771235666 13.82847007632143 7.9690911481013105
Sn 3.695890260964626 12.171529375426926 10.550955563343157
Sn 5.7386310671466445 3.4354446140916712 9.438003924628143
Sn 10.521024917336891 7.425649233511615 7.28365116113237
Sn 8.648874210617723 4.069231884696363 9.638903301447664
Sn 10.483238613486613 9.848629116068578 10.30381986864944
Sn 3.075396328930446 6.479432929423313 4.920006878461806
Sn 10.272332239206325 6.750602881071585 10.232201721818065
