39
Energy = -137.1325005 eV
Sn 2.8292613855867215 4.067200122109268 0.37002012211250357
Sn 10.355357573489513 7.502559330792706 6.155567505627709
Sn 2.7939779840344223 7.195330333330682 1.3987166516095249
Sn 4.8012695499382785 1.7813006574181116 5.092760688461481
Sn 5.051633220400006 10.649371121823455 6.075578508399494
Sn 1.8401507279733413 4.7859294052665575 3.2606420260307765
Sn 5.6916287466167015 8.759783744534454 0.7721261630147193
Sn 5.024996922118284 5.957333470312349 10.477540970921577
Sn 8.654555007307504 0.2703287950909577 7.4149804750389015
Sn 6.77447845989403 9.067446954062586 9.331059090132044
Sn 2.1809663710831355 10.198216693710163 7.166956233465221
Sn 8.11613608342912 9.588737638479556 6.564414245507804
Sn 6.8403967340828205 2.718803715168985 7.867078997153869
Sn 7.635444252130856 5.989008603840607 10.078249562842846
Sn 5.738689168730946 3.5832973051498724 1.6625750658405054
Sn 4.540003644562185 6.918807562122958 9.879345183563137
Sn 9.471332765723655 2.9037623180282655 6.112319655329877
Sn 8.65424072916239 3.0002061274244243 3.0343395613579913
Sn 9.68627918607043 8.302435878817608 9.113972047122946
Sn 1.6698165820008843 7.901225377648081 5.264196259804922
Sn 4.986377517897536 3.8975721527002443 9.900575111958211
Sn 4.222439546407421 9.043375546958428 3.564437275186953
Sn 2.2504977309067247 4.5680645562430895 8.138979166083061
Sn 7.788262612312057 6.396770255925546 1.0316194415806692
Sn 8.980665261072472 5.8650189151964005 3.953671928605277
Sn 1.6541449304663767 2.463282245753514 5.613680431440208
Sn 4.36614310847734 7.9778046854995575 7.036712132142602
Sn 3.1244663424185988 2.053818922669309 2.6947378657500565
Sn 0.1933274600558686 5.229820390167453 5.787950308804061
Sn 9.912957917422625 5.283731786082815 8.151893329888434
Sn 6.635231957875488 4.167137584514128 5.1855728707876345
Sn 7.4356767595124 8.48257346413814 3.3442166807243376
Sn 5.687094880974474 10.649371121823455 7.109457306258616
Sn 7.338449214021992 6.700308835755057 7.07749204275966
Sn 5.2927306072846845 6.2354329185089155 3.009247495446538
Sn 1.7294561186599584 7.7150668999062 8.671902798647317
Sn 7.5774732033659715 0.5968626344294599 4.588702954868328
Sn 3.563988167846642 5.396715538550814 5.625208187845021
Sn 3.6034134972718896 1.7503999610669991 8.035717228907082
