35
Energy = -121.18632633 eV
Sn 9.770338800188027 6.596623560046569 12.879263515535714
Sn 13.300121274588479 8.451723059834048 11.818086955512436
Sn 7.384056335087862 8.999370963924145 5.586628791755633
Sn 12.114990822549666 11.053286532434383 12.302418201664286
Sn 6.610504921686956 12.357005511469419 11.736844287417311
Sn 11.470864340657668 6.430404344660979 10.124446475621003
Sn 4.42964924090625 12.756401823943746 9.320312990185249
Sn 8.086458903571689 11.87386339001009 8.957795039661729
Sn 11.993184915636883 10.44631534575995 7.185281755359952
Sn 5.727099065038664 8.682620948000592 3.2233519328344475
Sn 8.3960946651962 9.252001156114536 12.633505757721979
Sn 10.613748375819092 5.597834759817195 7.451588905040005
Sn 10.360987349200213 9.44015257605127 10.422737930802695
Sn 7.562764409241037 4.570097302079027 13.277660295313192
Sn 6.018500559070398 7.20604780696136 12.773773007086124
Sn 13.656887398992136 13.026690656556312 10.770732563005575
Sn 6.840566003013847 14.557815600606022 9.720607257862516
Sn 5.6058022870599755 7.429534721212885 7.7075974172062045
Sn 7.666997462740327 7.470498798329042 10.082526774136406
Sn 12.660751421255794 9.428052036394115 4.388850688513841
Sn 4.157836753002471 7.406045908116315 10.399992125086984
Sn 9.687622716685217 8.491387184893846 7.599552714954992
Sn 11.148827568746848 12.243674648678104 9.359117486444278
Sn 5.6601058921578025 10.825304767788934 7.171070113884358
Sn 14.903944268711227 9.295819097940841 6.864600896253846
Sn 14.033289917828363 11.751654236592612 5.372037023884641
Sn 12.70749791086394 7.401003241463147 6.5109400668748405
Sn 14.213255435074705 10.303060926962369 9.753255852370712
Sn 3.914092638709094 8.940723054395004 5.575811605429107
Sn 12.637363825026931 5.673881491396706 12.65418286496149
Sn 6.418696799751149 13.657061408481606 6.924426935521613
Sn 5.889320755136047 4.87547212753088 10.679666738719439
Sn 5.732436435790225 6.372940792683594 5.059918478282238
Sn 5.739555665774247 10.04241403959318 10.163233113151502
Sn 8.887228164484505 4.615662165001224 10.482230058891645
