30
Energy = -104.76008008 eV
Sn 7.464992887982463 6.164163359631358 3.8100830331934334
Sn 9.56164760917678 8.696057165221118 4.34487282391558
Sn 10.47061785351814 5.678431464713869 4.197042563396218
Sn 5.169920795062341 7.921964149090653 2.9007232945069186
Sn 5.078546316142467 7.504382920040469 6.018499539973796
Sn 8.840326506823077 3.541144849527245 2.8252241882119487
Sn 6.666180288244292 3.2907093975794623 4.82431479414036
Sn 2.6992535993901536 6.5683343988845495 4.234727947542352
Sn 7.699876235036692 10.950721886964969 5.1546492846101115
Sn 8.312902455708167 8.666678466574293 7.125485437859761
Sn 1.0113815862385807 4.490146419471748 5.48042631806315
Sn 11.355212016507723 8.049667510240903 6.785241014270322
Sn 4.853145536859064 10.502585338605586 4.482932094622989
Sn 4.046028903765436 4.334334040462131 5.777539127478532
Sn 10.248813155106328 2.8252693517468135 5.541724232017615
Sn 8.410415907446934 11.621598509333653 8.231145595857662
Sn 4.949364218201093 5.468244190779569 8.65214517015836
Sn 2.2239835443030485 6.876240989630967 7.31314914173256
Sn 5.473835873043772 10.160530110499513 7.359998938611147
Sn 5.749243923494946 11.542371018619423 9.923943907835476
Sn 10.415311861126176 5.189635926788155 7.336912408022969
Sn 7.452256663926006 5.6734941989952 6.839569134973764
Sn 7.923521897039693 2.698366415643363 7.483839983170864
Sn 10.222369955314567 9.413736920817813 9.33937444271096
Sn 2.245193612578899 3.9092260337918527 8.11918085520695
Sn 6.573189335542339 3.2408284384928114 9.972875454176716
Sn 5.189144450515888 8.459235149887837 10.067117746818166
Sn 9.23458148855346 4.633124053591338 10.113203284516883
Sn 7.883995509622203 9.984739199955582 11.247108911744744
Sn 7.9169228470942405 7.2862149577835975 9.839126164026188
