33
Energy = -114.75448123 eV
Sn 10.525738970415954 7.744931899071898 11.054638941430746
Sn 12.63539423317536 8.327380165225277 9.099892532664107
Sn 8.293900288065062 9.844081701151632 10.54699576035645
Sn 11.436418045501537 10.70520849281086 7.380032225565264
Sn 9.600088252499912 8.229285496693919 8.202833214743588
Sn 10.256315659729012 3.1274218757977077 9.20687809342767
Sn 9.176781061622863 4.999816753988694 11.283120611555681
Sn 8.19884692310761 2.8574055815902897 4.387931013954484
Sn 10.715535951455042 3.339886631250897 6.0641600375818685
Sn 11.538463396742081 5.73952199015567 8.119390329132587
Sn 9.441288481594649 11.292589619473556 4.90420514654009
Sn 5.7753987409517995 8.413537251449927 10.89248683254873
Sn 10.705382913832441 8.531370268433037 5.378070162331988
Sn 8.054030488934684 5.425799693146379 8.50658965111413
Sn 7.95401637505853 2.324247876661742 7.411413038084014
Sn 9.132839610244906 5.880128657764941 5.67067920893476
Sn 6.120908475900736 5.414283819616695 10.950580321394483
Sn 7.426815216705036 9.10438900234738 5.523257787299546
Sn 8.392095079033338 11.294828858605655 7.83640517743162
Sn 5.451628215301229 3.6697735374658764 8.562492551031267
Sn 6.21911571277063 4.7569773211231245 5.556811616379083
Sn 5.147767289584622 9.952903523314735 3.788023310180783
Sn 5.943254893244061 8.363462487281762 7.976431843234702
Sn 3.9349749888146444 10.392241750078295 9.472756101846695
Sn 7.6393438305132975 14.103879387655955 6.912136720936905
Sn 5.029409326619172 2.266990989561934 4.009261015050598
Sn 5.541176690843627 12.566607808068639 8.191358442746159
Sn 6.415109710168699 12.320634226240644 4.939839099772323
Sn 3.56922505991336 4.954597581709722 4.054808940059495
Sn 4.132702149672773 10.497387488228354 6.459015542850204
Sn 4.086502091253016 6.095249516165372 7.206572136687734
Sn 1.5197632298026835 5.053625131146589 6.151202588622867
Sn 3.3868294898984486 2.7996570485963015 6.3710140490630005
