35
Energy = -122.97541794 eV
Sn 12.114141685945986 3.8668523904964496 6.680720534559061
Sn 12.351335839274736 6.271464668139267 4.5050010748095435
Sn 10.939176584495549 9.677414611104535 9.690857384654072
Sn 11.380740682332082 8.407982818668133 6.760398984725218
Sn 9.407336306250231 6.148460490658596 5.160115484050929
Sn 10.080252919678555 1.7273888053593234 5.571114232487771
Sn 11.70229086501117 3.38856444027813 3.675764142753087
Sn 9.036593256756381 11.927274493739983 9.023585479537173
Sn 10.564251119149839 6.018930053948642 8.248130169973566
Sn 9.951929692674405 7.0764586001792935 11.028534355988484
Sn 8.62277991255198 9.057238938004277 5.745168694789431
Sn 8.548465881423859 3.86418091496782 6.87411918843311
Sn 8.481107508412109 3.4384891465200482 3.5732690588862166
Sn 8.077620530623994 8.829849422516116 9.121082180349976
Sn 10.208485775252312 5.702142048751267 2.2718532488433625
Sn 8.639290358505939 10.555122092481682 11.865078973035331
Sn 7.73615578315792 5.560933837900551 12.318865857569252
Sn 4.644110303887637 13.595285390237851 8.789726868313524
Sn 7.914912079115417 7.880285314825356 3.0657803024259085
Sn 5.0867230469784275 6.825923645144404 3.6415335835506886
Sn 6.559386161485279 12.473847810156293 10.733689535220142
Sn 6.300403832555558 11.49163481220156 7.675540409482484
Sn 4.99962313259578 6.741743916875417 12.01712168904836
Sn 7.696350613713049 5.47246836673374 9.417019460557343
Sn 6.475948999150805 7.102461533066305 6.610095223326526
Sn 5.775306759716026 4.454067199433223 5.401750995957768
Sn 5.963480015673071 9.336130557429135 11.132444516021195
Sn 4.683673650886687 6.346154464621043 9.07620150202073
Sn 2.681983369999962 5.242321597054017 4.838221163942113
Sn 3.7088699844750863 10.93595965264106 9.843412579557455
Sn 5.5497339201611 9.706295860529224 5.0497340877393855
Sn 2.614029000630362 8.345951746107671 4.964466550580299
Sn 4.024021894848913 8.935226721076837 7.658064422301227
Sn 3.609742753939144 4.033173570037051 7.526377115325407
Sn 1.919995914098966 6.6754099861734915 7.471311133663605
