32
Energy = -112.47976777 eV
Sn 7.7834896011506896 8.731243896308236 5.102799386776349
Sn 10.174901039451534 5.944644865990591 11.46210099370679
Sn 12.05871534243465 11.022972043155237 5.526786730190451
Sn 9.388942400713931 14.44655543324834 8.404466865588269
Sn 3.126106727701121 6.841364150761087 10.935677443668345
Sn 9.48961255359622 10.488157388946911 6.9147183046640155
Sn 12.232273247315291 9.515937325166108 10.617434739226377
Sn 12.510575850545052 14.341626133084869 8.741993954440115
Sn 3.441409302974224 7.2373304135215895 7.770663874495406
Sn 9.986061791574944 5.062580647477918 8.251416183669695
Sn 13.270152031939022 12.585779896409827 11.273956735436544
Sn 12.661462805805838 6.06233521433372 9.8554608452
Sn 10.859215607875784 8.17975619429596 5.628161637484755
Sn 3.8443833444944406 4.512239181890915 9.130681602776065
Sn 10.65323397955615 11.852732386531981 9.29185073101748
Sn 7.06954111455472 10.714168921729465 8.731582590557325
Sn 6.738831841300442 4.938522923256376 8.517615513921816
Sn 7.025386846792452 11.676971614803696 5.811898034839495
Sn 4.648707113322562 9.234043706367187 9.710656296053266
Sn 8.13266663867298 12.845758498142827 10.70276515121642
Sn 13.545601588969065 11.34357194014561 8.305496748336658
Sn 9.62482813127195 13.185030859806735 5.555563217025474
Sn 8.546978731563817 3.5291211671454183 10.68590348794502
Sn 10.902445403027441 14.52231864078122 11.341550116033263
Sn 5.6368169744199195 5.071329022357422 11.545386048417136
Sn 6.33989273446434 7.718728340422892 7.477605491120618
Sn 10.502471687172651 11.595355655692574 12.376967192215236
Sn 11.501621117182303 3.3134051626520904 10.082831647648865
Sn 7.481775931002322 7.3812071803603745 10.293026106313981
Sn 13.203277747384117 8.343828641653284 7.662987099438145
Sn 10.236475872368914 8.048575892976327 8.858368732986452
Sn 5.530640622618756 8.058903942779533 12.40022305138964
