32
Energy = -112.09071632 eV
Sn 10.702881161982026 7.668215981534573 9.674247047543922
Sn 11.813311309601668 9.687402090634857 7.677758234719433
Sn 10.228868187586361 10.854367175757847 10.11478941833376
Sn 10.094200975379092 7.151754185742505 6.6897257741455665
Sn 8.3088269497149 8.77319353206539 11.442157773346894
Sn 10.47265382831878 9.540931504902831 4.871897103383395
Sn 8.709620233640043 9.986803285488842 7.447102732091822
Sn 10.079998254787087 2.8763035923263494 4.472188927335327
Sn 7.031445047589454 3.9843976161149794 8.355016022021191
Sn 9.987946269704583 3.50461244134165 7.475707738353525
Sn 7.470996874269485 11.917476816204045 10.623321278711494
Sn 8.016065891225088 4.879627563447708 5.506968103662983
Sn 5.9593442279447215 9.390362055219347 9.412667152656054
Sn 9.329707493143777 0.6698168438585512 6.40596667096094
Sn 5.140275277958558 12.216008073662449 8.828597668989149
Sn 5.715544798857867 10.223288771442949 12.40685012029526
Sn 8.485117526294278 1.4350187246009756 9.219614062829796
Sn 8.138182363220238 11.424388316501092 4.367409330586083
Sn 5.2252289889028 3.6530448463742613 5.959409318635817
Sn 7.786148390619541 7.053504144197173 8.767329161379251
Sn 5.83306896507432 10.95702573406042 6.249509194487804
Sn 7.195261076363717 2.0482549459118906 4.289866594135892
Sn 6.174720255075276 1.1045332092582463 7.316527266127965
Sn 7.498097998067323 8.280402363389644 4.163064865059746
Sn 7.028344712375748 12.216008073662449 5.200585323128039
Sn 5.586911507912149 7.8227659259134565 6.49083741366611
Sn 3.1666906296725608 9.714863590940523 5.507785944409769
Sn 5.432660205563923 10.644070851139032 3.224265916140947
Sn 3.298772652019793 10.232869157571857 10.322035161453007
Sn 3.2079399606415073 6.217503395171619 5.6610093264650985
Sn 4.376751173653651 7.825637003042505 3.4448312438011337
Sn 2.911344438100839 8.188022041525697 8.089524402287912
