31
Energy = -107.57324192 eV
Sn 5.309320499425945 14.402079759256768 7.422876009149079
Sn 5.243577525287876 14.03303720679586 10.345528638894931
Sn 9.94524275461051 8.017146074138182 10.478807195015728
Sn 9.253131191175076 13.354789350664289 4.144357265479249
Sn 7.114356002474336 9.286195946241975 12.079640892866612
Sn 7.863857322324907 13.246486137254534 9.165073758858764
Sn 7.917828342334491 5.607146382708576 11.753962556352738
Sn 11.045196735082792 5.405946088445359 12.384540363133706
Sn 7.537836549605742 10.13312540309769 4.68349358063109
Sn 9.954679985191504 2.2195239222729124 6.234468877079576
Sn 4.735744105872963 11.614184277443956 8.783460156701855
Sn 9.141862217013914 7.550256198258728 13.483870034828378
Sn 7.576497834512213 10.230962879224782 9.374490744623447
Sn 7.261615774720938 12.622555283445172 6.252997053051035
Sn 11.607051205575877 2.462537716494239 8.730189497697763
Sn 10.501906354075919 5.100360032587778 6.533127593894615
Sn 9.63211398801768 2.9063538317132966 11.147026973214377
Sn 8.449614381055307 3.3775067237955363 8.477802734408936
Sn 11.137991838205158 12.077985770615047 6.330809942646533
Sn 4.088737033303964 6.9993981017113285 7.794843634858854
Sn 5.688170339837813 5.1000017338052865 9.736495599792411
Sn 11.279260280614324 7.852897245438759 5.647313849005672
Sn 8.301557062130268 7.2577924512116665 5.6126828136830165
Sn 9.591163828031462 14.535761548043565 6.956616248669579
Sn 5.748511743342519 9.291481416934342 7.130364763934415
Sn 2.8418300892063657 9.31565845823574 9.175571065192468
Sn 4.952206866505765 7.9275086335833524 10.609476731474134
Sn 10.516127779219614 10.556804470497086 3.8671751751565884
Sn 11.064065931489473 5.247316655039849 9.453737766198433
Sn 8.047935466831348 6.498166142706794 8.554463548699802
Sn 9.470124467724903 9.705870918612188 7.123171615028568
