34
Energy = -119.63680717 eV
Sn 5.893492161609558 6.145431962934329 10.020727848369916
Sn 10.197136508969553 8.610701490306687 9.373191061032898
Sn 5.543139604846605 5.18026526993632 2.80796899407145
Sn 8.411438510158613 9.243092360336865 2.6287600773841375
Sn 10.441984349915641 3.8101759435335 11.190070556668234
Sn 8.351760277324944 6.167064517661033 3.6944440536876386
Sn 12.792163297365613 7.98430251772745 10.899505631011612
Sn 11.449999478475679 4.031605545415541 8.299341593876923
Sn 4.522832702376614 6.930857009725571 0.31328242616011714
Sn 13.32873026174681 4.692256085850586 10.695985742728926
Sn 1.3274895907121982 7.204799554539887 4.465576612482807
Sn 6.991238088045548 6.423255831889722 12.808434117921573
Sn 9.842877211994145 6.8436888563894565 11.787437643815904
Sn 7.399106491489691 6.956150025525361 0.9309162219482273
Sn 5.975318863481449 8.742367972393527 14.370594903025834
Sn 3.151120700840744 7.000883097168466 6.800963175228123
Sn 2.4158872061641015 9.728553550263772 5.235102662538689
Sn 8.922432635097676 5.65448152729509 9.142577557001486
Sn 5.724221756921245 9.706512027228284 1.1865413672537728
Sn 8.374383182926989 8.545343938205175 5.67686774780338
Sn 5.8253235266405525 9.84903919659937 4.258877918752807
Sn 6.817621932364179 8.609105528238556 8.555602127357202
Sn 13.444129571508006 6.636016930308563 8.271138056940547
Sn 4.224595112305984 9.959407199896965 7.876146675329125
Sn 3.3491851560042334 7.8604977909786315 9.670504476347537
Sn 8.228450081581974 10.690280427840257 10.29076410193536
Sn 10.783189491421519 6.950375716770526 7.001257681015611
Sn 3.883714404526161 7.852527458828712 3.0252676053258294
Sn 12.324030544229165 5.921828089205416 13.1237552752613
Sn 8.56629356496518 9.32780364306718 13.001090060883115
Sn 14.4657511007937 3.8564223177564125 8.153499924186901
Sn 5.860771981872415 9.054540823422903 11.451917082288105
Sn 5.740960192501533 6.963779994857863 5.2979449458883225
Sn 4.22153861657339 11.932826606047092 5.69161136266116
