35
Energy = -121.46077481 eV
Sn 2.882553814377614 9.10794087171962 10.196006832371195
Sn 11.306641521873429 10.828033323883982 8.418060534950557
Sn 13.088554769298186 7.757577375196824 12.208708353452163
Sn 10.19652777358151 7.72928480008241 5.682550035887258
Sn 14.959396305811824 10.195206914052383 4.974900422673024
Sn 7.628966629644182 11.772040595149491 5.054835433153519
Sn 11.042390989162193 9.977640167852766 11.43283913644044
Sn 8.395806036323686 5.214644276833752 10.70774006069456
Sn 13.024993971102228 8.071896115470459 3.959402522757841
Sn 5.585032114464377 10.181875386596904 9.40193288895905
Sn 10.509211004913999 10.736396990790563 4.719518213253835
Sn 3.3376830555163743 6.095089986703607 10.88653065838529
Sn 12.24864750439549 6.890431609769876 9.410932685592845
Sn 5.68191537958661 7.074040133818753 9.448300864131507
Sn 5.8022489700315445 8.870475530199885 14.342140195040725
Sn 8.73658727989955 10.923196989192283 2.4078437174929412
Sn 9.992024368082877 7.287886249748495 12.681045340146978
Sn 7.989082001041552 5.934383213749253 7.9405991686759245
Sn 7.2235879103455005 8.745479762890229 11.558673805489086
Sn 13.530104494691898 8.947859655660675 7.154965502519234
Sn 11.880098036999826 13.767593087858927 7.899286364734825
Sn 13.825970451535698 9.635520848955666 10.097321966440488
Sn 10.28619662437997 8.354287915305717 2.8068017838083965
Sn 7.357512546097656 11.822962841073117 11.738066545410232
Sn 12.639989107162219 6.19468134026538 6.3033188336301125
Sn 12.844902124690734 12.064153842112667 5.785476440261261
Sn 8.818006108493215 10.082892594527957 13.736443183466047
Sn 3.015684678181826 8.2817630771552 13.099011104486246
Sn 4.478006714355235 10.840888197560599 12.30890820225004
Sn 8.559941511069036 9.77597482826875 7.2294124682618195
Sn 8.243900484047858 4.9381456447781265 13.551499809485852
Sn 9.516580917230819 7.955694548349319 9.54336006684178
Sn 5.683827253372087 6.349821612721909 12.731195483908765
Sn 9.09345890777255 12.902144127724114 7.397152410774406
Sn 6.699542167471326 12.966108352638498 9.0913762790185
