39
Energy = -138.1563876 eV
Sn 7.2552294956631505 1.7636960840884615 0.2031820096400176
Sn 3.0352804437431886 3.1501546821472406 9.440308250266382
Sn 4.171601157897811 5.146866081158784 0.3003661752602481
Sn 1.1435881694918555 5.4373726136307265 9.886909425340724
Sn 5.3654602562813665 10.576668981769613 0.8654740058670854
Sn 5.601463189555336 8.22934791177936 1.3008266497123695
Sn 6.860581629100554 4.585199523395977 1.9636743916092152
Sn 2.9797153079574272 2.0322139759774593 1.055045416779175
Sn 0.2617968251561737 2.5852176853141287 10.842707063367142
Sn 1.7656341339889396 6.900442428416172 1.3508505426101092
Sn 0.24413188800546848 5.84791065233756 3.85865030789717
Sn 0.24893274515615724 2.7498830664819836 2.82569981741694
Sn 2.9911073511100335 10.974341683270682 3.096791109032575
Sn 9.210789059545801 2.3677924243362156 2.5910403893869707
Sn 2.7689156296864104 4.42858523924278 2.9384592628925916
Sn 6.1425101200458 9.885691167272343 4.059306731411047
Sn 10.269747835452703 5.118684917400531 1.0126306564694054
Sn 8.380522340117066 10.608851342017957 2.033202337974467
Sn 5.979180300840788 1.710313907577995 2.9497094832197597
Sn 7.801727601917084 7.37322788491608 3.4005288977800086
Sn 4.818727394477131 3.9294406635096983 4.973834614222808
Sn 10.396166000940099 1.4620128443835732 5.862089458487254
Sn 4.762327622096636 6.933443536204964 3.864989739143427
Sn 5.8984904558399744 9.885691167272343 3.8601527799521977
Sn 2.2825311890725524 6.104842872716635 6.2566164182072574
Sn 10.396994840520842 4.3598585777337355 6.922475553435105
Sn 7.89190330967592 4.061291404862159 4.903461874573523
Sn 3.2019060213538033 9.38937882776692 2.8493097217171743
Sn 8.094442814054752 0.6951845009612191 5.0101909070512285
Sn 1.8364047414069269 2.983571073548768 6.229688175046399
Sn 4.168493333371675 0.9250680777442556 5.647697487238098
Sn 1.5997009947239786 0.002732884475050886 7.150138600114835
Sn 3.7613655551585405 8.95680676002209 5.883377581634556
Sn 6.536475676360249 7.617237248235924 6.218024477672491
Sn 4.603222513216781 4.959155238621708 7.89710375444025
Sn 0.016057317993327422 2.0612294386194203 8.944077963404945
Sn 1.5515980469660529 4.731289537456103 9.048697205906748
Sn 6.2380466606341605 2.326396358004753 7.3027621819252175
Sn 3.213103663222362 2.05305158551506 8.945822213691764
