33
Energy = -115.3122974 eV
Sn 8.913505764677389 5.986320094002903 11.71269321955371
Sn 6.982193882964576 8.347045527726019 11.375433969363057
Sn 7.592201106380931 3.1986586835436372 11.103469387283063
Sn 10.194826357124501 3.9012771882214774 9.507226529635544
Sn 10.855270635181558 7.187620288347243 9.619834110280975
Sn 8.43586369545145 10.836570773567281 10.793432921995489
Sn 2.732542633879175 4.157032805667913 7.463150870732965
Sn 7.443861664672759 5.627405283811717 9.032488431063657
Sn 7.724058833616055 2.481685293225086 8.09531173950855
Sn 5.068413560482537 3.505617497550735 9.468085867649839
Sn 11.731738025700519 5.441254692235961 7.380561229578254
Sn 9.131923037352626 7.7681313466673565 7.200751662461147
Sn 9.537458634349461 13.241141688142047 9.07415272820795
Sn 10.615833246693994 10.226261903207412 8.69929857170008
Sn 6.735783366717499 9.345119370101413 8.469757344062407
Sn 6.489291580571296 12.573559285786807 9.285984125743582
Sn 4.201330303514725 8.607316700041732 10.34716921008924
Sn 4.56521924399871 6.450098317526877 8.278107392910602
Sn 8.117812448349337 11.703629502037813 6.790668453104926
Sn 4.023489000869918 10.895902303587997 8.472713412753475
Sn 8.94002911586084 4.758291966899172 6.194120654820691
Sn 4.097448955240672 8.8978723896919 6.288812639277375
Sn 11.298982780128235 6.959866893222201 4.809411045901366
Sn 5.4184317587366895 3.658185995156321 6.209910976159766
Sn 6.472903360105766 6.668009679018694 5.483948302102056
Sn 11.219856147031528 12.454853997613263 6.742981330531919
Sn 6.979980922495896 4.0840112827681185 3.5253011615583647
Sn 8.412489722471076 8.778935033289718 3.7346519151638393
Sn 9.187291736677695 6.063115312670019 2.9676696375442466
Sn 10.662869890061767 9.821840741765408 5.396224737043383
Sn 2.904771917061277 6.280403338403897 5.377229103092936
Sn 5.443745531291712 8.88273928471308 3.624186902073297
Sn 4.679692907059419 6.031427744504385 3.046922346829847
