36
Energy = -126.33300328 eV
Sn 9.804511347029909 5.51140205399584 7.561979412352347
Sn 8.159628806199 4.4845847686498175 9.905034898999673
Sn 9.298748415378853 2.9859473207021985 5.644563573695672
Sn 9.97877129759197 8.03318770520939 5.741546558488004
Sn 7.193721467734978 2.3914308468828107 8.085060262600733
Sn 8.469967522740452 8.662255783072727 8.452206201310325
Sn 6.678799941799812 0.55387322538612 5.770967062701718
Sn 9.90271443872609 4.492743221343352 2.936803056913046
Sn 6.743717922351887 6.181504842221701 7.8560713491757
Sn 4.976055005949739 4.750528160894905 10.116797613264387
Sn 7.9134770509816565 5.693642157600176 5.093161245137101
Sn 7.495751990756631 9.895659235644885 5.774089490476481
Sn 5.756287417717315 8.226579363489213 9.884885178771613
Sn 6.402484551718376 10.977250126107963 8.463695925516177
Sn 8.84544993150987 7.477132467137569 2.817875849061347
Sn 8.881738208433244 2.7023606209295776 0.8094533751149606
Sn 7.497079751910129 2.114676057099213 3.2613074238525557
Sn 4.394269218887509 1.9105873737974766 9.020741703039128
Sn 3.7179041278363223 7.165233506184657 7.261066545210433
Sn 7.371222586001848 5.295303122059524 1.145252770298879
Sn 4.814195214446662 3.831472920287395 6.628069987487984
Sn 4.498161309567408 1.7880007213532436 3.697411970852143
Sn 3.5552916432932458 0.7003113026713279 6.373497411932532
Sn 4.542705351520986 10.894109326722615 5.859674640050995
Sn 3.490226873026732 9.845800451554577 8.61455675845305
Sn 5.899333311499574 8.290228276764973 1.9036748005177386
Sn 5.397334922911568 7.867450199732065 4.844393181782666
Sn 4.450171452358508 5.726621258547626 1.0950253633584683
Sn 5.452985181807384 4.685229708951995 3.695933328376549
Sn 2.3112582875280405 4.7067511295136475 8.633456752103312
Sn 0.6910674087382408 6.817917003373454 6.870962977166065
Sn 1.606440426411793 9.625828511255621 6.153180727857175
Sn 1.9247706724113405 3.2162348369773657 5.955826195073875
Sn 3.2432634045050066 9.541457310652868 3.3564032198562015
Sn 2.4678378792858195 4.2847988415516465 3.062157509595393
Sn 2.1815658470397015 6.973478670252325 4.335378386989511
