32
Energy = -110.88072631 eV
Sn 9.094228441402075 6.4194714332146345 10.480067000112589
Sn 8.92246410967982 7.575542112936337 13.161255831083334
Sn 11.693598038837393 10.224645675601867 8.53011743799486
Sn 6.26099922096497 10.96266092958063 8.731318572286025
Sn 6.803274069647273 5.957398933341624 8.658964522774383
Sn 2.8222543702702314 6.968252796633702 7.13922878582968
Sn 8.72892613985343 10.440305861997805 12.680928556609153
Sn 4.697998993049524 7.949560312731526 9.374825452035454
Sn 10.65190706311496 4.020245875345495 10.871621252197563
Sn 7.450939123400955 5.566862393287071 5.543380848055636
Sn 11.571651092924244 8.885428165913764 5.795355460476721
Sn 9.213384879000085 13.628944364046403 6.059257992936948
Sn 8.81210637214361 9.263037502420573 7.429295194599689
Sn 9.949565033995425 6.5880260996637645 7.195985294857951
Sn 11.075264059729225 13.340286889949947 8.724565934816662
Sn 11.949135405400202 12.08831659397627 6.094912471686162
Sn 9.064026046994359 11.188508868540604 9.903306573474676
Sn 6.089430149463185 13.153085784220973 6.712221589565062
Sn 6.703097887345914 10.50778292493416 5.495946301325041
Sn 12.009117787918196 11.646883590998378 11.5551487795677
Sn 2.9481508623347423 3.7840593035120254 6.853390721914191
Sn 5.9836683856839 3.441251563992807 7.107903115010779
Sn 13.298686347976423 9.077350769130854 10.738969149869103
Sn 3.8603880551794343 5.014518135103845 9.367367437644537
Sn 13.369994323998307 4.105566038258568 10.216675370407684
Sn 4.519564973512589 5.281638825922599 4.854648656865623
Sn 11.97261012791166 6.479898224091562 9.443463341881522
Sn 11.512417097218671 9.01925390495998 13.206471087578091
Sn 5.698003621343361 7.8150014785609825 6.458789050868908
Sn 7.98041236834439 13.798756627581804 8.985978655579668
Sn 9.533964315828898 10.721244034745869 4.670581158475776
Sn 10.830224800974761 11.76894671515933 14.254542426548625
