30
Energy = -104.87665554 eV
Sn 5.298399184713333 5.176434581984155 2.967135603506548
Sn 7.955025768806925 3.9490917886173413 4.015211986863667
Sn 5.200217176009034 8.40078700526423 3.2327671364044472
Sn 3.7775654167485797 6.590292651335221 5.452507668874479
Sn 6.8397741610208485 11.467954934547002 3.6201812326749803
Sn 8.325962468863558 8.705355148047989 3.699669656822452
Sn 3.1127910745282463 3.6216094160425905 4.294541624514214
Sn 6.860083087722204 6.584799706456574 5.259261550862245
Sn 9.407413312499896 11.076981269500664 5.30001033018182
Sn 5.499994555138285 6.300281430513709 7.991151442129307
Sn 4.696401430743085 10.381519970946231 5.444775655089808
Sn 7.077449179697017 3.9049095348416003 7.039447238705967
Sn 10.153493281088881 3.981714458075505 6.217268889984931
Sn 2.1985819029622977 11.475425904222265 6.49192621799388
Sn 6.9144418471350315 12.466111035531126 6.597167287919514
Sn 5.656817089166912 2.0830610381003685 4.8030648097507305
Sn 6.257332423790596 9.590023401502057 7.834992845584163
Sn 3.911062883374693 3.713362205891517 7.142539727304559
Sn 8.824395927734148 1.3554502996360116 7.818717017575733
Sn 8.861213792946387 8.456449346588434 6.861367220887903
Sn 10.846547297062573 6.425303018320322 7.815468601601889
Sn 3.144540447252416 9.467900250734305 8.453292155375989
Sn 11.576121910268531 2.7394912715577804 8.566024857284601
Sn 8.845854620454757 11.080859170016153 8.424512846220832
Sn 5.08861848830597 10.3673961240292 10.45689906418742
Sn 9.75513418440943 1.9371768376026746 10.726690110279128
Sn 5.644057259350129 1.1394258097597667 7.680372387660922
Sn 9.197750049550361 4.625839181506305 9.426345300604584
Sn 6.8855540816052185 2.637722588152092 10.06629134130238
Sn 4.28700696856824 12.396871892195618 8.399999463369037
