35
Energy = -122.89568275 eV
Sn 7.349085780819431 14.172781975710995 7.179560216612058
Sn 10.216424979281244 6.138150672200237 5.040259844758784
Sn 9.428257291631365 7.111706757855247 13.240049491959933
Sn 10.23878541897916 5.29351949461149 10.632450413809302
Sn 13.43486855959523 12.48083016723658 8.858633715137188
Sn 10.282763974838092 10.441230353065956 9.6196591398634
Sn 6.529256650079248 6.271223572775382 7.319408766584152
Sn 7.9952852317515175 9.296857671869537 11.642789133757637
Sn 10.44466138030382 11.197303935361694 5.312548673687296
Sn 7.49979017986545 11.144874961499752 8.528303239889103
Sn 8.15985816609752 3.0536374428771627 10.159459279628305
Sn 10.159796222524815 13.171620745086223 7.723040168106961
Sn 6.5117356328741804 11.874008344285802 11.528440386740556
Sn 11.235030159222884 13.304030172768154 10.784753963737867
Sn 10.45190764651886 10.97794631827419 12.602231686793031
Sn 7.594688020466179 10.304819252898563 4.7343766597796
Sn 4.985555393653869 13.005006901345737 9.138174379537606
Sn 12.659233889374015 7.245646026241277 14.110988428165943
Sn 11.808097159908115 8.206111531550086 11.369854222901763
Sn 12.0838317468917 8.586852568052786 5.112544796966444
Sn 9.353772514250064 4.904984355774718 7.727296698134549
Sn 5.623340286181648 7.535388942894995 9.88061091980701
Sn 6.25852403958835 15.736811888993925 9.451307937851743
Sn 12.393384378993172 9.92243013670006 7.685248693640467
Sn 14.766838935634107 8.09093947705227 12.216838214366803
Sn 9.309836131106081 8.611055625154291 6.563345447944613
Sn 8.288732866185976 13.869714980075393 10.40440295430172
Sn 5.248463219043998 4.421491637371739 9.552159063818323
Sn 5.593632864099219 11.978282962463576 6.327498773633506
Sn 13.093633425338925 10.194255343230044 13.970717449085711
Sn 7.223315930142638 5.524858116005884 11.623176983318373
Sn 6.925299772315897 3.2238818057415264 7.389206059093144
Sn 8.634398586075879 7.4924925752512825 9.249905983569883
Sn 13.795434441613093 10.637438003906805 11.117197422120022
Sn 7.441282609018538 7.2575212277333705 4.58631135518364
