39
Energy = -137.24383504 eV
Sn 9.598316963372936 0.8568619924583087 2.7745326145238907
Sn 8.67721879825782 1.4819032777897905 5.661098633740366
Sn 10.170864131422903 3.6074055225182478 3.902753912751503
Sn 10.258895541007346 4.919116115317007 6.664006586654802
Sn 10.41227567189256 7.816041984742348 5.25777944380773
Sn 10.891008388563932 7.416016121419004 8.415470886128972
Sn 10.420616331773049 10.293450952694124 7.297366349900821
Sn 8.240522732589753 3.209275665003599 1.3214737041180324
Sn 6.64424349510311 1.0632147188173986 3.197493424922583
Sn 8.446837630846712 5.937724004898078 3.072838380272756
Sn 8.023865008923705 3.8269858858620567 8.404682968055432
Sn 7.361514213250695 4.554234167476635 5.470583901095375
Sn 9.156887928980368 9.494687885221644 9.987917708709798
Sn 8.394868178270576 10.114719660365562 4.84639338214446
Sn 8.384000809819831 6.466270517569736 9.975542331591374
Sn 7.912332917033106 7.715019938089564 7.056884718835391
Sn 5.737520602490664 2.0709145210890414 6.1160259799346415
Sn 6.487602939079659 5.864335428523805 0.73930068254397
Sn 5.654630160722649 3.9138222053751366 2.7270374713924967
Sn 7.336564636397214 10.920086762996274 7.753640032471858
Sn 5.0158520409883804 7.324964517049389 5.249191670664667
Sn 3.5616441102245497 2.2565023391716297 3.9642385424170175
Sn 6.315047092417696 8.586899984951447 2.8305871175508863
Sn 4.16575691927378 4.895774512938716 7.040781933598997
Sn 6.165019837078155 8.635356192193223 9.467585117753854
Sn 3.5839510216484376 9.965645265079178 2.8180340637880246
Sn 2.2374975515721665 4.97751126888284 4.332706515959042
Sn 5.479142652343452 4.754438090342993 9.746223198560747
Sn 5.336445054113196 10.595089771179506 5.224690007895818
Sn 3.7102947729461233 6.866790672041801 2.4236892503328886
Sn 3.9676198371724856 2.217319087385514 8.746068941052123
Sn 1.8399974797016974 2.6483262128911047 6.758238129532921
Sn 3.595883935093646 9.080402418254536 7.26919604485367
Sn 1.9391697555404541 8.37868709617254 4.770762859741336
Sn 3.3422679304262344 6.9350182531025695 9.552693118019723
Sn 1.3446927507861832 6.284634663886986 7.43718259399221
Sn 11.268182223235316 6.274646167884799 4.992076242974265
Sn 10.89100838856393 3.9847210299688856 7.421749100498741
Sn 1.4429148599331942 4.038364615120909 9.5343797100097
