34
Energy = -119.77035924 eV
Sn 7.733743083088443 7.904690941741921 5.140314016535313
Sn 0.7342943920755259 6.14235442370517 5.874141108242992
Sn 4.949026802896153 7.039047054695378 5.228800500755774
Sn 10.163162243216593 2.2533834932280676 5.567749172861752
Sn 6.987751373657312 3.41263301837715 4.883735390939729
Sn 9.090485461048441 2.948852383176385 2.7973215510638423
Sn 8.548353065065424 10.494805495284854 9.55244793023858
Sn 11.61459267296324 4.569143352147583 6.732685303246458
Sn 9.27559783409729 8.19711559878386 7.701246380814402
Sn 5.968061999315733 4.515900437508646 11.343951809186427
Sn 8.598023954387594 3.6358618780605685 10.106354043789677
Sn 5.745690682832965 4.976544389072071 8.375818713967435
Sn 7.688169889032411 6.8750512863758155 10.592768286695074
Sn 8.046998133188511 1.8456969061790973 7.654454037661318
Sn 5.369372057660059 10.467050518893823 6.294893758113515
Sn 7.248514468549868 5.5266664977525055 2.776174528964394
Sn 10.504086796084538 5.989382220928994 9.268003745525078
Sn 1.2912309124080588 7.0480947822138695 2.974083812560705
Sn 5.651471732475217 11.345930184355387 9.257181629963391
Sn 6.314873550519618 8.487023591345483 8.386386848472988
Sn 10.068488249722241 10.794171898813396 6.521317981790606
Sn 9.942634702479634 5.4416763264401355 4.3707186686527235
Sn 3.1186000604398143 6.884029721588025 7.650911239410919
Sn 4.97458414132526 1.9955248658781468 6.604247735408276
Sn 7.546733541408392 12.532150549334371 7.19166048846524
Sn 3.397977987477465 4.459053323620366 5.81073376238573
Sn 4.065750996471551 5.3697076537445305 2.736883684690655
Sn 5.689649010738777 2.0648627478497406 9.571370918919897
Sn 10.134175794952558 12.818723440905234 8.642608989926652
Sn 4.003338511445445 8.400171357830667 2.7618921937960472
Sn 7.8134688725272 10.899549339363938 4.539432116157348
Sn 2.3254544008691744 8.825933009176353 5.383906950439708
Sn 8.55078005371545 4.907348103856186 7.071911981954129
Sn 1.4776950338981079 4.066514134127109 3.611844537315664
