36
Energy = -125.39940365 eV
Sn 13.647436012241545 11.421586065026082 6.474330412465584
Sn 14.340487171046355 10.093160039829408 3.663153943712551
Sn 13.796414625863845 8.433991628315463 6.177728615262101
Sn 8.853649112395052 9.627598946082093 5.249715517308545
Sn 11.06658070483242 10.129576777615965 7.835671357944688
Sn 11.585609843881473 10.519588295265809 4.535856391315159
Sn 12.568871915964877 7.676962224944959 3.5235354414960045
Sn 8.316327002353406 11.43694344744102 7.477962338235851
Sn 10.885679183864585 7.527734736155269 6.427301395583284
Sn 9.324810215014146 6.826781456023672 3.9144571015803216
Sn 11.083657909449471 4.888590599728444 7.733342703794186
Sn 6.576470231892558 8.53615179763545 3.3289407469197614
Sn 7.642374390331981 9.241950938234366 9.296488818706555
Sn 8.475196237963374 7.389989083365801 11.642547947277222
Sn 3.724116095647014 7.476618329877473 4.517772984737327
Sn 6.499619131613346 7.0623392760662 5.942966006272684
Sn 5.837369646241899 5.714196516418427 2.7721470602390905
Sn 8.333072878086794 6.442735622428129 8.5775994078546
Sn 10.457729272086844 5.337418168830505 10.606872229643944
Sn 4.652718764690665 7.726181777303589 8.342486535363923
Sn 7.669561987157326 4.301894070719941 5.075187574882018
Sn 9.24173496680385 2.5954755433537433 10.765835921265115
Sn 5.265586803608249 2.9334029081103945 3.7787414461177535
Sn 8.4413387487518 3.523531524106318 8.073447944954454
Sn 5.344531169128405 8.878551806838281 11.159010626602662
Sn 2.8883141805339987 4.819785839543767 2.988034496850622
Sn 1.8337303300331287 8.51585617601686 6.974046284019408
Sn 4.473971438177816 4.707349628305621 6.05776971259297
Sn 7.233738714677572 4.744536239747543 11.070866034196401
Sn 2.7592419128385366 9.689947466122392 9.82299913781282
Sn 4.882287240679494 4.882615602241682 9.141310367605547
Sn 3.2715578553976647 6.738560394929241 11.21137961935078
Sn 1.4735930201769663 5.525416545909158 5.560313981551057
Sn 14.340487171046354 6.654191280925924 7.42410904082557
Sn 0.5790361892797312 7.664060101349811 10.006300080314931
Sn 1.8427684005209737 5.121575862860666 8.678316547295731
