31
Energy = -108.17157201 eV
Sn 9.642535043992417 4.421465069823021 5.976939250975176
Sn 8.708397649147946 5.188269858391047 8.737818198737045
Sn 6.239994670589171 4.988700115859233 10.55028799062666
Sn 6.717181984334995 3.569777145210141 6.678537422968315
Sn 7.6607703206585605 3.7838603453743147 3.771101371728034
Sn 4.890014878390929 7.824538871950526 11.299657138375414
Sn 9.28134170867028 7.484259109301798 6.645791009134263
Sn 11.488262792174798 7.143345618322466 9.42311831663987
Sn 8.8558301946294 6.750247912096032 3.7072852592573122
Sn 7.121033146964907 6.617214232332043 12.868161991801651
Sn 11.179005530422057 9.720221533664084 7.697275061369482
Sn 3.429940819624411 5.579669724757399 9.833382252561877
Sn 13.747612912989513 7.941770150917858 7.565613531388231
Sn 5.993078333913247 6.0268702683606765 4.560502160263232
Sn 6.170406728174918 6.712237882018969 7.578055090550905
Sn 14.37239031225923 7.0534274882688255 10.420710390162931
Sn 3.8428604672899853 4.75176063937728 6.869668939590762
Sn 10.050219817087353 6.676411479466784 11.961958428047081
Sn 7.742729706890125 8.055642807495552 10.105295512545727
Sn 13.401188530319885 9.943686121932386 9.86329332725968
Sn 4.737222471372988 9.330470430691626 4.970676334570684
Sn 7.231645677260395 9.48691208448074 3.2773267752161397
Sn 10.320241305769178 9.816479149041804 10.72431695946532
Sn 3.2076637856372785 7.7523904755924224 7.619559579695747
Sn 12.499883771438107 8.410329702138727 12.43069224585426
Sn 3.109816164037133 6.831246583615029 4.617038895462181
Sn 7.353293726134405 9.84967667591152 6.31913818341791
Sn 5.352656243131927 9.724153133455284 8.564542099224052
Sn 7.716699138798237 12.2782007351745 4.657133854954437
Sn 5.115997084607931 11.71770483696649 3.1123252088459035
Sn 5.019051047173304 12.12749751383069 6.115881478771963
