38
Energy = -133.73457664 eV
Sn 3.670284202650416 1.6300534110690759 1.106256121335034
Sn 6.617392998330545 2.8475722921278144 1.0340799805927174
Sn 4.0426176518132415 4.70693457301381 0.661629352307664
Sn 6.604490107158025 6.109006957531767 1.6353508693206784
Sn 9.476557610511641 4.595202042575589 1.8303558482808837
Sn 1.6153432315639735 2.3257915977386565 3.2430866363292963
Sn 5.518735133317493 0.9462894638064444 3.4171931764895045
Sn 2.253341174404293 6.789908471033765 2.427828590228306
Sn 11.61021937509991 6.401463315920754 3.014159892134604
Sn 8.976232193948478 7.792867803601455 2.657138092385379
Sn 7.734022280536793 3.032880091809539 4.031294567345576
Sn 4.384957118069337 3.7323373775466395 3.4625862467779838
Sn 1.1557241430685055 5.017871960494322 4.713067494718987
Sn 4.895773042584029 8.516930366109102 3.2009857023333925
Sn 2.102534662225099 9.829518216076796 2.939720412508306
Sn 10.503046043292391 7.520940287562828 5.609910393080168
Sn 10.418953751605002 4.351564909032336 4.923187433070965
Sn 2.8561436936532436 1.952807393800166 5.948592624661812
Sn 5.33227922331418 0.591316490857378 6.959831535258736
Sn 3.859352963611659 6.443947732263967 5.085509130511665
Sn 7.945594686101509 2.3741639285213636 7.118807967670407
Sn 6.894702642528473 5.9026556860111725 4.6872120271499895
Sn 3.175707189553009 9.408883370145121 5.8053902545093985
Sn 1.251214719554626 3.8136321263027897 7.825201516375495
Sn 7.569123196947574 8.857274736743213 5.177227089768389
Sn 5.178339662196441 3.7619380284686263 6.797941635171542
Sn 0.39541884132474114 8.087452822822495 4.757165552720229
Sn 8.595439355434182 5.469305902925943 7.191821035953987
Sn 1.8803483782652268 7.0685059156357 7.357891009088525
Sn 3.2211251034434514 1.5610822561206452 9.030565902583868
Sn 8.596815167969341 8.46521988545101 8.316762878670653
Sn 5.54879218583601 7.0466002933492575 7.738650811437941
Sn 6.061505195969133 2.6642190740878666 9.648759731909593
Sn 3.79533569733307 4.61616879933384 9.3894543867052
Sn 7.281424724929107 5.994224818157284 9.95864123074359
Sn 5.910510900337661 9.997843913541114 7.506875839053865
Sn 3.453872991585661 7.538627530009958 9.99107249778802
Sn 6.19450083344449 8.796230224931051 10.385262840276006
