33
Energy = -115.03584073 eV
Sn 3.8983675652632064 9.640332161953761 8.960884787861167
Sn 2.2605499827480506 8.359694606018396 6.758295532849672
Sn 10.065275290754228 4.3764115248328475 4.400512710260253
Sn 2.8758931024930914 6.281463906104622 8.844047412609449
Sn 3.5003176630049953 3.3710661001800575 7.638879338289772
Sn 6.133181471946077 5.68316450952278 8.145362993469424
Sn 2.711202027942315 4.7738270400247345 2.2199588276471025
Sn 9.209772268471802 6.978301135346791 7.669785818898995
Sn 9.260461490559026 2.9727821409701867 1.751019930251412
Sn 3.5988633983296223 5.227217369291838 5.319005807550289
Sn 5.393477948621969 7.427175954101543 10.613169568565143
Sn 8.956179461068748 1.4631183761822768 4.332966688420834
Sn 7.21858912087252 3.732260377794561 5.504443400738898
Sn 5.329557346164966 7.980312469325844 6.411500667757253
Sn 6.5009146228191215 9.612612700006833 4.124406187275777
Sn 7.0882112402695965 9.163093792892894 8.638242649477053
Sn 3.4353488863770947 9.289974321213714 4.039539335554921
Sn 5.205631761819301 7.750204951390441 1.891542886584117
Sn 6.302880974392076 2.1179601902350718 2.758430048189196
Sn 1.0124434016510075 3.457862172108125 4.212558744854337
Sn 8.332356791811701 5.885520009678065 2.1142850920553014
Sn 8.242318784856883 6.595907682525451 10.5848773734726
Sn 3.2973514482614346 1.8211973720560262 5.054386418726607
Sn 6.343788950903187 2.4899213887566227 8.122799443593829
Sn 7.887471671254661 8.856201671695262 1.6096659243192188
Sn 7.862976430697054 6.710047102817603 4.889376567192289
Sn 8.765682719264317 4.013686451639823 9.038489399465231
Sn 10.984876244592444 4.603569827822642 7.224038199807997
Sn 5.571240592139681 4.988692882288973 3.1229529635446815
Sn 1.140050175073872 6.634952169499351 4.352402611199765
Sn 2.203482775033661 7.7320101216533335 1.6808979924352594
Sn 2.6041644653301907 8.072068013913599 11.182102214252438
Sn 6.1409971789069955 0.7926135893502563 5.558808621185051
