35
Energy = -122.34640057 eV
Sn 8.002079557409493 11.404219501072939 10.657510519752805
Sn 7.018339936483 5.904479622171218 11.05746427327438
Sn 8.152446018673372 4.180787412028771 8.669267885907244
Sn 3.852084334302461 8.039138033256028 4.280776729222808
Sn 8.981338833061788 9.360083274947424 3.2551142034583775
Sn 6.3289633415330435 10.033386675759205 4.859496052546372
Sn 6.461801172104999 9.995154576365339 14.773839933377955
Sn 10.413843582458219 6.918085651206084 4.165537100821746
Sn 4.782976007435199 10.975484591231044 10.372615984362364
Sn 11.47248452353617 9.827555997779582 7.361565232369371
Sn 12.411003448231169 6.875124290693713 6.5857084532750845
Sn 8.60834007302577 9.199239903467419 12.618583088332178
Sn 11.711085760162403 9.884135435220188 4.376916482612158
Sn 11.221309138427527 9.314280253523776 10.369032108924571
Sn 12.293795551257116 11.776926198747026 11.52098010353636
Sn 13.784598459659241 11.330297587900725 8.95653493557909
Sn 3.7482766718252165 10.564364283252035 13.297002365800058
Sn 4.5892373808365745 5.330809358646151 5.44301912889515
Sn 6.884485278806899 8.873366065223733 9.380184938548961
Sn 8.685518230166156 8.543861413881196 6.3201349414077255
Sn 6.737339594852236 7.121036586620082 3.7024092120828462
Sn 12.31168712119621 6.3755352081749255 10.864674829927152
Sn 7.420670026323071 5.753786501362727 6.3205541993044925
Sn 10.807069432850842 12.322565755363877 8.835931902553243
Sn 13.351471474335547 7.525631448966625 3.8823723716811975
Sn 9.709759024861572 6.453186127939134 12.416664676188299
Sn 11.386469383692292 4.851422122837275 8.417322575539197
Sn 5.971019718465837 12.484360432430368 12.889626490109505
Sn 5.154324007993727 5.6066891677309885 8.544045792157675
Sn 9.494719922977566 7.020674512450371 9.305928691726871
Sn 13.8034543526638 8.316571298709302 8.910939461929328
Sn 8.78857077905289 11.906103550529522 13.740274803778746
Sn 5.048237232163127 8.124423896590404 6.985817179532217
Sn 9.923323260629553 13.663079583051273 11.381623218508045
Sn 5.594090392231303 8.536659870067565 12.133420039416041
