49
Energy = -173.54584288 eV
Sn 4.388756772383488 6.511586378542891 11.784564115569987
Sn 7.066480897758875 4.628880814898889 11.995927836616673
Sn 4.4338402699630395 3.6702322194057246 10.521765757712304
Sn 6.022084548001618 1.6299141104022201 12.239056024218078
Sn 6.89608626130827 7.493757125295751 0.666900022352412
Sn 2.1843418798744603 7.570786337714408 1.1120168181767653
Sn 1.6965229773249217 4.806159112558052 11.987269817384538
Sn 4.449550697480023 3.990468506588754 1.2061274018030248
Sn 2.723064893899668 1.791883247520245 12.446497491909588
Sn 9.045884205336131 5.536844440355555 1.969762475502857
Sn 4.714798800563293 7.259268215516234 2.8120770101023234
Sn 7.913091532119674 2.6098773362711105 1.7895043384968718
Sn 5.066169129095341 0.5727745249491722 2.262631180080866
Sn 7.938390792885639 7.89015658968832 3.7272177235072417
Sn 12.374119140073887 6.016559067869271 1.7125096234022101
Sn 2.293249164084199 8.661152564335678 4.563107931069825
Sn 2.3527116295190855 5.379621033709801 3.5655086065652393
Sn 9.606016682985434 3.9628774739361856 4.839711349968636
Sn 0.9760100317132683 3.210457212951413 1.9753343508262096
Sn 6.9867537450394535 1.1962987460996353 4.491673331859347
Sn 4.02504620778963 2.611642905939154 4.343804733941313
Sn 6.497530526478387 4.7212717503062125 3.7903097264734873
Sn 5.457724421134922 9.29133950377791 5.128106274698111
Sn 2.075189085401614 0.5548533371576708 2.80474955875246
Sn 8.7003061961906 9.133009284042238 6.449850555266503
Sn 4.379995837349178 6.619077253196277 6.3910952493846365
Sn 1.6746570282601203 0.9859020241713647 5.887741072211791
Sn 4.61159826215625 0.26683776684288124 6.308504546883746
Sn 5.455805690531923 3.6545884889832836 7.354326653425631
Sn 12.470684380239868 3.547907037972503 5.220810682256157
Sn 3.0614435005465905 9.61823798917004 7.326501212302915
Sn 2.2757484682926523 4.119102660708552 6.908641441279485
Sn 7.7646921902007175 5.988741699222765 6.363598941541805
Sn 8.271153669636197 2.253173522040497 7.198337773323789
Sn 10.696379578015506 6.930704937052162 4.8226635062214465
Sn 12.603868277735835 6.76922854254415 4.653152462000608
Sn 5.974943601486985 8.726875186720775 8.187702332849481
Sn 11.288094158695804 8.045849078990377 7.662417694051136
Sn 5.928334073178089 1.0209139307219133 8.931732758133862
Sn 4.873931040288126 6.26487530928092 9.57481340656653
Sn 2.672010264659229 1.5778024550626613 8.86561421383994
Sn 12.273851886717758 2.6423766606908297 8.210425026521651
Sn 12.18355777953886 5.6051242640146075 7.607939988832381
Sn 2.101361279594235 7.012144226424994 8.544591293989319
Sn 7.747046984689788 4.370323975710079 9.35549046638966
Sn 1.5416499788344245 4.257842727319321 9.99658878200289
Sn 8.753496493971488 7.246014450058471 9.08134591742357
Sn 10.6003639876101 5.060191197766365 7.51078200885158
Sn 4.91575586732938 3.37652516201872 10.521765757712306
