43
Energy = -151.44455351 eV
Sn 6.463056781687327 7.198661477237691 0.7520749822727062
Sn 6.122450549722397 4.621237911866314 11.414222636288663
Sn 3.3206794605422547 7.904670998100616 1.6904614734287422
Sn 5.254521469017604 8.65466649897536 3.7669820545539925
Sn 1.2345970332308276 7.951100089098643 3.9589541484066895
Sn 9.194815544173553 8.215967789780903 1.6074264036235992
Sn 3.776821264306827 4.868922333945275 1.1543329012736205
Sn 5.166810654984758 10.69495837189427 6.039064565771574
Sn 2.0643418597441365 10.018053115151234 6.196043586187849
Sn 6.48318989609639 4.741565532726633 2.650281077773107
Sn 7.944579966060814 10.151524216057945 3.6517076667549593
Sn 7.221991982681344 2.1093760225996587 0.7921963397329914
Sn 3.567371402259051 5.8028131976368496 4.120687658362746
Sn 10.443595144872162 5.896320594233581 3.063419074217499
Sn 4.988886233826793 1.9050692382973995 2.8437913841498093
Sn 2.194430743633168 2.9082278266973667 2.8444920445383066
Sn 1.3751879656549817 6.856580252903769 6.676687380498566
Sn 4.278433197904141 7.747957460270791 6.753117661894509
Sn 7.781551072175582 7.0582926582934205 4.242057691492041
Sn 4.134195258292879 10.098095733227458 8.854723553862842
Sn 8.944130580931152 5.0866895454719705 0.37836380193515856
Sn 9.10088783335255 3.163691180254429 2.9230007076511493
Sn 6.790761447780297 0.40528219951167904 4.7325670339452
Sn 1.2804619834556108 8.858193661425847 8.862811796979948
Sn 6.093203317014876 3.417585026312997 5.593512465457248
Sn 3.0464855753990636 2.9363792224629437 5.6624957324610925
Sn 1.5124015571050462 4.0180890853069196 7.978926864197223
Sn 8.169194494736324 9.490168197215242 6.605924418511296
Sn 4.464331426295372 4.764893715825362 8.362843586215524
Sn 4.691048874026496 0.7247215271501554 6.866872525675563
Sn 7.321894437458922 8.894764346702608 9.460289665418996
Sn 9.711830829520032 5.278978056878856 6.121580404402001
Sn 7.082131652908422 6.509685660413654 7.412175037818185
Sn 8.869575407883524 2.3263676505342783 5.84514380392518
Sn 4.072762440107189 7.346290463703599 10.105469176900595
Sn 2.379997807790084 4.916319381308989 10.811934043874468
Sn 3.4245752960719535 1.9164905240306007 9.411170163862382
Sn 6.537035816260146 2.495425909855724 8.775180930965737
Sn 10.176170216803278 7.672126005113846 8.063527980690925
Sn 9.459266374578489 7.168667426234301 10.955566868190408
Sn 9.088049590320015 4.7261730979633665 9.046440005323706
Sn 5.038037582014076 3.508962421401952 11.414222636288661
Sn 6.717701190505803 5.962175926698932 10.741962130254311
