41
Energy = -144.62158987 eV
Sn 1.4327919442784982 4.009268459588413 8.29748609063578
Sn 1.4993370387332479 6.991947982073241 8.596382373540095
Sn 2.1106298840635573 9.123220333008526 6.423790726217374
Sn 12.097674044370724 5.994726616923732 6.112790291282266
Sn 3.978988241253604 4.135583198091847 10.295790270864398
Sn 4.167438923102321 7.1320686319133655 10.385376282413453
Sn 0.12897565404132316 2.931293504209497 5.716918016043145
Sn 6.77153707755657 3.066993047520719 11.182344758170682
Sn 4.1438466988496865 10.842159619823562 4.24529645429977
Sn 4.743379506016196 8.678758372791409 7.791021234721458
Sn 3.2454573621580014 2.632745872798689 6.044522668046567
Sn 3.119432553154318 5.875873489850621 6.218927889998755
Sn 6.899907465670749 6.084770019353752 11.123583461813087
Sn 3.1073096192402083 7.8191941639879525 3.788439990075206
Sn 5.990744548769729 11.615602811905955 6.507799352549486
Sn 1.4863219074010765 5.022575814865881 3.6950039708708196
Sn 5.638296376533279 2.458438496286264 8.294250335657383
Sn 5.6765991276317695 5.618264193870591 8.089836709539536
Sn 7.483319446955977 9.801856664239727 8.603512164930322
Sn 1.7628314617672665 2.034650556726177 3.168992456172452
Sn 6.216840997648659 8.51985095730541 5.141897425284843
Sn 8.524849678515487 7.006148372231595 8.61842495783498
Sn 5.627807272637045 9.335083751605573 2.0205128249563584
Sn 5.798692837176359 4.145205374332558 5.031116416272778
Sn 8.753189573076996 10.403200747924863 5.872820876382015
Sn 8.372562184487098 3.977402401789325 8.887564936540402
Sn 4.541404429557918 0.8572105042888309 4.0199388957178375
Sn 5.488886075035149 6.217567741633097 2.8097800685254897
Sn 7.0914888560861495 11.655915536395637 3.54454840035168
Sn 7.23555044072856 1.5505860813573487 5.814936516240687
Sn 4.323114025521103 3.4626815246837306 2.2268713567298444
Sn 8.811518037336425 5.258073130199095 5.608733865078162
Sn 10.931029832277055 7.228873893090418 6.739347049175969
Sn 8.49957106019667 8.730310316285657 3.0960982492436115
Sn 9.995401918073702 2.6188673004732363 6.7702505529602846
Sn 8.444186093361695 5.375513862462408 2.4711000924990474
Sn 7.176690956630008 2.4143268272563434 2.8527459029190263
Sn 11.183342345776385 9.254982274989802 4.546273695426841
Sn 10.32860209129367 3.1693720937324112 3.6597899275497876
Sn 11.156050578236178 6.245761285161734 3.5752159397546275
Sn 12.097674044370722 4.587916713010156 5.993893767908716
