47
Energy = -166.4704091 eV
Sn 2.7465011876479393 9.882552111803442 3.3465315474215527
Sn 2.3026595815243103 5.493909592069547 9.0312726660891
Sn 8.54382207906967 0.7404645868910612 4.650966610682944
Sn 7.714698236822796 5.1432054114284265 4.527012548109972
Sn 7.63628785752903 5.464344366409377 7.612044115194039
Sn 5.680344842173775 10.937235766075728 3.080127800994338
Sn 4.269950473353798 10.672832089147763 5.933052367670818
Sn 3.9101662993625994 9.077023422072319 0.5366593407176053
Sn 8.087719314386172 9.337281523165966 4.325765964075079
Sn 5.695421751268998 2.4336969781288342 5.99470189767908
Sn 9.902657815200353 7.2343323300800115 3.418152889999745
Sn 8.642807336842017 9.122292395712684 7.585273313011141
Sn 10.225215380067143 6.209370623674443 6.200253452528866
Sn 3.8175683839486187 12.540152230597528 6.2511729689923845
Sn 0.0402838573692029 11.708838275789418 2.8146976063393145
Sn 8.492700995778504 2.3468053226807926 7.2975802642117324
Sn 2.0926106931688886 7.220989765241628 4.894917434070724
Sn 4.761232691887486 1.1086968562278674 8.651119122743145
Sn 0.6720428992779406 4.941376364348056 6.511267637834594
Sn 4.961446640622355 6.087478747407639 0.5102046945408979
Sn 2.9941313117682933 12.492573773196382 3.030981765445276
Sn 7.1067013883460755 12.463672996995115 7.1404752746147215
Sn 5.922054241626991 11.934773873487005 4.117646144506332
Sn 6.05512845790389 10.66715328703089 8.489575376815806
Sn 8.769321389027779 3.0162496435606068 2.3770840756220832
Sn 4.965115152014449 7.56503109369104 3.286788802818102
Sn 2.073044410953045 6.927025776536085 1.770767389493799
Sn 11.963368655117891 1.5727336970048291 3.8092089582643935
Sn 10.256208225398167 3.4037727481945557 5.007280841724018
Sn 6.409198371498333 7.77540421321468 9.300184280390734
Sn 3.9798974906124136 1.6342073921600893 0.8524432300392091
Sn 6.121400706834214 8.004010421425686 6.197805552161127
Sn 7.9534721338249765 5.90073026289645 1.5716553361361383
Sn 3.825079073070566 4.385905734007709 2.903180275571736
Sn 3.60123606772126 8.189359409840304 7.799247832772522
Sn 7.291035790775302 11.70883827578942 5.9266881492800225
Sn 2.021523630872227 2.5097996548881794 8.559623374756901
Sn 12.477621042284332 1.9669010337465564 6.779680705517613
Sn 0.6617979099638449 4.124718852213026 3.0727980545961024
Sn 0.9734404206457644 1.3809412324258497 1.3457850274167438
Sn 3.853713795326928 5.127173049496712 6.286339112148025
Sn 2.293503247401868 2.3774368442867293 5.116482603137793
Sn 6.9653352473690155 8.877965770220298 1.1657255456806024
Sn 5.004287623072516 4.166028479841021 8.924595069693948
Sn 6.030375204736848 1.9814976189236104 3.03462250771149
Sn 0.8118293179069475 12.364471719486845 5.627337290670694
Sn 2.121834732774483 4.023487037636511 0.2575418887562734
