46
Energy = -162.93904249 eV
Sn 3.8020373889868697 5.581375036512315 11.155043648857767
Sn 1.957536827108364 3.0754532302125814 11.455934817189872
Sn 1.6216985664648016 5.316180420832285 9.181314601627792
Sn 6.6921313975424646 6.54715022051979 0.5240263455697423
Sn 6.5329831175929085 3.7846228069733927 10.70632148541849
Sn 4.754922802846402 1.7442557577932778 0.49672680569055644
Sn 3.5714497650559105 9.582259918459526 2.9516155902932133
Sn 1.8841570741562537 0.4072435456804934 3.853749175136755
Sn 1.408267972426374 7.765960459636933 11.04956612811587
Sn 6.095880964630013 10.81383129680212 1.7276524918529335
Sn 0.570140668558787 6.527105312340569 2.0208546939505934
Sn 3.4285435739933177 7.545208081694835 1.6354117925570881
Sn 11.310235915639732 5.179065609205845 11.290909322857903
Sn 9.103687639724276 4.553828459884323 0.38691235248634703
Sn 0.16894499216306666 3.5002527126156324 2.1053379950496693
Sn 8.029944678533422 5.984269704410611 3.320687808969636
Sn 6.15428010014015 3.870319250803926 2.0375098941884757
Sn 8.054546111453265 1.6378488491951253 0.7224218058346339
Sn 10.620459046067955 6.856115832660682 4.485723179433013
Sn 4.925140115694072 0.4867523664177072 4.118913710238192
Sn 3.0001450592528336 4.539846769354527 2.258350745610085
Sn 4.648131822629481 9.128046628338078 4.31787687679167
Sn 6.059074787294927 9.130229358796308 4.76060414293128
Sn 7.976896093682507 11.40175022697745 3.953781676422702
Sn 6.140186848627064 3.3199838525991288 5.1639093852786635
Sn 1.1903550298660883 9.057801691269301 4.002535606468239
Sn 9.007827055044416 3.071312750405284 3.256855723281755
Sn 6.102557143240937 8.403838430118322 6.958483525938311
Sn 5.0253365410505415 6.220209529383119 4.907569689347107
Sn 3.256091381371516 10.094385589133017 5.9661716227777575
Sn 1.774457231729024 6.155266076623503 5.622411387447651
Sn 7.895505931378091 6.072144566919548 6.343868996738778
Sn 6.135877119300209 11.452415067388257 6.815778462675997
Sn 2.798511455487413 9.130229358796306 6.749718351550026
Sn 11.603270655749203 3.184950972600802 5.613312980038294
Sn 2.8091987119235835 3.047250785297574 5.141697432363764
Sn 3.600228477018026 11.513844250290047 8.65877097368124
Sn 11.527693823178451 8.675540609200423 6.794160112349216
Sn 10.949642174516411 5.691683636473213 7.434723657049011
Sn 7.083150177541951 3.717789418383567 8.102427633759813
Sn 8.667523679988518 1.7369685683596081 6.025066478348777
Sn 4.749391071374084 5.881919803604255 7.893893244130677
Sn 1.7777718879235949 6.942359820363198 8.671841874880453
Sn 1.304618608791869 0.6657574540231593 6.857486510747697
Sn 1.5631865126191904 3.781009750955156 8.206787871691873
Sn 4.2761070695439125 2.444741042011763 7.710331366990221
