46
Energy = -162.67359218 eV
Sn 7.498854645314404 6.541770308856841 9.946741452693983
Sn 8.641814420622637 10.313029556321972 6.400812536152353
Sn 9.435981312676384 4.982052961872589 8.233200482656414
Sn 6.476718032649746 9.129142396067474 8.638138698107273
Sn 8.02256456512708 7.427090255316944 5.531356342873974
Sn 5.36777212385705 11.160428412884162 6.559606390045435
Sn 5.308922560214843 4.080814606732641 10.026992503794888
Sn 10.353809707547594 7.978786015641778 7.5600182741669695
Sn 3.5334274663403167 10.127417011069793 8.807771965287314
Sn 4.255368454254016 7.171732733243246 9.70877839726932
Sn 8.679897979496879 2.9585688721254373 6.017670202464886
Sn 2.727143639964912 3.5622058580676006 8.429745127391902
Sn 6.313465613181641 4.390493016255614 4.295045811269927
Sn 2.051403444949785 7.405722883139193 7.616757865559577
Sn 10.627862858595261 5.805604946787989 5.25209948484084
Sn 7.1908845142023035 2.2022295201986823 8.525289586328151
Sn 8.062638105596031 9.793069984230847 3.4073999184603343
Sn 2.251421246069483 9.919418375646751 5.909994716104485
Sn 4.419296935483838 0.7902808555652844 8.927701510957574
Sn 4.867929626317648 9.905816060639657 3.84476145721722
Sn 6.434653764791108 5.136292531727368 7.379687334863833
Sn 4.785290670209357 7.834856359727727 6.3355803622737605
Sn 10.858422972696845 8.795263983583801 4.4942526300474155
Sn 3.195449011148104 1.4001897070878537 11.769539431200219
Sn 4.020790115931309 4.419736150635008 12.182551405312664
Sn 4.423983903090887 12.338717314215177 1.6599086356564663
Sn 1.5638535670012306 2.963435567804165 1.2664735498098056
Sn 6.137752081932876 1.9607765497920902 12.420454013426331
Sn 2.4942237401930054 6.343111923810913 2.0555136033475376
Sn 3.3138504212841937 0.25819282802599636 4.471336945651349
Sn 6.7754448257842315 4.803411132448407 1.0232703603686897
Sn 12.413341760539048 4.960014829503335 2.8217024608347168
Sn 1.324543777717828 2.57776744220115 4.522874795447177
Sn 6.779435008326303 1.2143480573990666 3.0155518651451825
Sn 1.5527111017252804 1.0261907706298048 7.377172622047819
Sn 4.3275077256285925 3.004375616878654 2.430312427742176
Sn 0.46900916007181936 4.840000335195321 6.620075039073914
Sn 8.93569740110816 3.6142790397065148 2.9842476864187293
Sn 6.163945098526394 0.19480987763222848 6.20909553976989
Sn 6.009464050667731 7.14898154951668 3.0546401566328107
Sn 0.5095642600065335 7.3304735786327795 4.6137104576827905
Sn 3.495764555810336 11.160428412884162 6.971419478501173
Sn 2.1425824052910083 9.299804562341272 2.8524856438375124
Sn 4.301764748655555 2.672864224539358 6.097891362945389
Sn 2.9465082585992124 5.329121584113913 4.833361093636354
Sn 9.28439292717139 6.9581696113155385 2.6124601523390423
