46
Energy = -162.84060787 eV
Sn 3.190969546469904 2.6003995401172997 11.198132761287734
Sn 0.842738522190666 2.855702436627272 0.5803481996698372
Sn 4.678666100575205 0.21273377659838497 12.356762595340365
Sn 6.759057888543971 5.774601602504581 12.401230861877345
Sn 3.6758840265742254 5.6999886004863205 0.42792807905441993
Sn 8.017056943303286 3.2583159037448866 1.2905150838916337
Sn 5.008757373610971 2.9357674452546325 1.2719390549531777
Sn 0.9250447169229891 0.36175270680821764 2.424652630223905
Sn 0.13457069334562496 4.969710060651449 2.9578577250377225
Sn 1.5998781521291192 12.466925388649917 11.86591085270756
Sn 8.13760107563476 8.478553729397722 0.16699026248437512
Sn 5.264803552829903 8.230870545375009 1.1730592344435948
Sn 9.357986937369109 6.06965018752679 1.8030815473846786
Sn 6.547092139395189 5.249043675320041 3.256472371481837
Sn 7.5626299625039035 0.27439719185764755 3.857626868657392
Sn 0.7956117796019371 7.6219651807194495 4.311321345921911
Sn 2.5515706604317216 2.91701652242061 3.1152379333047233
Sn 7.818483371524352 8.421563442124485 3.1769698665533737
Sn 3.360819043496354 5.985309361976055 3.4663802810603506
Sn 2.2872598381275746 0.5922087334558417 5.252846650352314
Sn 4.6196770764274255 0.4914445604877888 3.153672659598882
Sn 11.068145822459796 2.236237666678059 2.645504829169231
Sn 9.198237815506294 3.034431522125654 4.343705459907028
Sn 6.217243291929891 5.691438919804471 6.463167350595652
Sn 3.3595572525190427 4.226909449599342 6.136684208013305
Sn 6.274798070753066 2.4992748663326445 5.6709275181635075
Sn 9.03111564790815 6.193495607948614 4.9641067386157935
Sn 6.973960281278547 8.663771769102972 6.727974536409409
Sn 6.09505608553362 11.944070865051641 6.495312019544647
Sn 2.262893827037519 9.383393588279619 6.302897146187442
Sn 4.960125180718206 8.325649424471836 4.3686388321714
Sn 8.946832469439874 0.673038437898428 6.621654988583438
Sn 0.4988035812079628 5.523531737589899 6.3647355305708295
Sn 2.9969217838067594 10.827935938838234 1.6117530169051628
Sn 4.849733000112145 10.82793593883823 5.99451580906937
Sn 0.1600799908064452 2.823149839647929 5.249493008030839
Sn 8.591016268313961 3.747043486854344 7.366439560006042
Sn 3.541398585920287 7.067577876302216 7.6392836015310355
Sn 4.017219810963137 1.5972460902463235 7.729700701332616
Sn 6.341127997984685 6.950168458168632 9.302697948542685
Sn 4.637051769692629 9.797064236603228 9.050944114132752
Sn 6.911839506305299 1.5505163533590691 8.723327991726064
Sn 1.517200610576575 8.864027307000843 9.246713637457274
Sn 1.2987103369203072 5.8134756131478 9.374258886023938
Sn 4.217991940315692 4.573921806121491 9.43308898230783
Sn 3.6959169499775735 7.443142658989838 10.883523156874904
