40
Energy = -140.98124893 eV
Sn 8.311885677762715 1.4659784639555669 10.817926931243571
Sn 7.5991586122572325 2.9567670655631724 8.287207982315785
Sn 7.336396556279438 4.328332242008991 11.108648840098864
Sn 5.866418765498743 0.5356047588412788 9.249625881525713
Sn 10.083216392659367 3.125195002451262 6.6366539831535505
Sn 5.522655718625123 1.9530714035241694 12.050948474206928
Sn 11.315665576965177 5.180784940629119 4.6950249791411744
Sn 7.808759753597669 6.549540911055365 8.965229736926883
Sn 7.561628895928925 1.2739681155030387 5.662699482393877
Sn 6.824053710676679 9.399388961290201 9.702535352821084
Sn 10.446586861535625 6.4502405207242415 7.344831002348489
Sn 5.216739745507902 4.9830621930336045 8.536182674964145
Sn 9.09443938627384 3.1748601279487056 3.609413591790824
Sn 9.18495424304721 9.434674420814535 7.605077397750649
Sn 4.438563729347161 4.866812504025014 11.427823191258389
Sn 7.367509722633787 11.823047435276177 7.694369466389549
Sn 4.831771460904226 2.423463447036552 6.928904970427041
Sn 8.097854773100094 5.664586331492393 5.413170525899986
Sn 3.5131774891929894 2.514178015835597 9.753466646418635
Sn 9.244524777931115 6.14606871923389 2.516025981614818
Sn 5.952669428592444 7.885465340594701 3.2390586741490406
Sn 4.509597062639352 11.039534354391712 8.576568855343458
Sn 5.847759573833953 8.73595468861407 6.88395856863396
Sn 10.128992536013289 8.0733972184917 4.654674351647912
Sn 4.98611604599118 11.5189497741793 5.568461802153728
Sn 1.8064163306896281 4.82490647977498 5.583822215487559
Sn 7.273123553688254 3.740401370329107 1.0564883276521064
Sn 3.3523454816703806 6.977405303505556 6.949293281579527
Sn 4.709007112009657 5.370834047081529 4.404917096386923
Sn 7.622376940487891 10.074057889014869 4.862155835595022
Sn 5.932334421948398 2.688473617174227 3.4978692842771175
Sn 2.881938146187796 3.084023630645814 3.1771192602789164
Sn 2.2744290265381135 9.833732659591018 6.6927262657433735
Sn 6.75592011709743 6.822377745833994 0.5990191694445075
Sn 1.7418466650915623 5.841331131003568 2.53143969655832
Sn 3.429824085288646 9.311426836046353 3.9265334629326016
Sn 4.354278688202773 4.777526156289396 1.0514442698783055
Sn 0.8004941281503617 7.656465881564115 4.95227699546325
Sn 3.7857474645099014 7.719056337879933 0.6878036491011983
Sn 1.2008495478463463 8.791606731508741 2.0968539468724865
