41
Energy = -144.1145874 eV
Sn 6.019554599814725 11.038592776220288 2.8499756739202065
Sn 7.842572732688536 8.52255672625088 2.7171325471615337
Sn 5.268132501601288 8.795889676161668 0.9363191683552216
Sn 6.5469671090502874 9.573215280725236 5.5397527372161735
Sn 9.470550534782404 5.989436476826345 2.7678689942365904
Sn 9.477690084629701 6.618692534323849 5.754879681121943
Sn 11.363835425583586 4.575186627266383 6.902656352739787
Sn 8.70897229359728 8.916332125351284 7.682428189543323
Sn 3.4520076221532556 9.880935167607719 4.097692457123303
Sn 7.25381388836412 6.353547507530648 0.474540788166689
Sn 6.235868698426366 10.872614160127355 8.445736863836435
Sn 7.3677585469809825 3.6970869736881955 2.424158557265435
Sn 9.593230294200847 5.716755514540082 9.141965206413914
Sn 9.728420469248189 3.1831042186266636 4.698706132681905
Sn 5.10676306133975 7.266355358424805 3.8156975201018506
Sn 7.108263867048544 5.134621822030053 5.016700266584423
Sn 3.7527748127502054 9.903782127566675 7.178351999855456
Sn 6.860914930700976 8.57387286302716 10.230814377954115
Sn 4.33185564625425 6.274404616100268 11.518581249406516
Sn 9.77446649404419 2.4516105885657784 8.34539587524956
Sn 7.385188029747361 5.9109077090374305 11.518581249406516
Sn 4.417374262355072 4.909458952699501 2.102677377195762
Sn 6.971114507775798 4.548740040394739 8.309472341752741
Sn 5.671634114603062 7.431664892501174 7.593772220409248
Sn 7.396469455743082 2.2666061243948166 6.228995596289529
Sn 2.482484478536342 7.828153323314052 1.8088758065573123
Sn 3.964200114460463 4.645235279606635 5.657515822484069
Sn 1.7821525861812526 5.206040507425148 0.6340548280673074
Sn 4.789459868778133 2.219746185369974 3.720902660638011
Sn 8.65347216203436 3.185491295640154 11.079614835660182
Sn 2.1739632367893216 7.129887844739453 5.106716838981994
Sn 5.2552757834617685 3.757115184430746 10.768922455781858
Sn 0.8518216945483866 4.557418982161194 4.234687207174289
Sn 2.4773709100220263 7.369815030064536 8.142681653490554
Sn 6.899306852210455 1.4397843808853312 9.209603543203928
Sn 4.432792542404409 6.723609713257825 10.488979193041503
Sn 2.0777353105082788 2.5898510620168254 2.307327431900073
Sn 3.732412584746226 2.963442546620389 8.222222867342545
Sn 1.2790681972108793 4.332162420111664 7.251156844557637
Sn 4.876368176487566 0.7021548871131459 6.601459001405901
Sn 2.041782543162287 1.8834249749059444 5.434601665798564
