49
Energy = -173.38409592 eV
Sn 1.3372179393418748 5.828579279132831 10.812205549447402
Sn 3.9726931194267103 4.296689038001705 11.752570515574103
Sn 3.9604583596952083 7.424287056352879 11.403556266586564
Sn 6.438413626119164 5.746376881586321 1.4338571466066021
Sn 1.2114312349430878 8.491548848129224 0.08451779205229135
Sn 11.875722754817067 5.992925139338612 1.013504342686256
Sn 5.24191132768887 1.7685634697623487 1.4712192044980754
Sn 5.949801702691914 8.944808096626916 1.1156324697433062
Sn 8.13770467165873 2.4865488207717203 2.233103157758864
Sn 1.231762191748047 3.4115335942624165 0.6047328758388848
Sn 5.941132559014199 11.53034496176361 3.2295640973651976
Sn 2.8169240834082525 0.3751455529724955 2.943254799230165
Sn 9.424950139816692 5.303980418290187 2.41435386763751
Sn 1.5609042722754354 8.618411363479064 3.232010580660885
Sn 4.094784397741202 10.431373488687369 3.110962803993575
Sn 2.6097934832588345 6.126577947026894 1.530349129448751
Sn 8.318184285228105 8.099256867607396 2.882924082207239
Sn 0.5790821819718147 2.5791634769350553 3.5944192358404874
Sn 3.4250054648418944 3.6181435688266603 3.199603901111931
Sn 6.92397856551062 4.892272524282652 4.298358882524549
Sn 5.188960070543145 7.590402029004538 3.753991808421565
Sn 12.264184734513913 5.708984087282395 4.328385688057117
Sn 8.72017418004931 0.1942293380963965 4.238755931310904
Sn 6.089980272102418 1.9590680854561962 4.497361417036014
Sn 9.605595093237557 5.471963742603793 5.609591390952232
Sn 2.8392444126747134 6.238451524743292 5.072392459512346
Sn 10.010218997287136 2.346768033611064 6.018579509602049
Sn 2.0975870295578587 10.894948134405665 5.45603115637846
Sn 12.0349581619682 8.745917346959299 5.635217274103868
Sn 4.786449778933889 0.9986408494993452 6.95854365596221
Sn 5.094225866447362 10.052940699099306 6.006996961930905
Sn 7.839141756643226 0.1937828660894838 7.242704539578597
Sn 5.107934263930452 5.151947956780145 7.055268562824449
Sn 1.6409091302775933 3.7295393253521505 6.461471065462767
Sn 0.22351399722385115 6.268987429564003 7.504505029171876
Sn 7.434137839597823 7.889589798101184 5.834393625697748
Sn 1.7101247537485726 0.73675794628762 5.886652959750648
Sn 7.622615732648885 3.385479032541656 7.712701735535044
Sn 10.701250429678376 4.36714366964006 8.428570547082767
Sn 2.4949546262420905 8.440809340466942 7.14541481630957
Sn 3.7680441467516657 10.96291758251488 5.312512417907167
Sn 10.017193632216143 1.368045965259599 9.06330631945512
Sn 3.6165511722499586 3.047503072212978 8.81505195842746
Sn 5.4673549137997375 7.964811634698599 8.384797282942692
Sn 3.0072353009887745 6.148760476445293 9.185383822767623
Sn 6.7424679054648795 1.5082518727702297 10.020702941900785
Sn 8.099669089193972 6.227364573633233 8.854768609904694
Sn 5.894735065012976 4.504298332877933 10.381378381572421
Sn 8.867069405635366 3.6588242594864426 10.812205549447402
