44
Energy = -155.37566434 eV
Sn 1.9430866504127213 2.5569294852431828 0.6402905395520551
Sn 11.55793859605529 4.067930000040623 0.5023446459500105
Sn 1.8231349540765975 5.763562837966581 0.7192110866899339
Sn 4.571350614803525 4.3826529292213845 0.4377528147866338
Sn 8.595211408486929 4.047164816841587 1.933216836566425
Sn 5.040450949864739 1.4711388955674918 1.3309409004703978
Sn 6.594682785232166 6.319423976933434 1.6500370954253538
Sn 11.837845516088999 5.28863463858571 3.290741335506347
Sn 9.726376839371019 6.489170935461485 3.4357085239389167
Sn 2.4089282985130636 0.29311172916273975 2.649107422039781
Sn 4.6738330187054205 7.109143977382236 3.8974337707831754
Sn 9.670241727848005 3.2147034671601302 4.740909569604414
Sn 2.824391383927928 4.5362780938510925 3.4006420688958476
Sn 12.057120330252317 2.1490725925581793 2.9276036076762066
Sn 8.251133610134257 9.284354761345636 3.0812226219246135
Sn 1.7495131366472474 7.5253164030694615 3.1803195874598504
Sn 7.747224464355936 1.211805676520525 3.0242923181422423
Sn 5.827150246113304 3.7267325925251584 3.3890220440753174
Sn 5.414076652845924 10.408383877147234 3.819121782705226
Sn 5.123123516036445 12.100724173654875 4.1949617625280835
Sn 10.637174307644628 6.001599161923985 6.2913523928672115
Sn 10.06133146698658 9.285786121649283 5.677272639063386
Sn 7.570782512839352 5.491238142209788 5.438327828182945
Sn 8.061582947215024 11.765748253496557 5.069675756937656
Sn 7.025545502839603 8.618522513940407 5.808678451567661
Sn 2.2799940078801595 0.31121362355557264 5.745746510901252
Sn 1.2537833739051893 6.45273522630283 6.09870278250647
Sn 4.3739361327228465 5.7862107577870905 6.639018201589667
Sn 3.586986364233137 8.873042977039523 6.237671460558749
Sn 7.520041268213534 0.9888890903843186 6.18620704328613
Sn 4.509546555033999 2.5729739184073526 6.2152061658815505
Sn 1.1251303333734373 3.2604830525992092 5.5144557289428295
Sn 8.729714168340182 3.632808912758662 7.628894724529525
Sn 5.568825818198638 11.26348863641956 6.824912306702045
Sn 4.904130347036963 11.765748253496557 7.241618602147871
Sn 1.0103517503949904 4.036352423149061 8.537669851392613
Sn 8.815090814495866 7.535864781726914 8.146643593459235
Sn 8.372823012841282 10.65809387768942 7.9747423071940675
Sn 2.4502661437270734 6.607879538757821 8.92609066332265
Sn 5.508442112945813 8.338266583744119 8.641792377380202
Sn 2.79370702020379 1.3110780840547733 8.652069224032022
Sn 6.093206148986611 1.9761113935239378 8.882480564562034
Sn 6.497151410359913 5.368149866754464 8.830959517139544
Sn 3.8620861427584217 3.9531574814668047 9.853077844466466
