43
Energy = -151.43830738 eV
Sn 6.29198711519519 10.900008095174107 10.717076422215282
Sn 10.764724439887788 10.221248256024511 7.993782232224501
Sn 8.077427660818739 11.423246119009862 8.251388270426169
Sn 5.086014534201864 11.600039990660262 7.777815911607447
Sn 3.6857467167042746 9.485246215008848 9.673291061243793
Sn 8.752309913722886 9.055176034777814 10.177910662392625
Sn 9.596855622642392 9.002278568744824 5.455682201475149
Sn 5.798526688476181 7.659208236025521 11.231570162127378
Sn 6.213789064093003 8.585910848312963 8.2421788917209
Sn 6.697768180427027 9.85581399360082 5.5564720497780264
Sn 3.634111363548928 10.33204252438498 5.108606774614181
Sn 10.366929338739174 7.106182874623201 7.916915876308216
Sn 2.6578424652744843 7.6083905995123855 7.277942640269483
Sn 2.8854050504616207 6.399467209816242 10.347561333557687
Sn 7.680835879509644 6.052901739209967 9.160877188278532
Sn 9.342346687483907 7.038232496987718 3.086312378118201
Sn 2.6703192567275083 8.592665997962314 2.785448357005031
Sn 8.0823950960646 6.326512522738158 5.901223664666408
Sn 11.269794854399992 5.862709426284256 5.0955459138398735
Sn 5.563771561727991 9.622381171670815 2.7449320682468
Sn 5.080460748733188 4.239720536400897 10.627573624013019
Sn 10.04838269020591 3.91100238859422 7.28786462287595
Sn 4.768931034354161 7.232885602095709 4.910575249738729
Sn 4.7581043706750865 5.314333560308189 7.785866564123956
Sn 11.502062398727015 2.7566222085150893 4.863378946589499
Sn 1.9835719873885849 3.506731050041814 10.672268861695729
Sn 1.2713124432387901 4.804997613482425 7.955976762389077
Sn 1.7266786582144005 6.206562755527977 4.554030241212894
Sn 6.452846521162859 6.090238203751681 2.43118605676416
Sn 4.7107374425290125 7.692031232135032 0.46458943305430883
Sn 9.053598005132153 3.810759904435775 3.605542724909827
Sn 7.312252534606974 2.8097355408907374 8.26980393451191
Sn 2.761912951316336 5.524303383212398 1.6229011017852488
Sn 6.387017500019912 3.638085781887062 5.438231101587151
Sn 3.6083993582946317 2.396050237398368 8.491040287127577
Sn 8.869528562962877 1.3052133275476026 5.767562468568771
Sn 3.0376222421584878 3.7789819269880836 5.704825567112509
Sn 5.210430542646506 4.84130975083377 11.231570162127378
Sn 4.807089451657584 3.543969266961984 2.5695525210833026
Sn 7.459758672124758 3.2602805602911396 1.0476597208255591
Sn 5.650907409734276 0.7835645466634288 6.819654397051768
Sn 4.009783450295283 1.203170741147503 4.281322332432295
Sn 6.968395189394493 1.171709941960141 3.248909081827669
