44
Energy = -155.27005349 eV
Sn 9.322444811048431 5.2864318224619105 7.785985757540556
Sn 8.796568626699786 3.2965262629469247 10.335439858424532
Sn 8.464682677371503 8.327394260915176 9.110194099024675
Sn 6.674967002606084 5.4208354942626364 9.283793726873046
Sn 6.8982519816665 11.199521058101979 8.639492223793528
Sn 6.118385657488624 3.3947221295625467 11.717991518062458
Sn 5.523311304461657 8.72368081088305 9.833577028349618
Sn 4.213190519962689 5.843734799634852 11.12002390985598
Sn 10.507654463590944 4.325622114103286 4.852746248306891
Sn 8.633095457732832 6.844823876318843 4.634203812906955
Sn 8.980413408721443 9.994112793503966 6.5912536899462335
Sn 6.393674784594433 11.109721170206967 5.472664196375241
Sn 9.32554549312994 2.19693568276384 7.451533452677653
Sn 11.21512479019873 6.788024398433084 2.8414171062586977
Sn 9.674986551062815 9.449759862527033 3.3355352207019067
Sn 7.194824890175451 3.970406859977583 5.773482475447799
Sn 6.438203294795126 1.8362904720480624 9.030939294365258
Sn 6.447216190244945 8.207993792877966 6.82154113482046
Sn 3.4596224721300723 2.6487630932296433 10.41794699026474
Sn 4.557366618739356 4.09371769384374 7.477829214053367
Sn 2.611790975822497 7.954201642039439 9.289164549213528
Sn 4.130573831941897 10.45557033832437 7.498266798506141
Sn 8.602886546706277 2.088267495468686 3.8437533293934236
Sn 6.833565603009468 0.8548434555076724 6.18392086407971
Sn 6.58792805496025 8.893118848653463 3.1282662147145017
Sn 8.81663463517843 7.591241371549622 1.0046066675982586
Sn 1.7446760528832306 4.921952015663639 9.478672487937724
Sn 2.675676015653832 6.466324581777143 6.709125478285618
Sn 4.0969495578980695 8.606122474763247 4.949424561045545
Sn 6.364603781443165 5.727146333512646 2.8735384414814718
Sn 9.193288829296556 4.703651439652897 1.9270894563516145
Sn 2.349285897233615 2.0461782321003654 7.6113093842834045
Sn 3.7321842459619887 4.898234304460301 4.240588056478632
Sn 5.8467506014878605 2.71044614507948 2.657449225402646
Sn 4.083465590391719 1.9123073078857928 5.066822357580894
Sn 5.568855787917912 7.534526997461988 0.5488872358457463
Sn 2.835704098527337 7.047661221450695 2.2761685719895457
Sn 5.842497165091956 4.474760562133697 0.05520060052185884
Sn 0.33660515922908907 4.222924767594986 6.847189919529304
Sn 0.5995293678812581 6.158802905533551 4.439966212331459
Sn 3.072628329447555 3.2854277575937636 1.3350276493976165
Sn 1.1640493612284408 3.0443078626298714 3.9146057421451466
Sn 2.9700475379750455 5.682824375211741 11.717991518062455
Sn 0.5602193667826956 5.10619902487694 1.4710446954763166
