40
Energy = -141.05882498 eV
Sn 5.416512823451711 7.304974871134285 11.089412547680098
Sn 5.314159412697544 2.1862352375231686 10.680785282515359
Sn 3.040972778885445 0.23388229147398715 11.158776167726398
Sn 3.922442172746195 4.859551628832219 11.71285005646536
Sn 2.434431209210592 7.794058351253095 0.020577376951953937
Sn 7.665951458508295 7.362185124959439 1.5008973805539758
Sn 1.5189621283249966 1.162228477126408 2.306467204745021
Sn 4.839393410102293 9.132991550768326 1.7673380197039097
Sn 7.3471900299266695 1.856561922915797 1.158545609020223
Sn 2.2529440669901573 5.862000612139525 2.5810936030917744
Sn 3.6355596271874404 10.562197932983398 2.1776431006564962
Sn 4.408253462118893 1.8100364757123533 1.892157207316923
Sn 1.5149798580504412 3.1098065511919972 11.760689679242706
Sn 11.372226102315093 4.10324808507043 3.1380958304884135
Sn 5.717297107006763 5.043347600315996 2.2376492521323943
Sn 5.921920190435868 11.03198059406211 0.12193568957249978
Sn 11.622123673370613 5.738614882428898 0.6544669611122607
Sn 1.8632191346222335 9.025893496579538 2.750405784513758
Sn 8.540337055791534 4.332597791877195 2.433552028297114
Sn 6.351949283211672 7.554051036466188 4.144017844759129
Sn 11.12960129147042 7.1985740757391845 3.3724426626119186
Sn 4.0889917573121 9.402976663456318 4.852152698331164
Sn 6.533223293579021 11.375324351043545 3.1100497727629843
Sn 2.189029196432527 3.3608360254297125 4.619242727141936
Sn 2.6510351118198803 0.3684650140706345 5.435640093467317
Sn 5.376923573574363 1.5386232555803336 5.15844149639763
Sn 7.335944713451966 5.984291619330318 6.631591114650562
Sn 1.1125486883669315 2.4376530886827052 7.332828270270629
Sn 4.839836321833595 4.816631806032495 5.10708748055195
Sn 7.731187927695829 3.3911502641379596 5.2255408999108335
Sn 2.571371799648615 6.963054278060491 5.484218735145994
Sn 11.767456176591262 5.553946828916047 5.900927794967861
Sn 4.073806841041449 3.2778940314605793 7.827373171852336
Sn 4.628364749668704 6.382433246349246 7.950775629330326
Sn 6.447893951500568 1.1138137897968696 8.016799356914222
Sn 6.8583649309257915 4.034866406427007 9.158154313343557
Sn 3.3586636760868545 0.3075032599137654 8.556344448490181
Sn 4.2421022612781085 4.891469848337742 10.614021079282494
Sn 2.084741587177505 2.6641475397187424 10.254206605648779
Sn 5.06918772744479 1.8761209562791648 10.680785282515359
