46
Energy = -162.19025435 eV
Sn 2.6179577027612297 6.065651502689845 5.0554885356757655
Sn 4.44588867974636 0.015758815632803933 5.735551817093923
Sn 4.996213225662407 3.255985760894997 6.4087047142567535
Sn 8.658579540986375 2.123867084243938 3.6258203078253612
Sn 0.19770876210085703 1.4893554837938676 5.647849983651741
Sn 5.371760765331745 0.014800230227824897 0.560509643080015
Sn 6.31553296449943 6.122107067219755 5.557700055481746
Sn 9.377018599129013 8.040195369265069 6.318651124743623
Sn 9.016002426145517 5.5313839092522175 4.221475733343901
Sn 8.716983086987195 5.043776166738704 7.217737772437295
Sn 6.982327131508865 2.6598974779216586 8.587516606333761
Sn 1.8265873735422755 2.226743288328427 9.62868045697763
Sn 7.047961180229368 2.8037088177897664 0.9787774790797577
Sn 8.070726298434078 8.508769810617277 3.4843419835244327
Sn 9.377018599129014 4.792738207295054 2.5039815185970027
Sn 1.085152701087289 4.28793544378098 1.8764637629678005
Sn 10.290316487447889 3.3422170356775927 10.991026678611334
Sn 10.613592743661917 1.922598473000849 2.6423327532105305
Sn 0.15043739941840847 0.3906355275325511 0.13556860808484678
Sn 7.094261264685952 7.275244332652166 8.392521247121346
Sn 0.9745459235752255 5.534286929334313 7.835725494854054
Sn 4.800547914477549 8.249089659356205 4.01652786293984
Sn 4.601042856906441 9.16221308444144 8.587455447048583
Sn 11.085090518697086 4.701178026563219 5.1097012810315645
Sn 1.944759907151505 10.960683676334078 4.1973917074200395
Sn 5.703001550365594 1.547921214402914 3.370513709597036
Sn 8.051047394337203 10.811438810160542 2.053264954359982
Sn 2.2485733606590133 2.6675280679835085 7.68550362947077
Sn 7.769246605312565 5.86031740153886 1.5046729084792383
Sn 2.852257523601145 9.073529478809569 6.128272105092482
Sn 2.6452412699811765 9.887140986211149 1.4846543294063204
Sn 5.782776695531951 8.039634434640039 1.2701773389659956
Sn 4.618903178377101 0.7658364537891789 8.561848843370981
Sn 3.922077823625118 6.314028785852743 7.798544381258348
Sn 2.790224981775239 6.639884204143898 1.111614460472595
Sn 2.7627191383697887 1.6150486730304947 1.2454737331050956
Sn 0.16636561453794338 7.0536666956078715 2.8880825533751384
Sn 0.09183691537205922 7.872808794711702 5.874393684842562
Sn 4.980456756098468 4.982548127462464 2.5148545746141884
Sn 4.3889042931861155 3.8804450470978313 9.495805335300608
Sn 2.6666576301179066 2.83651615501986 4.2183851167631925
Sn 5.455462409662726 9.600971680951355 3.237732698069068
Sn 1.2381251634166182 5.200610647262978 10.161322252926169
Sn 4.1846197211437675 3.8285551579356807 10.913919091516366
Sn 6.680378153773326 9.471659628001614 6.261728389505163
Sn 7.591062855254235 11.077407503396525 5.14968642191712
