49
Energy = -173.5633786 eV
Sn 3.962934635107155 4.314850279330664 12.025070203378712
Sn 0.9999821218039444 3.361554445477535 1.09559854646721
Sn 6.519805653822794 5.922427604350512 11.752297762376726
Sn 6.485244996309556 7.954144706297563 1.700695004471686
Sn 3.5530699112799833 6.89634433709412 1.3549574212072037
Sn 6.637329746301147 2.9110292783704175 0.5084614089999069
Sn 8.439867193736339 5.340006223498601 1.6516494735623495
Sn 0.7119674845599024 6.126756190393 2.5480365331238772
Sn 3.6802564133968594 1.5837852405335222 1.486725453322738
Sn 9.28891021630044 8.257757101022914 3.0489591344026903
Sn 7.721894256457553 10.038875578107906 5.21971815044359
Sn 4.432945251689309 9.109094715047066 5.090158673249066
Sn 0.8262321424098074 0.6910445342934638 2.707950196742841
Sn 11.73184333470819 3.336376088397032 3.8087832132325707
Sn 5.515195760874288 5.025582025737599 2.6065432496264385
Sn 8.99377445913041 2.868799916591494 4.788619419590286
Sn 2.591375255610256 3.5123232265702935 3.731547434799063
Sn 1.33054065807585 9.095840131354498 5.337884798021117
Sn 6.959172307478277 6.944465541866541 4.774733692291869
Sn 6.22558206118954 2.186103787857021 3.6476406709153375
Sn 11.682109729731899 7.027267127791333 6.9611984437571515
Sn 12.233152680897394 6.315600190756244 5.5639247143465695
Sn 3.5438783435006833 0.23202022195217134 4.348117239869625
Sn 10.96766608022105 9.723794404648565 5.512895468833701
Sn 10.029310065312313 5.732993283688382 4.503921187426974
Sn 1.0819810578544886 1.6408812888356055 5.669378120318376
Sn 2.998898389070846 6.461366660567182 4.77823044472848
Sn 3.2987547856676005 0.3849071067632159 7.50908686284892
Sn 4.519253595585233 3.159704450306812 6.270164999937859
Sn 8.789283565768919 7.978935421016251 7.253398585697541
Sn 10.237690163212367 4.19712032604807 7.492149912997076
Sn 6.237269713584625 0.26512863389654595 6.295491810846125
Sn 1.9844530178563808 5.3669268144506574 7.562434697717553
Sn 9.362988137892327 11.525360332468514 7.43776784319804
Sn 8.812548960463547 1.4456744433622453 7.510432923528128
Sn 11.73184333470819 9.731476904572363 8.591300958279122
Sn 0.36781238988963705 8.159867783278752 8.078022070332707
Sn 6.533409113311696 10.169802674916275 8.24525325285359
Sn 3.098819762492099 9.806212525992008 7.862468975173689
Sn 7.2615856779236205 4.518881247332898 6.687047910427142
Sn 2.760551705045357 7.352587751763698 9.742893055469619
Sn 10.340113200384655 7.158875514835153 9.866949557394697
Sn 3.1545479586168725 3.0309063311214057 9.126709859017096
Sn 6.078559521767854 2.051464750355164 8.834855002452759
Sn 9.138291416589807 10.08454280757384 10.185814342121844
Sn 8.088151504212677 4.404788764025452 9.65525113032905
Sn 4.906060086060082 7.1784016832975475 7.574457679621823
Sn 5.100420258872872 5.221566689622807 10.10789870265208
Sn 7.156684238252045 7.643817800813767 9.990466122584978
