48
Energy = -169.7732485 eV
Sn 2.532070969485617 8.19775890747208 5.957323961760964
Sn 7.2864110908276984 4.722245530066125 2.9741445259465507
Sn 3.80259104797069 11.241567395076375 3.364378551904934
Sn 11.813633440839471 3.6429317585839005 3.0164046925581687
Sn 3.453504085569303 1.1591500524002987 5.356376999131832
Sn 7.224322915999526 7.483402648050477 8.228623571178074
Sn 4.682230557559056 4.769018626222445 0.004565184897328847
Sn 5.2878748572306 8.986248743573258 0.2841280064209857
Sn 2.6437590566626663 12.459243384282507 8.098795196205522
Sn 3.7747833734534133 3.0098963021247362 7.8258936158200045
Sn 0.97337205242952 2.4337427772129123 9.151341399519955
Sn 5.629612278627748 11.142712612213412 2.5549345689845295
Sn 9.757909777893722 3.3337389913577997 4.169445694547438
Sn 3.5091272533992344 2.0349464063896843 11.547560493127667
Sn 10.278693078476353 4.053528527260222 7.10443398858647
Sn 7.851914963362315 1.1547279162336228 3.4233948504175364
Sn 6.668798994720555 2.433082085493815 0.7077832172900637
Sn 3.569952840171215 10.9524878242203 5.223782275174722
Sn 6.3320607489695835 2.9571958593291154 5.391635546685476
Sn 4.943252769073215 6.054263449985274 6.385283702352068
Sn 1.0847440241709003 6.728968675696582 3.2235508456430195
Sn 7.545517242973873 3.5059723340809867 8.19002141025974
Sn 4.895187422477272 12.431487129344216 0.7938891530553452
Sn 6.162840663222793 11.924543984612535 5.148654430868535
Sn 6.051102361639153 0.7803736826238482 7.835987727637114
Sn 8.243199774696762 5.918701502825293 5.724683224018349
Sn 9.063137120520782 1.2342518597352337 6.42408316047735
Sn 11.563715658856756 3.065409508934284 6.724255735408908
Sn 3.21975771211035 9.040989416782214 2.8269554621212523
Sn 7.564052365065759 6.928921444896306 0.6266335524697617
Sn 1.6222326215331018 3.7573722242260845 0.7872382643526775
Sn 5.508223922444461 9.297011331504299 6.621296696863253
Sn 9.239301703500837 7.618427743167632 3.2919925935202805
Sn 5.3054229154903805 5.3577148341127785 9.358192600256372
Sn 1.4863476038403896 11.142712612213412 5.499841706930314
Sn 3.916078989386351 7.9479116718243725 8.789169647347027
Sn 1.8289047595805377 3.891654155094553 4.834425485478447
Sn 6.119839600722714 7.965630047665694 3.178085320845293
Sn 2.546855100014704 6.863970826909063 0.5150722914882376
Sn 4.101883473817114 2.5172082799347155 2.382758886389496
Sn 1.8471699283792917 0.6958016787580004 1.3904753041311464
Sn 1.4360788554431576 5.262980212860824 7.4773912636313264
Sn 8.212165483356616 9.849038640843226 1.3233521338327003
Sn 11.702067830023541 5.782662207985714 5.38821394329744
Sn 12.05207973893638 0.2046687755833772 7.443946051959114
Sn 4.021870600520973 5.584873506740071 3.22472056128284
Sn 0.08865352230142537 1.124912709762879 4.475951124455696
Sn 7.799189572516487 10.078587839380248 4.528972353585968
