49
Energy = -173.14817475 eV
Sn 8.186596932476021 2.1866161893030682 0.20805861162812783
Sn 5.274932560300379 5.011687506817391 10.936068202428597
Sn 5.353661786436998 1.9669003996704313 11.147534389914894
Sn 2.6748033598339287 3.3555201140501247 11.975000483599997
Sn 3.1453476627441086 0.3420857252077811 0.6775240876508926
Sn 2.466179063901237 6.250295313616065 11.081115427111872
Sn 8.400364254245469 7.136676882380455 1.0475998778399267
Sn 8.383803966502766 0.7590434230607324 2.8146024572317385
Sn 6.367061980074703 9.517275152974122 1.6117535045204945
Sn 1.9049854008643186 10.916270265053257 4.683398500055208
Sn 11.583570092245948 3.301750322445713 2.082067317807409
Sn 1.066970146219474 6.296562446122552 1.682994546167506
Sn 5.771307659205561 3.9266879505441405 1.5310242641850837
Sn 4.414136395780956 7.238703038299268 1.0148144045532417
Sn 2.361532270683427 3.57886300808774 2.7341781395593783
Sn 8.531136518529136 4.024397626664845 2.7521635795391277
Sn 12.116802365433312 0.06818818306010611 2.7029281974089248
Sn 2.360176635949965 8.993111636923478 2.765849943957504
Sn 9.051398620514519 9.515805744165787 3.0483514986330547
Sn 6.192533756988959 11.786802080965614 0.7799548149587369
Sn 10.272684519972866 6.185612135397058 2.457319396418049
Sn 6.178575443707672 9.805240020919982 4.670084802956337
Sn 4.636711525185849 1.4366995651149377 3.0274643759243802
Sn 10.052797240057162 6.698383297333714 3.6708056998523326
Sn 10.052797240057162 1.7975478844126926 4.4198041394735
Sn 12.097920886008419 7.915341343579971 4.104141059737441
Sn 1.0506085350731271 1.85666424353107 4.887980872637564
Sn 3.6381082011888832 6.067808212012005 3.6515322918466437
Sn 8.06338114249703 5.395964384375436 6.57701750329662
Sn 11.146651868264074 11.41400846299665 5.677950760397126
Sn 3.485628495458551 8.314762339905158 5.621471172960459
Sn 6.379245148487005 11.459610734140828 4.361935258791976
Sn 8.602373126764311 8.45886248649484 5.937337655811803
Sn 11.154871259471317 4.734014752352508 4.910377270712164
Sn 3.8579289950943836 0.7067411258427537 6.068891296164525
Sn 5.893703854454625 4.049508847637616 4.780222642185247
Sn 3.3326941061851483 3.728284382298652 6.573733336703034
Sn 7.973827580565799 1.973249518265601 5.57819162035649
Sn 6.891345177134231 7.069328889957142 3.6817775279482476
Sn 1.312591194631497 11.798215272055385 7.657566083393861
Sn 5.234005105030288 6.240436118594464 7.1198518009326355
Sn 11.50052773057322 2.007314292953796 7.3060416797373495
Sn 1.348673324188975 6.078369715771248 6.152652353097708
Sn 6.46950919509929 12.121191163120475 7.3530026637203365
Sn 7.094284857985276 5.228741144093535 9.536688253182266
Sn 6.005827473942611 2.836748831253866 8.264743429770393
Sn 1.136372365076731 4.41649950248007 8.761044496742686
Sn 3.0192428847276176 2.0457422440841886 9.081588801465161
Sn 4.019089658149227 5.139517384204224 9.629822550251662
