41
Energy = -144.8922888 eV
Sn 3.7737821005340773 4.238939243265324 0.00395051000660413
Sn 3.4634628796959936 0.6990872862471179 0.3542146635718491
Sn 4.939198993221118 7.529678167610036 10.649636402698356
Sn 6.581342710655168 4.979262148317327 0.8896648448155663
Sn 5.671865644069578 2.0429230018119355 9.860568833374053
Sn 0.6211720493662075 1.2094473783739674 1.0030962089356372
Sn 6.274133097662211 10.346052226577402 0.3899458346001093
Sn 4.2751685806324335 10.242622395192685 2.920239589679611
Sn 6.022694949280736 8.575470770548252 2.2790868250073
Sn 0.7239744317125434 4.111082017041262 0.18941955891530354
Sn 5.184314448961099 2.3209094144148787 2.27753393376634
Sn 3.354576172974059 9.804681900242995 1.1755380080668625
Sn 3.7159063442754228 6.565171888254973 2.3653514726047566
Sn 1.8593698091553845 7.317159550752373 10.978724157025814
Sn 1.6155956848073632 0.8472849413749951 3.8297504528178767
Sn 9.904514654812285 5.446138319549499 5.369144324791717
Sn 3.7114590341068605 9.01576005436623 4.278805973812545
Sn 7.995898414167734 1.9855478842435919 0.9209549406849145
Sn 1.0697535744906366 8.386133906807387 2.7858388898830415
Sn 10.71106590022964 5.44525232631082 2.7381082749033845
Sn 7.5964724668690105 7.032911798699849 6.641434142486558
Sn 2.201952783708983 3.635356512405771 2.856803291455598
Sn 10.35752344175888 3.1365185206722135 5.105616687342513
Sn 7.102470146838147 5.836561432560836 3.840499837209468
Sn 8.537462972213477 3.041008921739378 3.8901819270978115
Sn 7.120663591161498 0.0023490052938329375 3.3094789755097547
Sn 1.7411988035869028 6.217180930040241 5.04319794396576
Sn 10.470111220081765 5.5432403045857095 6.938836404541583
Sn 4.081776622873273 0.7417785644786739 5.910323848105481
Sn 2.263202702558977 3.412512866576039 6.263685391370985
Sn 10.214902425891632 2.5668236998845084 6.388830985875587
Sn 0.6085947081623142 0.6576281274209659 6.758681049512725
Sn 5.580833298134618 3.3451931581016083 5.223456559049363
Sn 7.909510677918124 4.147997761787557 7.453093232557542
Sn 4.724562968780163 6.241356089149461 5.960885025672535
Sn 10.61857707597455 2.703631469425693 8.659557723095919
Sn 7.488895142238213 1.1530991499578402 6.226533198230486
Sn 1.9857307036247658 4.9250754825582606 9.090961217385303
Sn 2.6973670652308126 1.7731607935372393 8.797401809909637
Sn 10.223475547879042 5.35789483364486 9.860568833374051
Sn 4.834365547106694 4.201707086407218 8.317758898911803
