42
Energy = -148.24234445 eV
Sn 6.4596094037597585 4.729552672172674 0.3183055656661284
Sn 8.828540604141125 6.402890611252714 1.187883358586159
Sn 9.002841533865537 3.056130761369987 1.6242207635459027
Sn 5.795328270258384 7.823304030973905 0.441712976660773
Sn 3.224719803711681 6.3671221042569615 10.968035700866992
Sn 2.9473302036494435 8.928380233421128 1.4732882945349945
Sn 3.151610493726148 3.687398062487872 1.2755348451207846
Sn 5.833054132868346 2.136168125197107 2.0002407337322583
Sn 6.279666707533064 6.125462847599529 3.0788357781082696
Sn 10.762111024865987 1.7003685438334204 3.834861375635191
Sn 1.337627582677473 9.153632002190175 5.786859569791914
Sn 8.074396238445795 0.41009958353173154 3.4908829262399004
Sn 3.261806779310493 0.5824746897712704 3.8425632915297867
Sn 8.562714588700542 7.826530680112677 4.00682496851767
Sn 5.729745905814748 9.217158955357407 3.1194371077660312
Sn 1.458252891662154 6.2648770972777825 2.234471912703453
Sn 1.2496567692824612 2.8327483526247303 3.454451841036304
Sn 3.4126429668462235 7.3806395811259495 4.144704739707418
Sn 4.370791969543939 9.572203574242502 6.031576240171413
Sn 8.070504585127736 3.6109816129023504 4.524936851720454
Sn 4.181353154220777 4.011448932653074 4.137223512708185
Sn 5.709963186389119 1.648746530758373 5.3922984801848255
Sn 2.275868779495409 1.707495655780445 6.339587292863053
Sn 10.931866759527159 3.592318921679705 6.336929023158657
Sn 2.553050805983332 5.105333748183869 6.642645420668575
Sn 10.60559487992711 4.967189850460312 3.4975672840198615
Sn 10.931866759527157 3.3019257084967433 6.043198905565751
Sn 2.4284229870719343 9.233816898323491 8.770220303279816
Sn 6.237951281006859 4.956951221134537 6.769995455709785
Sn 0.12853607204604023 6.29349550530613 5.346041373328865
Sn 8.830773173398187 1.3359198910984331 6.470208653447125
Sn 6.01831319370164 2.2676056481522933 8.406661419806165
Sn 4.688783139314144 7.185193901121879 8.101394585507743
Sn 0.04300682882366525 7.565385192080754 8.193084749190943
Sn 7.218406759430258 8.687469055939042 6.774672909711677
Sn 2.9562830428823728 3.195340993115734 8.98595439358076
Sn 9.139094410427132 6.172480723866381 6.588061781644271
Sn 0.2387979368681319 4.6241497717063975 8.822101294642803
Sn 2.4634060892652516 6.342218286918132 10.162842721004145
Sn 5.298520579254814 4.860651277751755 10.216970521913401
Sn 8.58458535774501 3.881591621833835 8.673267376801585
Sn 7.561691276083555 6.87349401840668 9.328532607798458
