45
Energy = -158.71894323 eV
Sn 7.006993716764768 3.7147976701440646 3.2719668590144844
Sn 6.073518809575692 4.560712832250725 10.509762650316306
Sn 1.8252778305820068 3.906835863882891 9.209460930896345
Sn 10.91410347267603 2.4269395405407184 8.83225577266977
Sn 1.3675004092670595 7.403132056888536 2.065818822821897
Sn 2.5120181508018766 11.710232194218747 6.15518357372771
Sn 4.503514842502267 4.2637620048634535 6.038547541406468
Sn 6.52928870104132 7.562804855161124 3.869400825232369
Sn 8.927018420693289 3.6302393245676794 11.058331761262489
Sn 3.7960397323247315 11.334741028711306 1.9781801878577854
Sn 9.050292712678731 5.623215608741069 4.616012998469517
Sn 0.5790639761264805 8.607382069300867 4.724125663881029
Sn 11.413841197588667 5.239174639690398 3.9899075302682863
Sn 4.295333513966312 2.041830380383299 8.054017579388544
Sn 1.6200404981241274 1.6467868498267746 0.2921778509344206
Sn 2.127516482180103 6.016491113825542 5.067075637040527
Sn 4.116247912336948 11.869060806083946 11.0316028014246
Sn 1.0094983306451375 0.10642926947882253 3.4547549754451863
Sn 6.7924014187465005 1.4827686315312476 10.978181183724885
Sn 10.079845436222408 2.9487942912119154 5.892704038172298
Sn 2.323554717909568 10.210306048903874 2.8943296883121294
Sn 10.079845436222408 2.5561654706792463 4.319246449230929
Sn 7.429684784567506 0.8628919072334613 4.327781956008047
Sn 4.329139945164305 8.280833722269323 1.5687503105178286
Sn 4.365935047202645 5.549512844160809 3.061182054402059
Sn 3.4713322083035623 5.574127774534875 0.19066938220758617
Sn 4.803138549477001 2.4125315270724097 1.113126833654817
Sn 11.671756377202774 5.222648564889318 7.4009039304209985
Sn 1.101299082585875 10.746170669873198 0.7675181078233576
Sn 6.408250208512559 6.395590418390226 6.879370435658826
Sn 10.032059629342731 4.453818724250425 1.8925012741235416
Sn 3.8869207469114975 8.650707283951023 4.95821411024431
Sn 4.868459402001105 4.784304222974369 9.246909960726843
Sn 7.343309327664453 5.774116562869748 1.07611479441513
Sn 1.5289618265874392 0.775964627481712 9.030857637998933
Sn 7.625930514896185 3.3957176352352465 6.235789939781674
Sn 0.5192405361889805 4.604563294703723 0.8169155812688433
Sn 1.3053077572624288 2.7156937542112916 6.284591607035234
Sn 1.9196469201918853 3.234374106415729 3.1084092110151764
Sn 3.3703540942819314 6.930810817100213 7.6764604771236815
Sn 4.241152338467834 1.489801114462831 4.228460972371962
Sn 3.471968823002506 2.8450802817858407 10.205921720513974
Sn 8.622444009468204 1.605734613940655 1.6283977233442597
Sn 10.919910110985631 2.2324592365539795 2.9654522791918168
Sn 11.365339390071245 0.22082898861339928 6.615245675240873
