48
Energy = -169.54681505 eV
Sn 2.4138494655860274 9.74130302280523 4.013588878282691
Sn 1.7481351890887495 10.975237912403118 1.2901761813196795
Sn 5.333808939782513 11.222826645575147 4.792793512460506
Sn 0.5188634517709318 1.8266525007145078 8.186806326587945
Sn 9.42253738525022 7.202441600799648 1.3647158597403382
Sn 4.03062180714349 0.7016061581710682 10.820634833176722
Sn 8.065133300962508 1.3166448788442853 5.108221684356682
Sn 8.627072232224657 6.0032313743205 4.106633376059934
Sn 1.3202702041733307 6.618217236814282 6.647912613157767
Sn 10.36220978517559 4.3558038040241716 7.2136185477026125
Sn 10.988084049270592 2.550321560543219 2.2954742254991207
Sn 9.432684886873616 8.957667487987136 3.850798620458956
Sn 5.041997811007423 2.415088565932612 9.374938861009365
Sn 3.3286247117301104 1.3119994955478413 6.8630216014869685
Sn 2.80315574855371 9.144522343131289 7.0576803194300295
Sn 0.26050023478086787 8.151140301565514 2.72774119789678
Sn 5.886983409553857 5.416246592077497 2.544996562871395
Sn 7.745946569098601 3.7972789662665667 9.618892870432148
Sn 1.3791563269115443 5.498925520313771 0.5835009986936834
Sn 1.872415739069701 1.511523323154885 4.16066849001578
Sn 6.661524135079991 7.426988499737326 11.028506723734491
Sn 2.6179767140221006 2.772048449596241 1.1512552928922224
Sn 2.600410564315354 9.74130302280523 4.022042774210178
Sn 6.339611812210634 2.692425947529291 9.765946491984657
Sn 9.538399200723651 3.1499257553518816 7.15434027192772
Sn 1.0556263100186316 5.141559750622319 3.661688263769514
Sn 4.835436963878615 4.80800049785821 11.135254794997776
Sn 0.008641426073773335 9.33490200885246 5.671835998633598
Sn 8.151324557341185 4.637056619038738 0.07197713733018161
Sn 6.298530695667632 3.312286826768816 6.53792397391296
Sn 10.256466729803181 1.934258664233181 5.365731926931208
Sn 5.1521704484887945 5.467717628128177 8.516919845711698
Sn 3.532359954371812 7.50033403928425 10.843789253563525
Sn 7.894003710510565 3.0618507344813657 2.6468023970431056
Sn 2.248005254997192 4.29055107488816 8.318261709924114
Sn 3.516974638448534 4.344759557014447 5.4449520380437235
Sn 4.952194385410495 10.103576097528252 1.9444953061465202
Sn 0.5598474368222621 10.682985333453711 6.398642511547914
Sn 4.492796720456843 7.29614100425037 5.390326118163785
Sn 7.269514765699064 8.478182267065465 5.851876182118153
Sn 10.744808688250775 10.79503011755529 3.4540286840673278
Sn 4.952528432148508 2.2875587983022796 3.0445361421470625
Sn 10.038234149188865 6.596697068253616 4.965399426700758
Sn 7.545221672790205 1.015905079093232 8.289611492503209
Sn 6.714440312975552 8.430038072481352 2.6728728768854704
Sn 7.944566982445034 5.847512136656921 7.214691716727022
Sn 3.2114204736022223 7.1418583275297705 2.542594065042337
Sn 6.866536669320376 0.8647372799598202 0.8525060757681576
