48
Energy = -169.97934885 eV
Sn 7.49713253919155 5.94031150081191 10.281362322033111
Sn 2.675516979107864 4.179970285013636 9.721187110845232
Sn 10.971975182283744 4.785409678353708 0.027505101247800604
Sn 6.581160810611825 3.2792493231346174 0.08999760820893496
Sn 0.9784836796520635 1.852412503246318 10.80948711645407
Sn 2.250146782294457 6.878499941731794 11.104156236780119
Sn 4.037782671256385 1.6677947511161924 0.12069298314311534
Sn 9.29550165403429 5.492999403366044 1.4889938027304679
Sn 8.597228897311153 1.0319115587884906 0.9295829230526703
Sn 7.443738339848714 8.302470830075341 1.4603469439128518
Sn 5.163925598369227 6.130727261298891 1.1815552651966272
Sn 6.0809125818958405 10.712743190028927 1.918001661016594
Sn 2.6871711174744184 4.298974028721745 1.7213339161457266
Sn 0.142430513574022 2.923697737776704 2.58816059478924
Sn 0.4638015502353779 6.871327452655849 2.412524903683116
Sn 11.023999271081966 0.0927999208766447 5.301857591403481
Sn 9.736877913066728 7.7685464790312455 3.4558830987819955
Sn 1.0543267754978154 11.072443283810115 2.387668818435687
Sn 6.790526148690954 2.680703990735486 3.039810860510139
Sn 9.898716548910745 2.786181988493409 3.127289477758882
Sn 7.063860135034396 5.929337123132298 3.5184786445908953
Sn 3.4106681443298092 7.7527126239846185 3.387997109815357
Sn 3.5350991533916267 1.4778396859593779 3.0866839287444106
Sn 8.463719092972218 0.06817653471648535 3.9111648006784154
Sn 3.7247309641629363 9.582153012850874 3.706318791766563
Sn 10.12721506328109 5.0071011996040475 4.530548631836172
Sn 1.9101153245585392 5.618220548228288 5.06720109771971
Sn 4.3904804254122025 3.8105828201495253 4.787011041490919
Sn 6.728573718333107 9.03092700411044 4.40040990844248
Sn 10.506482970882464 2.6975883190711607 6.698115588893197
Sn 8.383564096150382 3.1916006933011762 5.790099318617718
Sn 5.644974309464459 0.3213986849274204 5.1883058059187945
Sn 5.204596283977287 6.661276896679707 5.955175299408091
Sn 4.130338890357373 9.582153012850874 6.486482195128882
Sn 1.2865577001842674 8.794467207141986 5.4185146530855155
Sn 8.855334615583393 6.1927453951358435 5.957946861849057
Sn 2.5621469332916362 10.00803642100443 6.581204122232292
Sn 2.2675066156084474 1.9358385611385571 6.238711985938735
Sn 2.517948045609327 5.6450544842565975 8.080327295835016
Sn 7.316528923122179 8.550249789775757 7.415951240370636
Sn 10.953436847335698 6.762590948469943 7.142214252238131
Sn 5.697498602562916 2.716747989522256 7.241244275898567
Sn 4.6649517134892715 7.641539619071308 9.05220597774521
Sn 0.32983531577890546 0.04837338642054026 8.359176160153043
Sn 1.8360424732457288 8.695201114403718 8.502045931299822
Sn 6.910231732048598 5.531933762132716 8.257316839964094
Sn 3.618339892535177 0.7780775002333283 8.748845076077624
Sn 1.3942671025388513 2.9119687364707523 9.015973011941186
