41
Energy = -144.9673787 eV
Sn 7.453987388285749 5.418254243674659 9.7773477231644
Sn 6.166671922232481 2.5766116196988893 10.568514856299597
Sn 1.560759067656872 3.9100599893193295 10.236772188322313
Sn 10.562131398067319 5.724750310704884 0.6104445662556047
Sn 4.423015402322587 5.083360101447016 0.20946038746252435
Sn 9.193641527198208 3.544766140081335 0.66892588392212
Sn 4.391068796829691 10.819214591784739 1.4588596688492956
Sn 9.98484450044489 2.7362956647772414 0.9066062745953348
Sn 6.757558477590805 7.997923684924744 0.4634431763289008
Sn 9.575723051804582 6.7137764950013255 0.7020309926465941
Sn 6.908984657564651 5.184995167223694 1.9855369556811626
Sn 4.765440256167674 2.6960406211550225 2.442849064377219
Sn 1.1197726906928898 6.998723823742805 2.965909510490744
Sn 1.9346532206599307 4.141258111878468 2.3654778311396565
Sn 7.404989367832645 1.0547782354597683 1.9588861333380745
Sn 1.8593989154566943 1.4031210218623682 0.8168486769522131
Sn 9.951579554111497 4.644501950981318 3.52381774769307
Sn 4.392494345348918 7.292115031575996 2.4289486102464903
Sn 9.476961459795882 5.076241475535559 3.4174476509957907
Sn 5.848070746915146 10.706004322772449 4.481129116394053
Sn 2.9953021675553333 8.233109775543774 5.581624918926466
Sn 8.011417563927253 7.8002855417224355 3.2741279315620546
Sn 0.3548262997301469 1.8030335049887256 3.6394358017609245
Sn 2.809874052948003 5.031076331950008 5.468093239440517
Sn 2.6627573662204123 10.534357296225627 4.088604593408011
Sn 3.7199099201958115 2.075495825188095 5.429629941646667
Sn 7.048576182247816 2.8024084051066898 4.486338445034341
Sn 6.475095201131834 1.2047677628975761 7.202038576554683
Sn 0.18890083532939425 6.69889068435624 5.920169223169326
Sn 0.21665594713667577 3.64552008833712 6.515436316221362
Sn 5.553761087940147 6.3672758662672875 5.104634036184442
Sn 4.051378127647741 10.190862890337295 7.0121787801895
Sn 5.417472884748391 8.42209074283476 7.516670415703197
Sn 2.5648975671094654 8.035467317746749 8.665747831154775
Sn 2.3573462824577756 5.055774593415602 8.58960921341653
Sn 4.950211905551971 3.95625212076663 7.694092544693842
Sn 1.3338319710175128 0.8618790670544263 7.228590399325124
Sn 7.171100849077195 5.897426357404924 7.630619073307214
Sn 4.944963079551471 6.443143805858592 9.7773477231644
Sn 1.2639534329421913 2.5480315561555154 9.75316447579854
Sn 3.913086205517653 1.3885369291404897 9.169655181145734
