41
Energy = -144.48306847 eV
Sn 7.237705626413484 4.3247307310001935 10.763789205091147
Sn 6.646607203047114 8.973548157849137 10.24287649568767
Sn 7.423399834291246 11.90528675183007 9.098234301682046
Sn 8.486083074884965 6.6803958298596795 9.378132222864398
Sn 4.814915170458982 6.130292776084432 9.922424741724955
Sn 9.144761643047493 9.636795917213476 8.304461834168077
Sn 10.232855617841453 7.100260581220834 6.819751916281718
Sn 9.153815627533493 3.0214682802738757 8.840117762238789
Sn 10.731726244666454 4.0109952565204505 6.466183520530305
Sn 4.637648972293281 3.0907035666939446 9.196227337764476
Sn 4.712836353961592 10.690694175409773 8.685336426565533
Sn 4.29041126656334 5.137221749975145 6.955559522917557
Sn 2.7498199887219017 7.591433942639946 8.281393901257543
Sn 2.0216256524411618 4.707498697646927 9.500747321952872
Sn 8.48162360294845 8.922317404205666 5.180583688464145
Sn 6.310390857010739 8.083170476015253 7.2546376086300794
Sn 6.814460577777081 11.291605024116723 6.173521385296374
Sn 8.907747427280407 5.536220923030513 4.098441526530456
Sn 7.648611276388089 4.955192041692691 6.84995045575673
Sn 7.290041671097663 1.9076846858331722 6.876265116384591
Sn 9.148918066818291 2.158291994850336 4.649223366422607
Sn 5.985456794262261 4.433950685930187 3.595768820493593
Sn 6.989420041674453 7.7646224945979005 2.6019447548645753
Sn 4.579437179514525 0.7614367465296037 7.024728664720422
Sn 5.4451748706214005 1.471388592045073 3.9710016163264608
Sn 8.576345204302674 3.475748592269047 1.8563873205771035
Sn 1.9971881468100923 2.673115236880225 7.1724207388588175
Sn 5.461513659034803 10.27971129227555 3.4312711827240427
Sn 4.5644687274659645 7.362070374488501 4.45604831671036
Sn 2.5289861830919076 0.8823204207151466 4.644693701901698
Sn 1.3128847983464706 5.6421278656159615 6.4401602565046785
Sn 7.860462521325793 0.46873928127156 2.531887728413508
Sn 6.225965551099217 5.319378093879625 0.5602636434461808
Sn 3.101052703633023 1.8353270200800884 1.8824657820926953
Sn 3.6908250068786663 9.836173499274071 6.02981146059045
Sn 5.915513007218204 2.264708115408706 0.7985158237999765
Sn 1.471979214274568 3.781940680201281 3.756658978023006
Sn 3.9226827919257663 8.118615831774019 1.3971429809669655
Sn 3.488031996718511 4.93123302596535 1.7399049834440246
Sn 1.7561203950927562 6.994380273451062 3.482070404124475
Sn 2.4250191165752164 10.031736578737645 3.2735268485573656
