42
Energy = -148.44557547 eV
Sn 3.0079716214870964 5.282316964155642 12.440452645885028
Sn 2.702424443580757 2.183355746833236 13.100291015433191
Sn 4.1411588278096145 7.871352513257552 0.509472441179589
Sn 5.935690478983706 5.0599966452670655 0.9530956113247406
Sn 0.17566496965017742 4.08346596336933 13.10002558812995
Sn 8.676055226665369 5.5109497362766975 2.76751786398874
Sn 0.5376558293547564 1.9107471658775472 2.208692593039456
Sn 1.020955520644062 6.855402332157958 1.2359183798348996
Sn 7.340912890523649 7.851541509697709 1.1343353811384547
Sn 2.8820846557778173 4.365016326383567 2.267321090958701
Sn 3.5340059494463825 1.3589906086171448 2.9968667573859205
Sn 9.934686214989055 3.1564810687899736 4.120575517303547
Sn 2.8740316785336755 8.655477418476558 3.1440638413770237
Sn 5.9067912317596 3.1955673743175055 3.8134148228818234
Sn 11.596967931288324 6.150354719263604 3.795567348817685
Sn 12.479369387845704 4.657717583304964 2.980003080546417
Sn 9.548210343192222 8.444181201166671 3.3654631292073978
Sn 6.3841950828547205 9.513262015317528 3.521442801162579
Sn 1.512939031562221 3.015384748312572 4.946210011702329
Sn 5.128124078619091 6.645648745161257 3.3504837698725924
Sn 7.495812957199039 1.0742699791195287 5.199134516545849
Sn 1.7177405860209378 6.15614385518795 4.504010573253242
Sn 4.764806357809152 4.443818687742086 6.299501815753061
Sn 10.767218473705675 7.784294386187133 6.3042811810944785
Sn 7.8691017073876806 3.5730146092544754 6.743251347580973
Sn 8.075706325800992 9.488063899550355 6.064697553123025
Sn 7.961110520088455 6.385114760829976 5.544842346881293
Sn 10.724647763564027 4.794557090109676 6.485246902764009
Sn 5.27606849073907 7.852227666750575 6.098039029900457
Sn 4.467838425171586 1.1853451619990547 6.012741320775651
Sn 2.5162233162811525 2.497185696936332 8.024673111401839
Sn 2.1507492418928345 5.459970412440196 7.537612543547962
Sn 5.527979434945743 5.841002785025378 9.081380346807197
Sn 7.943407945528648 7.7782646449699575 8.779683729814654
Sn 5.726085512408519 2.5027231641361767 8.71011273562134
Sn 8.780003121817133 4.951784536863918 9.414533373809796
Sn 5.388440092643416 8.661960973428533 10.496730950106208
Sn 2.732415797757923 7.024905518209444 10.076506328939988
Sn 3.3969007350796367 3.9568601882353303 10.605668292670597
Sn 7.492110301898255 6.818095630674199 11.788385118775881
Sn 6.536982421606782 3.8625444625510332 11.46301735531911
Sn 4.59258554346471 6.263528799093352 12.440452645885028
