46
Energy = -163.08430948 eV
Sn 5.039446154106723 6.721866712125005 11.337795162839255
Sn 5.864063350275695 3.632693000070215 0.6589340016100403
Sn 2.667145874095024 9.025766361564072 0.6764832790922324
Sn 2.3765582970400927 5.97823761195747 0.997718352850523
Sn 9.103276521749455 3.300755320599495 0.8849834120852567
Sn 8.012308824332415 6.149690853701777 0.929124529815449
Sn 5.749018747513902 9.486501292105267 0.8357431355739914
Sn 3.4005984232728066 3.2227724235739403 2.6649342873342565
Sn 7.199750566203937 1.1871977329192471 2.1775069882870857
Sn 3.8909763639870483 10.304289644771236 3.243374531835213
Sn 1.7338167790012933 7.998790608746891 3.4880384611583106
Sn 10.104309657201801 5.317041104118885 3.1604058654963003
Sn 7.073189708060917 4.345662781940081 3.343120085075401
Sn 9.597381415070219 2.4394100643301146 3.9112505303185086
Sn 0.890553236046757 4.7708782373612175 3.6446997640061958
Sn 4.693052177574291 0.717824499687504 3.9699208835800843
Sn 4.677011517630214 7.200231890620013 2.782869467601865
Sn 9.024143135671746 8.487574926788607 2.7631236395068575
Sn 7.6670778776907555 0.3267190035859758 5.148075076077176
Sn 7.16401718892026 10.91421329172451 3.1080490707836073
Sn 0.2702428886631598 1.66531396407027 4.302271970058568
Sn 5.796332728044896 2.7063873851051037 6.054682821238535
Sn 3.957224403314068 5.0282753955913355 5.002673909007781
Sn 10.995092872441973 3.9843365625039526 6.325926336332932
Sn 5.85367159416997 11.02844902473491 5.924236685167912
Sn 9.88674407767115 7.793522960573293 5.74215402571955
Sn 8.378071063382219 9.922775342989665 7.2739022970130485
Sn 1.6318996912048074 11.028449024734911 6.007471643026095
Sn 4.139090282550796 8.424553610314174 5.9961741334968774
Sn 1.5767058760774935 6.317860362601575 6.399089450279967
Sn 2.3754664699793104 2.5493946246384946 6.268175709856482
Sn 6.976206147068532 8.308204946049639 4.94130816635922
Sn 4.597449586737278 11.479603221204165 6.899691213159414
Sn 5.9306775112143715 6.139268664936335 7.698188397311242
Sn 11.136400716729959 1.105547251432693 7.464370621460878
Sn 3.345633262953773 6.933979429489883 9.152154900577726
Sn 8.593109446237346 2.303118280906703 7.3032895015096955
Sn 5.69995430152445 9.050118620773326 8.959886111997129
Sn 8.383818218667255 5.131594821837479 6.081657546128049
Sn 8.39114657515375 7.443611122059132 9.183657465802643
Sn 1.2364089681679182 3.6891246773036737 8.825652116488781
Sn 2.2726612408311615 0.7607098076307239 8.849575667369944
Sn 5.940475153774382 6.7687197219598305 11.115284238658004
Sn 5.990328323635432 1.7099627415726193 8.98795345197958
Sn 4.592339974603035 4.282005795780953 9.834299580771596
Sn 7.76249287012859 4.554335337287765 9.71759014982802
