46
Energy = -162.92665469 eV
Sn 3.565661694565987 5.3544630578536045 10.507866345041428
Sn 6.626120174309797 5.888084732930451 10.584051354364114
Sn 5.6417097670624266 3.24347905496426 0.2746909655957165
Sn 2.499822647677749 3.236627868285869 0.89493949595135
Sn 9.028292509106013 2.8210660066363507 2.320313818193744
Sn 4.60726664912424 8.110826717622055 0.025880308768606572
Sn 2.6048429319180197 6.282083996010069 1.6520521272949549
Sn 7.6135538083111785 8.114914661778512 1.0555059331999337
Sn 2.6044137422275315 9.186273370434822 2.2957096990367543
Sn 3.902849274031695 1.589551243010027 3.040258430489073
Sn 7.304943780904187 5.239519206878523 1.9504149253267142
Sn 4.601050268155955 4.589938618543405 3.036350061215362
Sn 6.7647935295754245 0.7829902997752967 2.277718855732131
Sn 0.2991508640187146 4.332353637440262 3.133074054661489
Sn 0.6055867990330597 6.802843490632881 4.867110732318948
Sn 6.784459982093854 2.8823288227789594 4.524327761255827
Sn 8.316695853636954 9.951452570225745 4.240339419903344
Sn 3.492279896185822 8.282614170865102 5.018431110822688
Sn 6.34451386313602 7.416002311355133 4.374954145312417
Sn 9.428411285746371 7.08098345035992 4.576226146078788
Sn 6.467121989282412 11.506273802533583 5.26666484924817
Sn 5.638478451997516 9.909758503102305 2.521818127065671
Sn 9.597546537512466 4.065197065417527 5.010294767208807
Sn 2.564804374967784 4.414603044573099 5.430351294717194
Sn 10.465639092921064 4.073488384989812 5.88529967059773
Sn 10.159250745992198 7.65512688762534 7.469621509335896
Sn 1.0278888874227 1.762900341338545 4.632592938451477
Sn 7.645151977874995 5.7067594360667675 6.989732227259253
Sn 10.363810315487145 3.6182102373965144 7.92697306774756
Sn 7.592419310403469 8.969533302223224 7.162451373040105
Sn 5.559232226667187 10.490035562980896 5.6567942087483
Sn 3.6776033658389977 0.8106147590952132 6.29858500820401
Sn 8.604965008717024 1.4495260384752304 6.77310100174283
Sn 4.6015699951482 6.535630417840203 7.854450336069569
Sn 0.7403572083934888 5.651756645072586 7.607900826636757
Sn 5.187911052346349 3.4057815090278467 7.248566987558971
Sn 2.9487553451640207 9.04641438940999 7.984822718471302
Sn 1.048543507284522 2.6405156046753864 7.5680658479461895
Sn 9.189433553464223 5.7831032064479455 9.730128434192796
Sn 3.428765097003131 1.7649195515406075 9.308498005714302
Sn 7.51747455474165 3.0006753487035653 9.270851652364476
Sn 5.598587273638227 9.214774139225272 9.312793587759518
Sn 6.171426237600925 0.355492811686455 8.415800581785637
Sn 2.0940996875160343 6.816515542685964 9.890412987285151
Sn 6.365505955492131 6.532235894032961 10.507866345041428
Sn 4.1143465604909295 4.63886791964196 10.231064509823717
