49
Energy = -173.36495721 eV
Sn 11.125784519291916 2.733398827245472 5.662808898621103
Sn 0.9316912339594685 1.4423444130593743 3.470723579503974
Sn 11.696081145480095 4.143663530542832 2.8901188304536434
Sn 2.1116074327085155 1.7660337247631923 6.232749065099717
Sn 2.7866383957235032 2.2447807841031238 9.15104991081517
Sn 11.251508331971966 5.907238973565063 5.324566173974919
Sn 1.1711937033966409 4.543587287450582 7.134953692324151
Sn 5.244496692595 2.08647518133167 6.7431173672114895
Sn 1.5699834529301961 4.899766451510154 10.019630891573119
Sn 7.371995853192197 0.2462849025004973 8.039235062765613
Sn 5.727389544131994 2.0436383945385255 3.240606349632256
Sn 3.480065347106631 4.339083424211911 5.105690361954574
Sn 8.001206089084503 0.8123406684592247 5.029199178320079
Sn 2.8857380264209955 3.5628702329198174 2.3181586749454577
Sn 4.503603233470661 5.041223162863223 9.49771112634175
Sn 1.8647143606450212 6.308159888309982 3.297824294857308
Sn 5.680229159847441 1.8000667466809597 10.026668858809433
Sn 5.632175374806686 5.486701484456046 6.736580815710073
Sn 2.658225676368749 7.548454724298828 6.305003665215966
Sn 9.920044026019925 1.8654239795216863 7.350169931721453
Sn 0.6738906549276809 9.756348473191771 7.271073307047187
Sn 2.0753462844620763 8.006862258589 9.321125477956237
Sn 7.053671626515217 3.845508430012612 1.208650451692754
Sn 2.9106812847811083 10.460625373296613 5.05712235503121
Sn 5.132972124147288 8.02235769949752 9.08243850306381
Sn 6.288052796159258 6.917112984847071 2.9647941267607076
Sn 3.816829491728696 8.394087689050195 1.7569782424925038
Sn 6.961658242754311 4.38733024034394 11.005582962107338
Sn 5.271593323520032 6.291185844727186 0.05497832052819551
Sn 8.793722411964785 1.400241502994466 2.1562437320919012
Sn 5.499272282788921 8.731530438144855 6.050495876230598
Sn 7.683924902533974 3.614935425156461 8.207187532833041
Sn 7.911009499314565 3.9997203512221238 4.3339776385580615
Sn 0.44867638192991643 8.81646956044121 4.336626011361788
Sn 3.6189166749325463 10.551260421887095 7.964696934339201
Sn 8.471745366564251 6.707936842037175 6.8936283147936095
Sn 5.731878330504559 10.166728821798008 3.2549627008932895
Sn 8.161246393427097 8.926088776124413 9.109468721584152
Sn 8.609116038479687 8.948074773988195 2.739785821752926
Sn 10.672474331132118 2.3922590019391925 4.397504044676725
Sn 9.447464105798227 6.2349721428222065 9.855784559276849
Sn 6.504193942624539 9.086377668443822 0.39369490303650106
Sn 8.377577270945727 6.71917665972917 0.4189279758388753
Sn 8.97932878575866 9.579752251344706 6.206842512339674
Sn 10.994769980762232 5.086074986755569 7.457876495110294
Sn 9.995614382620325 4.255581834315314 2.0450281332945126
Sn 11.125784519291917 8.356039584307668 8.128175933682698
Sn 10.99204560720854 7.1065821925568 2.318776715693341
Sn 11.026641986537175 7.3064422897729635 5.3202062677517254
