43
Energy = -151.905088 eV
Sn 5.353774366331598 3.890088570531533 11.193752811249452
Sn 5.421333907313278 1.4073705191961967 1.777983978777792
Sn 2.412116020385904 3.8127580650928783 1.0847211998921984
Sn 4.795426256812228 6.750941769344056 0.8955511605793667
Sn 1.7398904627817822 6.578532345944088 2.146315015037048
Sn 7.84824715282274 5.848186253785701 0.6529977589421454
Sn 8.144106483432887 2.691503966290968 0.4480406990753941
Sn 8.311762571735622 1.3185727508649459 3.229417514948419
Sn 2.3191586405470463 1.638000628555007 3.240898920159995
Sn 3.9781032443133504 8.70140777974587 3.1875277128596338
Sn 6.360655461722563 4.0532458569602365 2.9429538624135545
Sn 0.021511903797036852 3.6242123850340517 3.156840929740552
Sn 6.95321773975438 8.787619560284966 1.7859313201780782
Sn 3.1685010753400373 4.540604594692591 4.040091795630515
Sn 5.858992102360328 11.13042899650494 4.499767259593532
Sn 6.251472865684906 6.883228733978661 4.175973787651522
Sn 9.507321613997485 4.286632372915682 2.7968391652536737
Sn 0.591809739261526 6.099134565710865 4.991171274993853
Sn 9.171820134039205 7.452818099931871 3.497393260067674
Sn 8.997478586037362 9.645380792813897 5.7139344018325655
Sn 6.244930311042697 10.426799812849172 4.644451692446112
Sn 9.030480443849447 3.5267195325189498 5.826385695859978
Sn 6.0783272554047185 8.24367329097976 6.9337535446507506
Sn 2.964705846165046 8.007087168256533 6.02188173659017
Sn 4.349487581906503 5.461473304929878 6.950736680345535
Sn 5.877221469612866 2.6622130183099726 5.969355686249974
Sn 3.4394044187898998 0.7131467941738562 6.042521471700219
Sn 8.216657835393521 0.5554137315224738 6.238145387168134
Sn 7.209505761890816 11.130428996504936 7.7237138772312885
Sn 7.2636584967951885 5.268678670799828 7.8992844937295805
Sn 4.185595238085415 10.718949336097648 7.094763418698011
Sn 1.2397095580732034 6.41381851603195 8.10776255980799
Sn 9.592580890733448 6.55167857605229 6.386031000831696
Sn 2.678528074004641 3.824122045672096 8.82618736456268
Sn 1.2039695546481124 3.046573723024392 5.895243404578198
Sn 8.587722331404455 8.496387594022487 8.756338821413623
Sn 7.551910352494818 2.3876098570407436 8.67300392328008
Sn 2.5344794796486214 8.982728372140313 9.127560883618978
Sn 5.653868387454017 9.239379541254136 9.949860798748654
Sn 3.812028800502202 6.519787339207211 10.318570591862004
Sn 5.216322708848109 3.8640417827428872 10.812358484879562
Sn 4.664950081780049 1.5392468222865872 8.777122741719321
Sn 6.953828401208806 6.398436435548178 10.68592478129634
