48
Energy = -169.53524479 eV
Sn 1.7428005508316409 7.553283980308185 1.6205838475634746
Sn 4.979419352876469 7.926368534029955 1.6884664523093234
Sn 0.24466825930429498 4.886701735273186 0.6229042317521557
Sn 3.370782249767803 5.221285489248682 0.17400620024068772
Sn 8.035783422806325 8.035809890266773 2.0384019070508415
Sn 6.3182325490740885 5.14630591890577 2.222832397877129
Sn 9.59684189371604 5.47122394819835 1.7156695851081225
Sn 8.336395568560222 2.9906467624200475 0.4989149090884875
Sn 5.282728441541644 2.547151203935604 0.6369617265576629
Sn 2.155751928143104 2.5573415121811176 1.314734732138409
Sn 11.328555011665628 6.204833207850207 3.36644763733754
Sn 7.4486795423222105 1.6000522427708732 3.0213106456426853
Sn 2.822180672929482 8.9557261332579 4.266803627984283
Sn 5.791324672104239 9.969079095911743 3.9261290135120235
Sn 6.585099208119367 7.181732505248383 4.821587807223846
Sn 9.600920441666918 7.988883221923115 4.627945761697661
Sn 4.159885535753892 0.7426979750270243 2.858664517605848
Sn 2.5866888081540353 5.012176053302873 3.2592386239093623
Sn 11.658959529490966 3.1391154521358957 3.3394306969403904
Sn 11.166963959607108 5.232194850194581 4.317415038026306
Sn 8.26253692430471 4.286345970312313 4.469982614701836
Sn 5.2294529161062115 3.074259495304539 4.6481348019330575
Sn 10.499237825288922 2.452120406933181 2.9054155162716064
Sn 9.501011722259742 11.70459531972441 4.79380942333905
Sn 7.497748022775898 9.711351943649724 6.527849939733578
Sn 3.3765756310681616 6.519999140741743 6.078573637777906
Sn 10.513160441207923 2.656136521984641 6.1390385581339695
Sn 6.346318491357113 11.25022719521249 4.927728778318222
Sn 2.443913117251648 1.9593907427105504 5.3947742662849585
Sn 0.5936095979931226 4.642347997236095 6.072020540245232
Sn 8.731926782670456 6.750491983817093 7.325474403896342
Sn 6.346514910438673 4.761803901285158 6.951161546267068
Sn 0.40058232169258223 7.710920850639509 6.0618302761240805
Sn 4.799176884710608 1.054494516686027 7.223635215509215
Sn 4.294252556300518 11.14103736507457 6.280843994144684
Sn 7.871770748444152 1.2829652772816065 7.051169364100745
Sn 8.847203207299465 3.731446689382641 8.68114792353996
Sn 3.2190515234648465 3.889563257909698 7.8174745783475315
Sn 5.227422403269413 7.341587385001408 8.636969562581147
Sn 2.521477738723869 9.280300024544658 7.7396952404012875
Sn 7.977494432571013 8.806270824886225 9.593241068044584
Sn 1.7684635298260252 6.492126515088282 8.916685664370974
Sn 5.888040183125318 3.1484986722378987 9.505511379270652
Sn 7.347782027952098 5.892598515302841 10.596013838955592
Sn 5.2873213048422425 10.397400882293384 9.25239942311174
Sn 4.128609657659384 5.693541817844357 11.005597368955213
Sn 3.025027502239625 8.819799490621982 10.746044647160328
Sn 5.81518811461555 8.159299701797488 11.880290529096502
