45
Energy = -159.13662245 eV
Sn 10.789272082722915 5.610872240996511 2.400688416578484
Sn 2.783265888362829 8.165717282859047 10.548546341541913
Sn 9.493437236375751 3.4846519277598915 6.79448157331753
Sn 4.934652259487282 3.2202709371915845 1.7182521429352182
Sn 7.419427850355746 5.971314869638119 6.201061463268351
Sn 7.594398765327254 5.090612132032152 9.307283972982516
Sn 1.430343159074231 10.052736176834333 4.898072995978062
Sn 2.4356446027026477 8.884925587838875 7.592593295578462
Sn 5.2074733540540885 9.383319755046957 8.75481837214386
Sn 7.519607509366871 1.5107252871024084 8.686361087241535
Sn 8.378454815341632 10.233175044183392 6.747493469739064
Sn 7.026078819698529 11.1746717672503 4.148555953803514
Sn 4.3683568018631975 6.53869430210011 7.846222471555096
Sn 6.120465606334076 9.344015916500357 1.6585542806437703
Sn 3.286378332470126 5.101481954542769 10.651815132192937
Sn 2.3423628592735746 6.488586905896768 1.2278592525702556
Sn 4.3437247364997855 10.102389662761421 4.13299914134545
Sn 5.801455308554647 7.286090246768038 4.000682629222198
Sn 4.959200294068855 3.638930365012063 8.564666460797955
Sn 0.07406704334368552 8.568915323733915 2.462048387321674
Sn 7.927034178905478 2.715845470977649 3.0277702911180624
Sn 10.789272082722912 5.623330745191101 8.335832571035962
Sn 0.056754206116090035 7.039097921060364 5.321883026352474
Sn 6.974432237895071 9.336046199458112 5.929393117946267
Sn 4.148577768254605 4.344855460701454 4.4551050822889025
Sn 2.81325870118605 9.751328418227367 1.4638740011619502
Sn 3.052768769474682 2.2650376923827014 6.53684029262419
Sn 8.911108860035153 7.004074997687435 1.1918354053760414
Sn 10.573842321589929 0.8820937425547519 7.981523752799188
Sn 4.366545740056601 7.8608448941136055 10.736174470410033
Sn 8.69533285275712 7.936829073393488 8.172252066640874
Sn 6.078839077813163 6.066808455900591 1.3044287529737622
Sn 9.179876903037991 5.430207524411575 3.667694794582831
Sn 10.384087775482307 7.261737697111136 5.678419700799104
Sn 1.942773800501295 3.4886517522273848 2.1635109290235253
Sn 1.3565047388501685 6.199637145253859 8.538924093419215
Sn 8.714144576585857 8.897066526031566 3.477088204272514
Sn 9.951523436192824 1.1491494445580765 4.906979395288374
Sn 4.116351157584126 1.1301592533865548 3.969961973992909
Sn 5.458226901782912 0.03591614242340679 6.909471974431142
Sn 9.75959177299865 3.0971225159400055 10.013447445297674
Sn 2.7402073413739627 7.334143414441073 4.010147247748675
Sn 1.1197132171860635 4.1776862634003225 5.0142526477553515
Sn 6.5283684253023955 2.8345982705839456 5.778021365041363
Sn 5.6974566083538605 7.105398184944333 10.716771334178071
