43
Energy = -151.95297195 eV
Sn 10.877274057421296 0.8394511539275671 5.36523437148838
Sn 6.772000498951466 1.9786386183157605 8.506121476536997
Sn 5.509225664605316 2.6891628085776307 5.484163172820802
Sn 6.239447906708851 0.06657953041137124 4.0327333654436455
Sn 8.418299121909163 2.4332616350984724 2.911218729170118
Sn 7.035680538450194 8.186362666808364 7.6003516369319435
Sn 9.600391945214174 3.7015913840669312 5.156837817858948
Sn 5.056139962963113 5.876555444595386 6.5480654520552966
Sn 3.692657445209241 9.166209165307597 3.512997325726676
Sn 0.9058265677598805 3.344707459774582 7.5380139008714275
Sn 1.676583022619574 4.739504475285692 4.97314476120709
Sn 5.216130433343199 3.3579717115661136 2.510706779958439
Sn 2.5263859566432467 4.517055059667925 1.1510725443932346
Sn 8.913853531061484 5.317013545494335 0.8172556920994999
Sn 2.3598614105940148 10.126863354253869 4.643119733010012
Sn 0.0023936117403070495 10.329607464778048 2.538957071286299
Sn 6.409095260832431 0.9908256959588319 0.9251409927730815
Sn 1.9962624404690819 0.2986761941376098 7.596729394783649
Sn 3.912037049222808 2.7293194816404234 7.945702634917789
Sn 4.065884817981259 5.653222457103005 9.633813738200969
Sn 8.143111822936152 4.223385225817912 6.276370104009585
Sn 6.405705466206073 8.094921590729628 4.617814848852283
Sn 2.3063829687758655 2.055797452846995 3.478944137081264
Sn 9.062665517345051 2.416867687917311 10.966720056852465
Sn 8.472646592084843 1.3100587587964796 5.875800512868168
Sn 7.497879978782107 5.314001727862509 3.556641383665914
Sn 5.000713776117292 10.871951726156663 6.983851239789907
Sn 6.409580118579416 3.9022008786665405 10.55511919135736
Sn 10.286664562453401 2.3208873186484213 2.514421843093441
Sn 6.181151276937384 6.607868234413827 0.9476067706041855
Sn 0.24139862438129342 6.529084141642155 1.3155725631607629
Sn 2.9422126686572834 7.686930669508891 0.7437519070488736
Sn 1.5315759707333012 7.99530972553188 5.26298206154773
Sn 4.649690262600483 7.14928368989028 9.427280551312132
Sn 2.171374351051686 3.192321354840019 9.427280551312132
Sn 3.783693071038071 10.633902089418484 2.026529387726616
Sn 4.17542553362932 9.056882752827073 7.088725179004185
Sn 2.1441897680698436 6.411649084599275 7.739144089940588
Sn 10.61202371472298 4.007184539657283 10.89819112807953
Sn 3.991799521142056 6.171632897632384 3.5311982573585143
Sn 10.27049448201893 6.399311722926492 4.097785209449524
Sn 1.584586030341944 1.1473939190765536 0.5941390406474999
Sn 7.115074800825073 5.3496311452621175 8.848221516831012
