41
Energy = -144.38381499 eV
Sn 7.498001499778022 0.0413684424443108 9.090502554421267
Sn 6.387301012001382 1.2424347739319883 6.553381709503116
Sn 3.6736346388552414 2.7694370436263362 6.768898946777289
Sn 4.378154437257222 0.5479552714238903 8.803605561601858
Sn 6.061363781735391 3.976329473719408 3.3761999599346035
Sn 6.307897845137013 2.3482237555879175 10.457261878299168
Sn 8.611429846565812 2.772870512384734 8.09472118168444
Sn 8.768277552973027 5.391437598375275 4.511906974317204
Sn 7.931411630564136 4.789391793574166 1.1148010784641091
Sn 4.908029798325711 5.079533594679142 0.7501217428721731
Sn 6.119719388490308 4.533813628173644 7.7235244630376405
Sn 3.0014587483641924 5.821705788707896 5.53649608277837
Sn 2.891750125967704 4.053875973752243 3.059074200217867
Sn 9.783157012022999 7.054522888776404 2.181797663816281
Sn 3.6559951576382437 3.6756874911823814 9.586860193018007
Sn 4.5229913681697544 1.5870595369905363 4.147177509292767
Sn 1.9456420770970255 5.500859238929815 0.5836005780922573
Sn 5.386610176673726 6.278482802072211 10.573348486072089
Sn 8.081797338749093 4.853956741018503 10.251707215467043
Sn 10.810753562313831 5.387067460703885 6.937933867168237
Sn 5.929453200781907 6.475311150691505 5.28610353727956
Sn 9.134176208568082 8.022805003416222 6.575307998683712
Sn 3.7756304651504045 8.850230027890438 10.93199922518733
Sn 3.75264150299196 8.04077517601595 1.2966197703953721
Sn 5.4727752956639035 8.277371378871866 8.07471102404648
Sn 2.727938815911639 6.850575721946194 8.615167297465844
Sn 6.577648519755279 7.292753593483901 2.329622232725545
Sn 11.753858689976962 7.3020597036480535 4.743852866079527
Sn 1.3337757269488295 7.013904573507812 3.0858411433788357
Sn 7.055444571687453 9.003266764368574 10.581776020115612
Sn 9.85640815361382 7.177460213356547 9.366773256669372
Sn 6.532045323410957 9.551395878744433 5.19715657666699
Sn 12.452008722267799 7.908491126938506 7.7880556251564785
Sn 9.290767074422709 9.46380314323411 3.8404396424294314
Sn 3.6172927206251013 8.733213659734863 4.2976268553251185
Sn 7.357271669352346 10.817996337787612 7.858493376282312
Sn 5.014861301237034 11.312624412894298 9.648315501759644
Sn 11.494637039178292 10.203663448950577 5.891585594797424
Sn 1.18956563446965 8.384591718836889 5.975368443658979
Sn 2.9271481229091942 9.954046985921773 7.9910752632868975
Sn 10.233886828600198 10.139414598227782 8.712083295796846
