43
Energy = -151.46487157 eV
Sn 5.028985136442631 3.0187506491752205 10.594099254160925
Sn 4.123841959973113 0.18433925745485782 11.765551202473802
Sn 7.1668268087331475 1.0161702346317623 11.813354307972707
Sn 7.343679635032704 4.123431701053097 0.17591698078924126
Sn 2.3441001307743106 2.6973946750497695 0.12357225195597797
Sn 3.5852644591158325 5.785436338856488 0.5891596683136351
Sn 2.6850373938004615 9.06167038044123 0.5564742177001577
Sn 5.067287569293398 2.8267300700037237 1.7197257937098311
Sn 5.844500967203349 8.434201051296201 1.0778355283996803
Sn 5.955491501883672 11.666320449017533 2.1422923856022797
Sn 3.154674763248939 0.6844106806040473 2.785046664334788
Sn 9.149403623581827 5.1604726961395 3.5455326908764695
Sn 0.8832939241696587 6.931900677851889 1.9371955766751232
Sn 8.161992435043878 2.2054886292965357 2.5200550989854116
Sn 0.5773166826163129 2.2880470033957025 2.728828249234233
Sn 6.009488419149307 5.619847704519351 2.9097960903172164
Sn 2.531988591966756 4.547727466758966 3.4192871989705016
Sn 3.683098110847991 7.709563363790781 3.201842573295613
Sn 4.32382057648176 10.626294878768777 2.8922026319924274
Sn 1.2739316209443692 9.700364529963547 3.301970234536098
Sn 5.902712813102302 1.685563712131359 4.58942771778705
Sn 10.33361872172975 3.501927052962026 5.876865783378544
Sn 9.23896663208148 6.517998035804458 6.47285048492858
Sn 6.404025675889429 8.335747502081825 5.9543650046850765
Sn 8.236789053433775 1.5743186604931088 6.949609254929875
Sn 0.9346993369859332 0.8665517260512703 5.659596906372222
Sn 1.1193971779974254 6.9677262203275365 5.244264664399067
Sn 7.866551604292308 8.009128997899737 3.3898451710228676
Sn 4.300301164148116 5.947517643010604 5.670578539172922
Sn 3.8259962533775957 0.058342463532075686 6.003260393852562
Sn 3.0264985734962635 3.159937950568479 6.564263132303187
Sn 3.4958693281632187 9.356540412281433 5.752657103457791
Sn 7.208396392020956 4.2215230439280065 5.767898608618702
Sn 0.12343691125249873 3.8497261050112606 5.5642193975349645
Sn 9.1019015609138 4.23411561030343 8.609280782035045
Sn 3.5691231334620976 1.2472304163098278 8.906282283042316
Sn 6.553180165542248 6.15082087518386 8.241763252269218
Sn 2.981249384785844 6.6672032240541315 8.255578020330443
Sn 0.28913108415292194 5.37420386584365 8.20874027025025
Sn 0.6004615742310802 1.868617825317676 8.518286296034496
Sn 2.706749754864717 4.0343172256858555 9.838705014679862
Sn 6.129442144953252 3.05065398374558 8.495544110130016
Sn 11.88858370581484 3.7628314663993283 10.594099254160925
