40
Energy = -140.55267219 eV
Sn 5.058469587817031 12.073947131844275 4.609881470659145
Sn 2.2639116649093314 10.681939994619698 4.819544522675858
Sn 4.09211775152663 11.068334669340727 7.420200582368309
Sn 4.326316382007171 9.863507790223261 2.5101376383345406
Sn 0.026791460823552975 8.313218244597717 5.296621448873172
Sn 2.5202656588726717 7.662713685512466 3.756252475584048
Sn 7.377956971320369 10.1288883768688 3.5946996136600258
Sn 2.363276328825426 8.496322268120549 7.170874852280379
Sn 7.233525423723763 10.866825073055333 6.613164657573583
Sn 5.2933939062243 8.797455530317658 5.4238956313983
Sn 6.060478717719471 9.004446781433485 9.095610999368928
Sn 0.34920680509564644 5.398846435714399 6.0033096218893505
Sn 6.410091401556696 7.31215371903277 2.144145063826813
Sn 3.9675532130848525 5.950864235542225 6.052794731975406
Sn 6.855720444207906 6.412688076382177 7.686396885537406
Sn 9.479271871132779 7.393490211855548 2.717017501740583
Sn 9.167027568207395 8.892175201750323 8.850523139907732
Sn 4.125835305034875 5.096420097165815 3.0847122886337317
Sn 3.8304471255973533 6.5489928641109225 9.08381222433355
Sn 9.217064546615534 7.919217777917164 5.831163872985008
Sn 7.009705756569716 5.680847703530937 4.660481236541913
Sn 8.023739682984091 4.603096468702125 1.5470899648128775
Sn 11.034699320764899 6.332993739008766 7.882076991618185
Sn 7.54659099334098 6.914758853673366 11.0264288736726
Sn 2.358860274573167 3.4507462933621613 4.97341049621984
Sn 10.953040054136379 4.895585319045366 1.931433549184114
Sn 11.185094033791765 5.608137076860408 4.931846020083573
Sn 10.503699397117675 7.076995433977794 10.839114831356138
Sn 5.375388836361806 3.1377837599398 6.8089144894192986
Sn 2.199455985056214 4.192013646549401 8.00197814352039
Sn 6.3535923725021775 2.882370091389841 3.527474585181119
Sn 9.055371448964346 4.181596131062147 6.742086823920753
Sn 9.587672250876578 2.9246070128752524 3.855661867976671
Sn 9.297216084634162 4.403167314200245 9.918887409489244
Sn 6.046558825793307 4.42867446734671 9.911494314867358
Sn 4.145876155800399 0.9567318876603155 4.808290302379452
Sn 7.6055742385973115 1.1202971787037852 5.8378454687001975
Sn 7.481453912957515 1.8418842635220483 8.782550737133187
Sn 3.907375432447276 2.1004034375400087 9.459132584487051
Sn 5.060455567429783 0.12352564483694024 7.53185067466671
