47
Energy = -166.39731525 eV
Sn 2.1196738994564637 2.0994435921135404 12.017227792134644
Sn 5.154115892072947 1.3935379335001021 12.372787287232214
Sn 7.093817097516824 5.017048405443023 12.47181548088071
Sn 3.1799071345038463 12.098183884161713 12.694438053109952
Sn 4.115924740254899 4.532826268135744 12.627427378670754
Sn 8.95408453479376 3.7219321050503544 1.811906706640987
Sn 5.511399656940998 7.558928260048433 0.4184399469978848
Sn 7.977809175503155 6.793315417252859 2.0910828758995734
Sn 0.9240198143597488 12.307178823467007 1.9114981618604805
Sn 3.2428002738634802 1.5661950762069197 1.8516862571300148
Sn 7.31520717202219 1.2095368470124483 1.5869751979540512
Sn 0.41385990933349054 2.4819336992899377 1.7476733455075661
Sn 5.782217773944821 4.095974335489564 2.1857502071885255
Sn 2.7527787956290606 6.530308164865076 1.6883436535470775
Sn 8.890062010470544 5.122396242303674 4.831284215671703
Sn 5.058181515792068 6.808962209804879 3.5775177847282094
Sn 6.351485650158371 9.615459114481027 2.574293729505312
Sn 3.991983687306999 11.568173271008027 2.66010758708663
Sn 1.448374660473452 4.612818583727045 3.7715883177949285
Sn 8.98733247902642 1.9229483045440887 4.595660003025586
Sn 3.3153340070443953 9.59216579955813 2.5630363258696462
Sn 0.2831044444798014 1.0753513375136743 4.5466146470229
Sn 5.223759242458671 1.5110964143941532 4.0047621793291475
Sn 0.6134370120518653 6.796353447783771 5.8680356488600145
Sn 1.9546854591301601 11.461218990260642 4.634351545518837
Sn 1.906171885792842 11.461218990260644 4.927049079461408
Sn 0.4081390112689994 3.5707931884496866 6.56070897556995
Sn 0.3586951997822883 9.880352583753023 6.629803013368834
Sn 7.153306839360623 12.131451888504133 3.8674251156893447
Sn 4.979987383170783 11.044186726243776 5.108324002296663
Sn 6.478936063463334 3.556714474377168 5.796328294191689
Sn 7.516176349605689 0.6007953281353754 7.036842360862789
Sn 7.216342315814489 8.020628926211401 5.188784427613765
Sn 2.9554846286405385 1.4692338125621225 5.96432620850632
Sn 1.1448133083001126 5.778081091503519 8.636320265882844
Sn 9.285610102954513 3.240322959158775 7.446684252901539
Sn 4.685632121215028 0.4703441698050498 8.418083270736549
Sn 3.0670792964024916 8.573912199816904 5.565712570897689
Sn 4.836565541551257 11.704791618340883 5.944030187323143
Sn 3.4015001740081576 4.926813238320804 6.128035569421971
Sn 2.9600176583503153 11.383651735097851 7.593148522705141
Sn 6.373927133316382 3.0552516112923804 8.80374870186221
Sn 5.2282842037058135 9.128158280238779 7.6192630775265
Sn 7.327393291494309 5.826773970020641 7.59676879053189
Sn 2.839180566589281 3.0230618672478444 8.618013471605538
Sn 2.233666838075666 8.630646051952562 8.767990385174794
Sn 4.339540454772661 6.07449233700447 8.77440917416793
