40
Energy = -141.01128182 eV
Sn 7.665684124840204 5.383433153882482 10.348467578591825
Sn 10.063735662398638 4.5433398980511575 5.851691504088828
Sn 9.913547510280683 6.488013718169762 8.400761570777403
Sn 9.347174741477692 9.489267735350674 7.760955063047643
Sn 8.702428338999969 8.374429158978351 10.585184115186467
Sn 9.027536017523556 7.403626799670951 5.306006522036738
Sn 8.221652512933394 5.252653271890963 2.597892479016873
Sn 8.09657844589622 2.615167054126771 4.283267563606963
Sn 8.519662729845404 3.36283314056491 8.129092134478366
Sn 6.3017305791166915 2.4986866960059713 1.6579291536219765
Sn 6.039110660487797 10.65987798074152 6.533574515221118
Sn 5.5656325714086865 7.887127876880172 10.87224660807686
Sn 6.997659749016388 5.156476812896696 5.571853513494164
Sn 6.755934263050927 7.661619378062923 7.949127767015959
Sn 6.090936641749073 8.352310669012411 4.535954743339651
Sn 6.949477245014332 7.704038074808078 1.2813840803365575
Sn 6.800697439315566 10.484404670636906 9.588688284101837
Sn 6.712136709926608 4.937051970400027 12.459120805219289
Sn 6.388033137675421 1.433443742446748 6.718219841736934
Sn 5.507594089671952 4.481620902921051 8.121708107217085
Sn 3.992450994324366 6.741060473262019 6.117488748321067
Sn 3.3001909643481486 6.6088128308075165 9.14775511238579
Sn 4.884705410058212 5.5339750484622146 2.5358390701923383
Sn 5.291256117137811 12.308167153582103 4.392857479493912
Sn 3.838332483681145 9.729053700368262 8.640212400401605
Sn 4.483221755214221 7.062651121171617 12.223620836148523
Sn 4.676261808654019 2.89272922374552 4.372343581862203
Sn 3.1968366571004623 2.536898478323398 7.474200902707567
Sn 3.1967153046609043 9.895653465635565 5.348665416912392
Sn 3.908787393757525 8.622373880624867 2.2126195911408932
Sn 3.7796540476981053 3.8480551645863295 0.017315374374269905
Sn 4.106530725193204 12.327360917677012 7.501875847308127
Sn 1.51137818108958 8.240616110612722 7.277639562794821
Sn 3.5596806323074395 0.8579641449764008 2.187615480811022
Sn 1.681813928532777 7.345563454472469 4.210983790792789
Sn 2.0046518291973783 6.1308153115852635 1.1904079871439943
Sn 3.035114934970017 10.65987798074152 5.343366449623574
Sn 1.676700281147225 3.2563287340718956 2.4348518149498046
Sn 2.0816441443810785 4.350998695744193 5.2065902971935385
Sn 2.1793855837939327 0.8079798719286175 5.022816720037901
