47
Energy = -166.2976544 eV
Sn 7.727135774799428 6.347733909139865 6.440677120087684
Sn 5.268036160112431 11.876249323931084 7.4896361147264745
Sn 7.229513485873019 3.5843254986296165 4.371293688697132
Sn 11.313950557755012 2.9442454549727213 2.4116661337589256
Sn 5.9155652854757745 5.511637065097662 8.71886965208138
Sn 5.608805050415321 6.95454872244496 11.305910695619108
Sn 3.7894250550475608 5.633866901292804 6.5740043895763804
Sn 2.3481198737631113 2.395000732508606 2.590616239518779
Sn 5.249337333748923 8.455736046378563 7.404876656515281
Sn 8.53558780958695 6.740770568602351 10.740466754625157
Sn 9.112198981962882 0.9522227025178981 4.485035772602784
Sn 1.0879524283870712 4.186931556891155 5.072571913633136
Sn 1.1949289203526268 11.894717566892314 4.180255678562909
Sn 11.699310657101359 6.8988558938372595 4.825180258848997
Sn 0.14868923621614255 10.03584342667803 2.090067128511558
Sn 2.805321963717288 1.8068900207081189 11.519036990293081
Sn 3.0757734991961057 6.189434777086586 9.651466181899375
Sn 2.054633184825508 1.5821744582352801 6.767288293065698
Sn 7.862947878816653 5.375102432876633 1.4631743954210454
Sn 6.2634914477471115 2.7309348331067267 7.4230753040607755
Sn 4.313639978965734 11.243553419578467 4.665226589461629
Sn 4.023242967171121 5.497114247344178 3.5155678812982325
Sn 2.8971733860651976 11.416418578476287 1.5886900752276185
Sn 1.90209533135942 4.717836943480516 0.6030273160481319
Sn 5.265917529361086 10.035843426678026 4.4341611167491815
Sn 7.2320312574447065 10.544841937302966 5.26297822949507
Sn 6.962950998952006 4.066787436323689 10.545611071095502
Sn 1.8032702587621012 7.232407526562159 2.4470891277554983
Sn 6.433533086736347 0.8686305173688131 3.0997022624761787
Sn 10.90800573107481 5.333739482548739 7.527820061607763
Sn 8.337496407598298 0.19988677928751653 7.529261264214934
Sn 2.8550335789382415 8.34865935174842 5.285230764277717
Sn 3.8794187113335266 4.738916517487923 10.213217792938858
Sn 1.4537785309005968 4.117873260372994 8.32694821831269
Sn 9.148707443253164 3.0503680173692915 6.721189275972625
Sn 5.846193464515188 1.5210036594815535 0.17829806683565497
Sn 4.492618433712846 8.551080678902018 1.8155073598502443
Sn 10.161881671962021 0.20466374231967555 3.1667041571775796
Sn 6.573709791626756 7.266354549039281 3.79200539920069
Sn 4.455958159334422 2.3476582107172437 5.033847862044328
Sn 0.0482110974896282 0.6188936127167822 0.5091671619851521
Sn 9.840096997243188 4.412893876927766 4.682359056118984
Sn 11.025923633574422 1.8184245538108836 5.642395386958361
Sn 7.736119526597642 9.326069230174987 5.908891739084001
Sn 5.046847400464313 4.215216529223199 1.0423716885727337
Sn 7.6317977821243215 8.486074246041113 1.0935731416315566
Sn 1.1851586914246475 7.473104209772057 7.622476764538127
