45
Energy = -158.91856006 eV
Sn 5.443082535002069 0.1651484257013853 12.270112992625995
Sn 7.616766248407724 11.731181527497586 1.7459615465628513
Sn 7.74407316118272 9.30866432285761 3.463159960078837
Sn 7.9061107432639615 4.340378257446081 4.384397872682671
Sn 6.788979977586302 5.912613722694217 7.086745009877826
Sn 8.704850906347746 1.5176643647032217 6.130383558881294
Sn 1.1969914475240429 8.883982091954076 8.024357032948348
Sn 9.0250411689115 11.402934971375084 4.57369947944579
Sn 3.8139244299253874 3.463906233253532 8.276820952628746
Sn 2.3045254629300476 5.373204384313761 12.265881120659687
Sn 3.677203655092827 10.269709654693266 6.648507363265866
Sn 9.018675657831855 7.111884235280536 5.268018334233266
Sn 3.159126892716504 8.554246113628468 12.259945185806277
Sn 6.710088270182841 9.00197111031521 6.415681380137763
Sn 6.439335143042065 2.3984862804793856 1.5039677277789973
Sn 6.758070779457581 11.63264128867036 6.825664782256269
Sn 4.2911807362163685 7.897424328781399 8.590875051902843
Sn 12.38495591359488 0.31765162253271406 4.028006483424328
Sn 9.163901484064542 1.580025165775051 3.043704015824516
Sn 6.184958132279745 10.269709654693266 4.143252849437062
Sn 0.8281950434345714 2.453374485766691 2.084105156135416
Sn 3.125362523745287 7.156980049681813 5.953086357684527
Sn 4.971465333341522 3.644077105061951 5.365639157274151
Sn 1.4466735524209378 11.897932568502705 6.416598328229705
Sn 2.760980568312684 1.2023169416556267 4.274298589999727
Sn 3.2932071492734107 2.2306504052949663 0.37275235362866505
Sn 7.965803969749689 6.540091169995182 2.201434892094038
Sn 1.7205947697909147 5.879189971338844 8.675755221397397
Sn 3.4675625850979883 4.322550792694213 2.727408135859402
Sn 11.565276235257835 4.202676210627412 7.973263145124433
Sn 4.211764981187479 6.637173941852208 10.262787481048656
Sn 0.2929039665333387 5.145578269128464 3.32736466593159
Sn 4.0911281116648635 0.6762298938252407 7.037921115429425
Sn 4.614421041516067 9.460827014280976 3.6768859717437774
Sn 6.296553973865861 0.9273442262437613 4.358214340739286
Sn 5.1993958509208476 6.617157782423732 0.6933877236352427
Sn 5.274281619553651 4.165295362786284 11.553889192227777
Sn 12.429985378673166 6.778807101165363 6.1852285324131735
Sn 5.822749112853741 6.75507128079054 4.290370231070876
Sn 4.34980921785567 11.996435238562949 2.3733334865825126
Sn 2.5123370584633884 7.308025569310092 2.409579583432395
Sn 11.667135550388911 2.93121492121141 5.286643766593198
Sn 1.2909697000957954 9.285383893874487 4.871656299323337
Sn 1.0301878252896035 1.9652234399991333 7.824619060734776
Sn 1.898932495262769 4.258284335172011 5.870054555207901
