45
Energy = -158.23528629 eV
Sn 10.451260311793579 5.4000200376017915 3.099604614868914
Sn 8.096689883454259 2.488443801553433 1.5120534920841286
Sn 9.229502309909165 3.9206789626595486 5.9341642080434776
Sn 2.8564709358321867 11.440002015406492 0.5036490280258421
Sn 6.284586896155942 0.9816923875688006 6.383875099138297
Sn 0.10083024159229324 3.844447311314375 5.416833825999887
Sn 2.1668557633979324 9.350039190160649 3.5595640694909263
Sn 11.049535753366134 8.348670583280988 4.19980129675064
Sn 2.0200153574707276 6.781671609254221 8.23245468321651
Sn 6.645639767085271 5.673680699535451 0.8861445237337877
Sn 3.0287812217856844 3.040881734928113 5.290847318760962
Sn 11.087102151078698 6.536078421827755 6.729881178020714
Sn 5.821203579696265 0.1402303693942274 0.12804601553020759
Sn 4.738618535281544 5.646997942833359 5.999697202195226
Sn 7.4761007896600935 10.09770896350993 4.8280946495302475
Sn 0.5648869479185691 0.8802800457510783 5.885991224741745
Sn 6.608029073998662 7.288621020648715 4.0850931171854885
Sn 7.6419331234470675 6.516031388488981 6.897359925627134
Sn 3.3458471339504534 9.34773322164623 8.978941843204602
Sn 6.6928697759500215 3.777135141608449 7.844113130152425
Sn 5.23862146188977 6.810863850885331 8.865940802455045
Sn 0.6607503520189023 1.8331936458848608 0.974973853666913
Sn 4.600217231142633 3.5400779157614504 1.7293159296141567
Sn 4.21426398789972 8.736025611730726 6.09292649328273
Sn 3.156399002392481 2.708180077707808 10.922500425082452
Sn 5.361211675097323 0.8153149446152052 3.2037429455070887
Sn 8.220123973163899 10.973427225535914 1.9610626153490651
Sn 0.13588374382007273 7.403767358954123 1.2102040460619656
Sn 2.175714272392946 0.7651166423710255 3.408093280588012
Sn 11.210127650490625 4.585541427854566 0.11445525978359691
Sn 1.2387494981222373 9.438456929015375 6.729536946926919
Sn 6.296286382488054 3.044399154060658 10.825134360595335
Sn 8.831131841870054 1.1201737844440938 4.320748669627377
Sn 1.6011203255018298 4.287401863151068 2.5453656169468557
Sn 8.629557607868168 5.060799797709892 3.1887525074668144
Sn 3.240361701696676 0.865832382132802 7.370631238714476
Sn 4.257675250330414 10.352637170051732 5.220616468947513
Sn 2.849688774345028 8.533529169709649 0.55222392575771
Sn 2.497678018963677 9.483043813778758 2.8508608517821203
Sn 6.424574001561507 3.485519041574384 4.540951707075428
Sn 1.8896546472968234 6.6278092228837755 4.947939735112824
Sn 2.421827622921178 5.6588692555741025 11.413163145994533
Sn 5.462168283244459 9.438456929015375 2.2779997706957777
Sn 3.6124143886937894 4.003496617642608 8.374359561979215
Sn 4.096722513147655 6.5842778754234805 2.4781867582385537
