49
Energy = -173.50929081 eV
Sn 6.808167539873223 9.459026407409167 10.279379538065482
Sn 5.719967628587671 10.568553422984078 7.465021526757425
Sn 2.5787758049630463 8.399066143517514 4.805748422345028
Sn 4.7152543100130355 10.435269265680882 4.5238831968632365
Sn 7.829040452217429 7.37173869987705 12.292866164487847
Sn 4.758796773624206 7.459101380047763 11.840487355273263
Sn 5.675841982695826 10.816072874145194 1.5148980549596605
Sn 3.8642329270717894 8.749720793090146 9.124774903580306
Sn 6.490399885112549 6.503932636747957 9.247904332146101
Sn 7.686147673617982 9.526935339048132 3.820884143300167
Sn 6.142111342520049 4.650909732914614 11.700636327156433
Sn 9.272015091735373 7.795826464967223 9.426473863030324
Sn 1.2596724915366015 6.910295471171604 9.571167973783194
Sn 8.19784320345857 8.949061820624728 6.742151978170112
Sn 2.1754168209351055 7.9147128380711695 1.8174786137293397
Sn 5.410206144671046 7.728297815292077 6.109821989495367
Sn 5.324773553927985 7.685776935523662 2.5467996396441768
Sn 0.48560696232540335 6.199855497823331 6.715507426840881
Sn 9.023700778963134 4.990871095894398 10.60674627160513
Sn 8.874508493481796 10.709187500899711 1.4526984930679994
Sn 4.441163847707142 8.536612402768226 12.65153498695539
Sn 2.9055535622713102 4.83468351553791 11.08296696935607
Sn 7.396956308980034 9.15754193068352 12.292866164487847
Sn 3.440633893820546 5.886780826513669 7.644130957156568
Sn 1.8613964029976424 5.159795327206871 0.7470256594895469
Sn 0.902332864277736 3.8980748470528304 8.90363449576572
Sn 9.709085153999467 5.77042193130604 6.550332539866874
Sn 3.138708572560095 5.447124761999581 3.606000092676555
Sn 8.932979297241081 7.502470181468335 1.6561687572598545
Sn 4.721306856313376 4.237761630154518 1.1657678930008863
Sn 1.6789064849249213 3.6761050381745997 5.6766218986339
Sn 7.269810361135622 2.285597301808525 9.605405242561517
Sn 6.686517776081887 6.205557797960427 12.681856947821798
Sn 7.612512570009163 6.329187091589938 4.247296264727519
Sn 9.858343607710895 3.21452235108985 8.239487104537913
Sn 7.054377630554808 4.1686503730341675 6.989895625013075
Sn 5.651861198588635 3.696605095959431 4.2644494399986055
Sn 4.413768357233704 3.3219816024466424 8.85050895970105
Sn 0.8247723400558202 3.232335190010887 2.8466732248283373
Sn 2.5361989671041276 1.4854228773940945 7.467683324389368
Sn 9.307476248887044 3.1943404991699302 4.910416370102312
Sn 7.4455286251951565 1.085249485929428 6.746646138111503
Sn 7.839893386037473 3.5899040611559228 2.0974441222036866
Sn 5.866986203108269 1.506469111938579 0.6559928979652039
Sn 7.155617228957479 0.8007122919569901 3.433122136163472
Sn 3.32553048937555 1.7663834588969638 2.583093194952565
Sn 4.670120635658658 1.0330049616685761 5.262211699347662
Sn 9.658082099909167 0.25998601657793413 4.910508221607947
Sn 4.739536310705945 12.097556384795752 2.563205617488101
