43
Energy = -151.43839267 eV
Sn 5.5617209612331475 9.615555288251077 1.241591426727691
Sn 3.5244511071582942 10.634348365523211 11.386832262608253
Sn 2.551181723264232 9.748677731189636 2.1294073863636953
Sn 4.8157632606403915 10.69220916169272 4.050638639992643
Sn 6.300411305151126 2.7604656317420013 11.596507478078339
Sn 4.663981625175583 0.6276191661048554 1.1623854085537135
Sn 7.437273561813901 11.913489628546296 2.16788337013244
Sn 1.6291733413980551 0.3689332652034733 0.8165758065265475
Sn 2.0342181606224727 0.12672100485882906 3.9457966809425704
Sn 3.4329453615711865 3.6680170557453065 12.068676316839579
Sn 7.334943969090483 11.889953515274069 5.1865150518228065
Sn 8.673786531268142 4.115761454489953 0.8827625060477944
Sn 4.957539604370637 1.79793484877559 4.338150754414697
Sn 5.791838437016857 4.15327046987731 2.280890681859129
Sn 2.932376417693794 0.2305282581354989 7.0806327943246306
Sn 6.253549144827844 5.765168348322268 11.410705767643579
Sn 2.0271756829059493 2.9682501678893245 2.6703317553242507
Sn 8.12566757319494 2.485021963994126 3.4738607558835435
Sn 11.16166840330405 3.4925384617792496 3.3627370703620465
Sn 0.7470761890462799 7.829653167425939 1.229351035894946
Sn 5.352408080185392 8.340072303068386 0.8094804828605432
Sn 3.811488798755829 7.350268052599968 8.525522758951348
Sn 3.172374960108188 9.615555288251077 6.42346065957547
Sn 1.1078645616754488 7.224617934378262 6.922946324387368
Sn 1.8868697259828142 4.852002728816753 9.244558670846997
Sn 6.054402689353137 8.56481250593494 6.454989956345274
Sn 4.0890867231899595 6.2330033874516735 5.6601984446422975
Sn 5.185191464060689 4.556428460667302 8.292567119224975
Sn 1.3631377699306988 8.889040850405248 4.0353692558341985
Sn 12.0917200564492 4.240163111694951 6.824206253640023
Sn 4.52668913451554 8.926388113707326 3.7451573901781083
Sn 3.634162704184999 2.275221271621141 9.648632879254023
Sn 7.62763273891641 3.536690838470258 6.328007526227462
Sn 2.893600920003055 3.2615646565402625 6.594038421978515
Sn 7.1464929060485085 6.185779901545848 5.005826697473712
Sn 0.8478864734764473 1.8251076361068965 8.642733563884024
Sn 7.547915657499996 6.705196908180144 2.053919402286239
Sn 0.923256567995146 5.772855260288535 4.131102081700606
Sn 5.770256578992733 1.2763227832106256 7.3605849759382425
Sn 10.438023501064272 6.25596692732514 2.469939506783836
Sn 0.2842711513271485 4.8041861994006805 0.6497055918824055
Sn 3.0116278822320752 6.686196728978893 11.598879178830744
Sn 3.4504123362121857 6.2349923055713665 2.4848125605913065
