48
Energy = -169.12560521 eV
Sn 2.410476550683454 4.144329296844796 10.355507253282997
Sn 5.403317996603707 4.568564710752481 11.058494660423003
Sn 7.4349650546071615 9.436013744704912 0.8778872614598328
Sn 3.5669153214915275 3.7500753146213492 1.1893123011703468
Sn 3.292482891900975 6.7463192381926795 0.11716285408545546
Sn 9.275730629047855 7.096857991749023 1.2959468137557153
Sn 1.449620021709638 1.8222921113208441 12.08310306471914
Sn 0.5692715459869876 5.119848816902646 0.4909973549256362
Sn 4.04649800265741 0.44274301241172975 0.9168536897166915
Sn 11.16984461356211 2.82409817113305 1.517342178415811
Sn 6.360417066386314 2.298968220918735 0.8712141652761052
Sn 6.341639710464684 6.3841745132535435 1.1706559039670534
Sn 4.8379655735497336 8.817034124060427 2.359946714441768
Sn 8.017363577212482 8.951374202379414 3.7390798935582454
Sn 1.444773361273292 3.344015247877029 3.4847437518003654
Sn 10.478078917099298 7.977188515624886 5.159040231795855
Sn 1.67049502253113 0.13329063706073707 3.155672155500333
Sn 4.311263666500954 10.598950138522804 3.2873537015175436
Sn 2.0260771926231724 6.58939744575225 3.0618505217769636
Sn 8.454274298933825 5.695111778837666 3.7807139921427
Sn 10.701535423551277 2.9075213249686627 4.59858636912444
Sn 11.229383393123333 5.796758794852588 3.6955778337296437
Sn 4.436799132087199 1.6540806699199193 3.7339890306963204
Sn 5.286393607647837 5.050527275232286 3.7228511944554867
Sn 10.513692404537776 7.5934246432674595 8.143263096724269
Sn 10.701535423551277 5.01318883095897 6.010271421009393
Sn 7.516808705625664 2.5609172118011467 3.8776552646584257
Sn 2.634596505570891 9.19962851110461 4.572298838032142
Sn 6.357511256625714 12.098503542050098 5.350328039450527
Sn 0.645702183927608 1.0716636120307903 6.00004526313674
Sn 8.018496448076915 6.405842550718514 6.922876032467463
Sn 5.66822206776926 7.627164994232653 5.102965856271493
Sn 6.1188026815259375 3.7442527824951757 6.559000204007335
Sn 0.11953557718400189 7.727195628590613 5.880811416962135
Sn 2.634179348470199 5.871644756889025 6.078753717418959
Sn 3.142960448130804 2.9093675184926897 6.33171588154048
Sn 7.89352272294731 6.6248267910061776 9.960291691852486
Sn 11.892910443351296 4.854794018215976 6.789269105397152
Sn 10.118168642151197 4.68694280779452 9.085680965381286
Sn 3.2936263673258868 11.556995311320255 6.007749313423822
Sn 5.2489439153675725 1.1407722721839026 8.034197321029781
Sn 3.8559265183952856 8.2329554929127 7.454065857331962
Sn 8.917778303054998 2.610508938651405 6.987819044645367
Sn 2.432872034922088 4.322248046133988 9.029541019911923
Sn 7.248966404134942 3.486738834472127 9.489261797504252
Sn 1.217335669028264 7.09140691522531 8.71899038752551
Sn 5.102253688660572 5.673116194278478 8.688727659308963
Sn 2.19725246195914 1.293634585308845 8.747808001301802
