41
Energy = -144.29755129 eV
Sn 2.9264204316169353 2.94074218476547 10.378822878741799
Sn 4.598620838485793 7.93181012428345 10.779141094728514
Sn 6.838404595101792 5.8468063796768375 0.37771276323948716
Sn 0.5453636357384556 4.895997803928424 0.8633124733531375
Sn 4.719841502884435 1.7381262596771532 1.5336266868260782
Sn 0.6484966664455196 1.7266945009551742 1.2343614858844079
Sn 3.802396035820091 5.220085295284672 1.200153776826525
Sn 7.39461851943026 3.1575920209105717 1.9642136321910413
Sn 6.203011795091507 6.224646123525118 3.4552370334481046
Sn 3.7607132823331444 8.038137798433759 2.90620752185552
Sn 8.714946020380934 4.45093239132216 4.509450204141662
Sn 4.5642309415210125 3.748960333609195 3.9109775048396243
Sn 6.735252897626122 8.849792848027853 1.7475692486185215
Sn 9.355910152172937 3.4290009188497015 2.745242884027324
Sn 3.100854983468759 0.8626275305064856 3.952709269999754
Sn 6.811197526513125 10.414519446568718 3.161881809861181
Sn 10.789338980551687 6.137515817335619 3.7377302388400664
Sn 10.883467252565138 1.065236977038923 4.22944496186727
Sn 5.453957300213717 7.105190085376438 6.390569603647226
Sn 9.059518777243426 6.889416308014538 2.3866460747950793
Sn 1.563925948397239 3.6659876389319637 3.4571165783601474
Sn 6.064028629622167 9.801955109975559 4.767000651294768
Sn 6.511545520940817 1.788395185166484 5.093612713844533
Sn 8.336484395802948 7.696413835817852 5.275490270037099
Sn 9.326382505109125 1.0813903079812714 3.9242296150549665
Sn 8.310241780874197 5.499034319324253 7.44416807319899
Sn 10.487017597818154 3.771237497791567 5.714422376402945
Sn 5.09197279974681 10.041005898626244 5.725545098178596
Sn 3.1209292345462822 9.448908610752607 5.729716081985871
Sn 6.452255820330171 7.38115349085054 9.248700222483945
Sn 3.3034841966256265 2.5200115573437607 6.637339158616321
Sn 2.8232160057446274 6.088573448995206 5.230662780908572
Sn 0.9390150759053663 7.42051961410091 7.094077263162089
Sn 5.524809703503045 4.182532746666959 7.859485401829143
Sn 5.44928050618162 9.886273694807455 7.903974598890368
Sn 8.814315016156222 2.0860827363110435 6.965742823556951
Sn 8.189609971893322 10.073593955233711 6.080948970538731
Sn 2.166988311140118 4.922803285894124 8.27272482237227
Sn 6.097335767404381 0.911693951815715 8.019971315952706
Sn 3.2503318538215824 7.942764131820032 9.057268793373948
Sn 4.455239054021238 5.381339567357002 10.378822878741799
