42
Energy = -148.30264599 eV
Sn 4.678686189508566 7.427524473756354 10.909404668892874
Sn 5.720785144833711 4.541530612310839 10.925133633717401
Sn 3.141420243338061 1.6037893463083803 1.8966130623439885
Sn 6.230149597760279 1.5836446894708147 1.2910003305390882
Sn 7.769904103499335 7.031235357749304 0.3208399072760864
Sn 5.897113824792615 8.878232518087714 2.2652049714302143
Sn 2.3609458806616255 5.02378950488036 1.4907752324118744
Sn 8.542867937343242 4.140016289018654 1.0397166995635954
Sn 2.5996484648389204 8.02030053925324 2.237784667842457
Sn 1.00987325045519 3.436881676501794 3.849393767019993
Sn 2.7461754990231686 0.5732785224663383 4.805289516087833
Sn 7.69455609582608 0.565575964994135 3.910312015934124
Sn 5.182441808270776 2.392600647989855 4.032890589946081
Sn 5.68907110112665 5.715092420801742 2.619012845242292
Sn 4.91062401958145 10.333860192945913 3.034360773246776
Sn 7.93689629683434 9.440592397144231 5.6032695210619154
Sn 8.605243954421214 7.724933229337679 3.3075682020905637
Sn 10.968817196535632 6.3530431777726015 2.991808024990746
Sn 5.074522094533607 8.141179290890634 5.122298695544918
Sn 10.684119927983105 5.704150814327172 2.8879426701833584
Sn 2.9810015140191624 5.785304916804245 4.4134831857335675
Sn 10.439007052036283 5.317422696912462 5.881067813729555
Sn 7.3102174705831855 6.401808235368849 6.241648688770701
Sn 8.102860598725307 4.372486860010458 4.029555576721433
Sn 1.233027087937466 8.38167736933797 4.9901025976077085
Sn 0.35044813131286134 5.580808288715419 6.0234046476875145
Sn 9.236557425038166 2.535776095664568 6.059485877855977
Sn 5.5427260882455265 0.07513903188748565 5.984397081724417
Sn 3.5581465180032246 9.475814910544248 7.327536457830282
Sn 2.3668165473737535 2.5060839405476916 7.491569653922226
Sn 4.726690834338612 4.042875767867621 6.641829763177947
Sn 4.1222817137909376 6.631398719458906 8.129421650299802
Sn 6.4476191444241335 8.790057351994921 8.534398892951003
Sn 9.725018896330475 7.787889527621493 7.514359779367314
Sn 7.250370138359752 3.3753887065641486 8.106665159985745
Sn 7.96748198140538 6.000173016363152 9.378321135043672
Sn 1.0241648009888698 7.8660402983381985 8.123393090806045
Sn 5.56140853104999 6.8842978360756995 10.909404668892874
Sn 1.0612652181234883 4.753118943749412 9.035347754059895
Sn 5.013240953556481 1.5907656699595287 8.746869568482039
Sn 4.066045983413057 4.276009575433972 10.163634358314695
Sn 2.4279259801355706 6.896595815131537 10.76407377387295
