42
Energy = -148.08497923 eV
Sn 2.6316695965971837 7.725031547734787 8.139398360205654
Sn 1.4680113157729089 9.45816083741723 5.882086649158264
Sn 5.150996673460242 9.050056313798654 9.041123161907015
Sn 5.576130801575825 7.6022490365862785 11.613463763379473
Sn 3.3636949663643563 5.734832275564696 10.81329792368661
Sn 0.2319689799077513 6.663012318419615 6.426430787877096
Sn 4.643197162573461 9.891813412448647 6.15463607133185
Sn 1.1543842510310802 5.078468618821148 8.892331053654312
Sn 8.34253624200647 8.340417318977332 9.246360916422015
Sn 6.626917500115681 7.432763929111548 6.437722277452538
Sn 8.214296160045802 10.306727121576246 7.050240855189519
Sn 10.986528934201884 9.05152560270456 7.558837208093206
Sn 3.382145923917212 5.381179681138272 6.419900225193341
Sn 0.9654916933091656 7.437822011518651 3.312229073847393
Sn 5.98417143409536 5.8765065150719975 9.052228492339273
Sn 3.217198235297601 9.60439735590053 3.1608176804528774
Sn 8.225970828237033 6.070028831844011 11.15374465535326
Sn 0.983356323998171 4.334833919805191 4.659161962604484
Sn 10.969768103507656 6.263710285134567 8.892814263233047
Sn 2.6649257928525554 2.325548715489959 6.269839429110164
Sn 3.8734036931145077 3.353667749462958 8.817691846472009
Sn 9.01484751038796 3.7842268613111263 9.015125935317155
Sn 4.1581557031670595 6.702383099031837 3.4982646288859214
Sn 11.982415661455153 3.7653670370327235 7.346001667087113
Sn 6.764553931854192 9.555720926753809 3.9869647760534628
Sn 2.5739419666361893 7.774090627000025 0.6898377778851499
Sn 9.095038503713297 5.361970582683511 6.395203955212755
Sn 6.593511963888528 2.6526935285047872 7.156123346556309
Sn 9.474319072235593 8.352383365905645 4.908339604031752
Sn 6.290832633711683 4.61652391063966 4.811326268963867
Sn 5.059806994415046 0.7211662882129795 5.356420668263141
Sn 5.501816401827039 8.619949070324541 1.1272892919090636
Sn 2.156495048675498 4.793258234075286 1.7349475406210133
Sn 4.190565824948618 3.031959120123726 3.3774252494320045
Sn 7.492972354597541 6.6680246419733455 2.857803863427536
Sn 11.95187566655011 6.554765142700403 5.8189716956504975
Sn 4.9620363623272175 5.600976389731475 0.6910883267531074
Sn 9.757653635556254 1.7949232948910285 6.66422196606896
Sn 10.832008936183456 3.8337842022676276 4.476203171286887
Sn 7.961137156559282 2.014365945210346 4.291614247358719
Sn 5.935727257102018 0.7037882375406936 2.4469821439487243
Sn 7.113520509528249 3.6104163909831253 1.8659794816845245
