43
Energy = -151.9521244 eV
Sn 3.4464177740884065 6.671497633536173 1.052930283574114
Sn 3.8568121485944316 4.823284941039784 9.663818388116368
Sn 6.2615773911017865 2.8844944742495944 9.52997818913282
Sn 6.540415130059272 5.54278821800406 11.107891883067312
Sn 0.4009046782051097 1.702371700033498 10.735838089507569
Sn 10.701201684460019 6.5397391853646285 1.0320796144021904
Sn 3.366226357890155 1.817437479073603 10.286991027189929
Sn 5.944133930544617 7.863215858260348 2.836625255374416
Sn 4.406869632333576 5.285661751475308 3.8150740919628485
Sn 4.74905189905598 3.4640556902449293 1.2464507963432847
Sn 7.796619580873483 2.862074819684596 1.0369120641832492
Sn 1.4574804599872366 4.175004780197995 0.7554789261927314
Sn 1.1879961440989615 8.967664475760493 1.56445459379394
Sn 5.687958206237131 0.5650952889720829 0.5745227565005173
Sn 10.008578036549327 5.335741954876326 3.806203332705559
Sn 0.7027042776173626 0.5519055501364998 2.180065158237933
Sn 9.822963955213057 8.451474773948455 3.352318318874035
Sn 7.784195631148724 5.450954724259514 2.993988300733078
Sn 1.8830413521183778 9.485065085797222 3.616960336127627
Sn 1.450940462337977 6.595323734337348 3.5534764132470174
Sn 3.7395984827007407 0.4855171397107034 2.9131119712852485
Sn 6.886913695633544 2.8138110988129577 4.421046190239238
Sn 2.2441357120580268 3.022671675190842 3.409911473994118
Sn 5.419515835564718 10.481768015743006 5.146915834243975
Sn 8.322959092801339 0.2103954633791868 4.878729199653644
Sn 2.1234124017073817 0.16234050667571612 5.857114207439484
Sn 10.73599386833262 2.2953424581487325 4.468725458802616
Sn 8.760542095753456 5.038404915003483 5.945430892167258
Sn 4.06645589794034 8.209126067430288 5.237504307579589
Sn 4.583036954358546 2.239310214857822 6.355572959526991
Sn 11.028566387377497 7.206600349734267 6.0378918885955475
Sn 1.2434994488856186 9.485065085797222 4.625433169808726
Sn 5.847735478920689 5.449342773587412 6.522317928472856
Sn 7.246989835878378 8.000142487025446 5.75171689956331
Sn 7.329309375681699 10.71374303849544 7.715537970708868
Sn 2.7204383412411377 6.125653556238624 7.0195818694005
Sn 5.9787012707176155 2.0068549388954127 9.063823780937323
Sn 1.6442012307101723 3.0910127246141568 6.443610140683596
Sn 8.661304550731632 2.146182983823797 7.252423585571997
Sn 4.278725480709106 10.705840443971136 7.936290300984331
Sn 7.759975591476982 4.658586992759284 8.922709956574005
Sn 5.183148555777512 8.082888800834134 8.082787346722212
Sn 4.685848706720642 5.033733354298769 9.196851871971342
