42
Energy = -148.31549707 eV
Sn 4.085136176941386 6.998860944939537 0.9457834486499945
Sn 3.362033025336332 3.9204786641560374 0.8130916394338781
Sn 6.60967991445011 8.927593417864617 2.294679247287802
Sn 3.586539140426196 8.838551493673592 3.565925863112564
Sn 5.50805569136143 11.551485920203785 3.5174248211816805
Sn 5.871885325257739 5.21440634347655 2.303231390842857
Sn 2.1551218832930026 5.797636973809514 3.0068410772873255
Sn 5.357484226120659 2.1963261950952018 2.357597276079688
Sn 2.3219043232224412 2.6568195084098107 3.423724175089884
Sn 8.853624234711098 7.171346793011491 3.435042132820704
Sn 5.9414875851755165 7.67616453380838 5.138964817645382
Sn 8.39065232824978 10.555279906732771 4.278676274989431
Sn 2.4728322406288132 7.676774978907921 6.3566207321562365
Sn 4.286107759701727 10.601452223621695 6.196347986879695
Sn 6.869176478214626 12.524088161607619 6.0140543889180345
Sn 8.485525297444928 4.0552996268322685 3.362761619297811
Sn 5.866000838361595 4.305948440071114 5.232245230347702
Sn 2.948968132692378 4.587859164250827 5.783414034138388
Sn 4.459269074363825 1.4159603048650187 5.280423960222663
Sn 2.46230582643527 2.2077437547738525 7.507479442438434
Sn 11.192139939830957 4.404953949074393 4.91049252048552
Sn 4.984393039513323 2.0690489641116114 9.373096138299857
Sn 11.253704719686983 7.51413795188435 5.407306225168647
Sn 3.272220935644664 9.371682111062082 9.09974938147427
Sn 7.435599879042317 1.4906230160421725 4.745570710342159
Sn 10.063752440477717 9.995567921081397 6.783974221949226
Sn 4.882395005356593 6.766913772759782 8.063225309869184
Sn 9.108277791192213 2.93258190868773 6.85108065734197
Sn 8.591306020832926 5.939777194616575 6.222902735089988
Sn 1.5099523304513596 6.817184190131198 9.314121389204711
Sn 12.132192285571707 5.798382783279873 7.7558028196300555
Sn 7.18024732209779 9.484437213664886 7.203614150912909
Sn 3.2725223971464885 4.501571924624203 9.359711680913298
Sn 6.800890826734211 4.25172707225039 8.47199611021624
Sn 5.62786411615751 11.64310635593118 8.732028616941989
Sn 3.932697973194939 6.995963114652519 11.23206147075166
Sn 10.084923727585492 4.25427734614666 9.511052380146724
Sn 12.034020591221827 2.8325895870714226 7.4185778399344
Sn 6.211074800566051 8.796395775055736 10.088982522600567
Sn 9.727400427818166 7.384877549117766 8.628712529252306
Sn 5.361484811695528 4.164443901432419 11.59851875337247
Sn 7.734860291242474 6.006277531313845 10.72896919083867
