41
Energy = -144.27539022 eV
Sn 6.17033513808063 6.70974775305371 10.046850235646216
Sn 5.4139602144653916 0.17560354020384603 5.373955138703016
Sn 10.038881925712795 7.357599045345537 7.698761590546779
Sn 5.856951245148282 7.399546839740086 4.908611387394002
Sn 5.649655153380423 7.143255653304118 11.282348312097431
Sn 5.681758198819457 0.7743877223076794 2.2231515729160147
Sn 2.8111560543198024 2.378548733208678 9.610791059926084
Sn 4.038381352807647 4.9362113548686075 11.282348312097431
Sn 2.544173512817748 0.9978655676756576 6.534780276575643
Sn 8.218765932320322 2.456128178796273 1.4348993212538428
Sn 5.956175342703464 2.862946912527013 10.139051823840745
Sn 7.599789693216186 2.806376992543134 7.279829129454558
Sn 5.785095329863682 10.225624501386498 6.185619103034307
Sn 3.0506575557704205 8.849587349456659 0.16115408471022205
Sn 1.2461433851416621 7.135206919686273 2.017764222471749
Sn 4.305240238428902 6.657585480194088 2.321337790770884
Sn 9.611290671478894 6.215127643860694 5.002320215252516
Sn 8.378804477554363 7.749145780063081 2.640481835791112
Sn 1.286927626589483 2.651466614034287 3.971751346040027
Sn 2.372190540426597 5.686009470979155 4.58507118675362
Sn 8.454610789773312 4.68286731166158 9.578484748038974
Sn 4.62576165514824 9.207706967064274 8.856017899689315
Sn 4.693329606474491 3.3736178534597108 7.012245026011868
Sn 3.1637796043647497 8.431442599457247 6.234996106729344
Sn 7.849733684764916 1.8400773152161152 4.358011030845463
Sn 8.152699895511129 5.423978119727467 0.6595304974425862
Sn 7.3139552018679606 5.9498483619724345 7.1448417995296865
Sn 4.403030704519715 3.4133906684166386 3.8330979907096596
Sn 8.56216443206937 9.201296707503262 5.322829666614314
Sn 7.208105524648046 4.750613155442522 3.5006325773863582
Sn 5.78243836737586 9.404296433404115 1.820054686226035
Sn 2.8103171998113012 5.737947610988516 11.427817162354131
Sn 5.013272345315942 0.4486153384695444 8.586855935082324
Sn 3.763713053526005 6.018746239169061 8.235780382641211
Sn 1.3955658284700883 5.06190326642541 9.922741959442053
Sn 1.4273002013277347 3.848568371464096 7.044004865500096
Sn 2.835885377342087 11.63882878772054 3.675639931115057
Sn 2.949596414893625 2.092136230565637 1.4206521213248817
Sn 5.341587831229121 3.9819369741624944 0.7930344170748409
Sn 7.623663762197337 8.981483337227644 8.460259235648873
Sn 3.006552216578438 9.43781702132012 3.208378177209837
