45
Energy = -158.9514071 eV
Sn 11.31894361371684 5.475538524542269 5.102266389811983
Sn 11.617229633295556 2.709621855774518 6.441502831074074
Sn 9.077499581322616 2.0565503532494867 8.318456247783054
Sn 9.465465805952153 8.580974521916783 2.7476962597335746
Sn 10.756085344753341 6.780397866124169 7.959798867337846
Sn 8.915932388905299 8.047435517311325 5.9235308862009175
Sn 9.275460587479456 0.7910921219494383 5.423677074928657
Sn 9.227950095971009 10.883496559343591 4.973631323200378
Sn 10.910826289625797 2.7297533495465767 3.473088617914021
Sn 8.25434744471269 8.215896648353745 9.132369008079081
Sn 7.233864334274628 10.423579130067147 7.257587701872818
Sn 9.729787736215416 5.402943032274281 2.4940205091541223
Sn 6.89104773745427 10.295786082907973 3.1110731565947383
Sn 8.65130752057015 4.959231795053483 9.14632669108822
Sn 6.831271641550308 7.081968831393403 3.8918401008921784
Sn 8.723734979164634 4.080470808191065 5.903044188354284
Sn 6.531145567433431 0.8985586457776096 7.224981623123706
Sn 6.493841244059029 6.362840615897424 10.700074467265395
Sn 6.439686868567152 6.197802868192733 7.287779436716323
Sn 7.034645652795228 8.240701729360502 0.7413933328492628
Sn 5.188133811260581 9.347521441066089 5.396028415850619
Sn 7.798049307118998 2.6543689411614007 3.345635194383912
Sn 6.722050349521216 5.201514193313632 1.6028667710179318
Sn 4.797127483317828 10.417091085696356 1.0208004300481088
Sn 2.918617018835787 9.995504760708096 3.4414020473817892
Sn 5.276153461699521 3.295193357811795 5.235500168621681
Sn 6.146990093177147 0.26571242703330417 4.3305138809879615
Sn 5.280351131842438 3.4493930665079766 8.347141225207324
Sn 3.635387584831415 6.524502168373661 4.587491975756121
Sn 4.7956457952736775 8.331522475198069 8.661174867143332
Sn 2.949499041923394 1.7146709152333293 6.818823098277952
Sn 4.137887294692317 3.785224842804206 2.4120708891198355
Sn 1.6685812161415907 5.479367291399246 2.2281227246936566
Sn 3.99695258443093 7.579296883820396 1.7098766309649112
Sn 2.757494633975953 5.493958484215752 7.566947399102834
Sn 2.302990627899898 8.835065819464292 6.489210460628828
Sn 3.3739906853292165 5.791014510943062 10.704808283734906
Sn 1.5560617477700596 3.5903169607679692 4.6301922338202655
Sn 2.4100021195797967 2.994311005499108 9.723817399158703
Sn 3.3113415058020683 1.2151473298875022 3.686302745234595
Sn 0.798077702091015 7.762156809711642 4.063404851490098
Sn 1.6205987224328975 8.017921415597765 9.449671877591099
Sn 0.26974146492370416 3.466894757211965 7.4171639669482685
Sn 11.617229633295558 6.630713618718159 7.118038331784366
Sn 0.3356453147228172 5.297447361980983 9.954127936148716
