44
Energy = -154.87306046 eV
Sn 2.5724969615810642 10.69340149044178 2.719323500982041
Sn 0.6537810365622728 3.121547908424345 2.269743176067962
Sn 0.4494830018252017 2.933281037431434 5.846679687172852
Sn 6.2609637727618646 1.062285293444177 11.181813243784067
Sn 8.486238439174064 5.663317500621519 11.279492518428677
Sn 1.0977699744283456 4.156269066726198 8.504683674122084
Sn 5.766860037416981 6.004867628503784 1.066644357818251
Sn 3.29748085393677 7.267865970307528 3.5645084271269254
Sn 8.07118273330124 2.9931043484203417 1.038687768453566
Sn 6.512506246676289 11.46307963342158 8.624105226516395
Sn 5.514473527225542 9.601531029863246 2.95903446998657
Sn 5.153282920934347 10.69340149044178 5.61245705180335
Sn 6.248492993975782 6.926368654030602 4.304994071045806
Sn 8.245968229205635 10.84432907255349 5.989907771748577
Sn 9.059071342406602 1.6090547768591572 7.741164380639394
Sn 0.8610958525293829 9.100411476867627 4.828892365028787
Sn 2.8928958611406546 4.083186668430708 4.136367747764371
Sn 3.746693168322634 10.061802527817708 5.466117400852156
Sn 0.35264931192074145 5.7921506505667395 4.471948540972026
Sn 3.8096348527751553 8.453439977342354 0.6939964066102347
Sn 3.636109548260683 0.34053699475763916 1.0627613874761643
Sn 0.43472548537969613 11.480020657465802 5.469688241117717
Sn 0.962828576047029 8.159999429043404 1.8251597586993433
Sn 6.175480694397803 3.9334668074868517 10.169198782008701
Sn 1.2755354612657286 1.8245066490586892 11.153906298881864
Sn 8.486201493107826 5.5093855272573045 2.78595926093911
Sn 1.5088571800689727 4.862147230054932 11.57310751930401
Sn 0.5896210878472753 0.11463380909181788 2.080725622904279
Sn 5.9117728539060765 3.751929329359045 3.486154915736426
Sn 8.159665577375069 4.267336878270441 5.98915245491006
Sn 0.10941196948008149 6.8081373601236175 7.271482619097983
Sn 10.067015792303058 1.7237303139255828 3.848625327039071
Sn 6.410971711587169 1.8137341057988974 5.912217414498532
Sn 0.8916294319507309 1.139736169925062 8.34190425886073
Sn 3.7877437230432656 1.0912532466660443 7.559479766162618
Sn 9.122535254788815 1.8600575979492069 4.339451419765995
Sn 2.9775414321219107 7.3549550823095755 6.680780544717218
Sn 10.651462836411003 5.77004224954385 1.7618628223936261
Sn 4.059315877554316 3.402547868699642 0.7746771780207372
Sn 6.4039990185348215 0.7932368913777641 2.7634153763123064
Sn 6.490509324402683 3.0060534244821477 8.746272134124482
Sn 2.9384453163667485 0.9871260833204607 4.130157252000391
Sn 5.824936637434483 6.1825413476746744 7.236368617127242
Sn 3.70529137263948 4.088107163042155 7.10449248258955
