44
Energy = -155.31276679 eV
Sn 6.735687479749694 6.781346421691673 11.513012726361808
Sn 4.4018514124966925 4.829418148950627 11.744161048049955
Sn 8.846560956381454 6.283369068652906 1.6587289113312063
Sn 7.359855696882159 3.8210524221106485 0.2783511691662365
Sn 3.905827693849675 7.66888223344054 0.9795090827949934
Sn 8.874708846723845 7.731947173936112 4.58944777052841
Sn 6.747051253896694 8.47949455868444 2.0893235505120304
Sn 10.825190518064112 8.12011115729787 6.952992085188573
Sn 9.98646541823819 5.161586953078342 6.031560864082652
Sn 10.42906489528464 5.932190062415903 9.303183655315088
Sn 8.502274429477968 3.6169401963775636 3.3013271207579966
Sn 4.914250954991682 1.7638894479894538 11.950235088612473
Sn 5.742078449676633 5.5793819888671665 2.446858038177295
Sn 8.254310496715272 9.959696569839686 6.830311117248546
Sn 2.843981527419227 7.764722670903432 4.0203883812982255
Sn 7.97578639174562 3.3251936000807527 7.59674633030673
Sn 9.843795333560971 9.272585481925073 9.578479918241571
Sn 6.606915185916249 1.2957378382460587 2.4835783202948223
Sn 6.884942721370735 5.405887429305571 5.570493722233661
Sn 1.6507788967937354 5.401445282300396 1.5349907925468038
Sn 5.890456826224082 8.31411886309248 5.386953889995035
Sn 6.690971311634938 9.45580961476623 10.015670869528789
Sn 0.39182415115861124 3.3499759709102404 5.857516997161247
Sn 0.48877890144553005 0.7338751965356214 2.77756003527888
Sn 2.7962778179320957 3.3283289882824514 8.086703086741664
Sn 2.357559033866597 0.7731755605325126 5.369432487860078
Sn 11.406116396982554 3.5632712397033237 2.9577285820168555
Sn 2.037990475206035 6.226503519219342 9.240106320045978
Sn 11.820401902958864 6.298518754231651 7.315932546375123
Sn 5.549044897719576 6.596250945299042 10.890633175433996
Sn 5.42412238772563 4.8800132264638805 8.333930889056798
Sn 7.785530457440513 4.41281145949642 10.51572595537347
Sn 5.307401596043339 2.9770916918508394 4.53605509188818
Sn 3.4424965328594177 0.21047894618415133 2.2051132599888654
Sn 2.4846440497084585 3.251134623262284 3.5172627122351963
Sn 4.553267709089359 7.94876164081732 8.204860847329945
Sn 0.15703198614670819 6.28368277399695 4.340651367213701
Sn 5.099366663193493 1.4955488326073612 7.121119628839504
Sn 8.54109102946029 7.294534299724902 11.513012726361808
Sn 5.19662248899665 11.709196480690228 4.678816226755093
Sn 2.7720500364544542 5.618055655203564 6.123384303308307
Sn 1.8820874641197787 2.479368124735726 0.5884090102189811
Sn 1.7922937384298854 8.490069583724173 6.938267623464619
Sn 7.879824379246825 7.128120189774257 8.175159373838927
