40
Energy = -141.04863841 eV
Sn 10.277023689273706 2.0994673727189674 3.6729812756021953
Sn 9.826874132082237 2.3392342610206023 6.716592121464316
Sn 8.32855806615575 3.266560738466961 9.347268884665798
Sn 7.91690089084657 0.5347900164153745 4.932557295548006
Sn 10.320231916217235 4.937883594972612 4.9186934168651515
Sn 8.879282235440503 4.564116376565828 2.1768033655408345
Sn 6.628509604314914 2.151631425166496 7.219871963113468
Sn 8.244975336992875 5.289513386250126 7.176757561177222
Sn 4.577693802442516 3.260749756635011 10.179225910883792
Sn 6.2386448330110165 5.84799291845061 10.631437626085829
Sn 7.287139428624136 3.733002791753307 4.62722841634614
Sn 4.530635586589974 1.461739597734852 4.122631060198615
Sn 7.425585444860842 1.8286506413321537 2.1164604685593313
Sn 3.320094401145351 5.55862959172611 11.85439877626378
Sn 9.264992746456304 8.699012783946564 5.89994732646096
Sn 8.950508739723663 7.88258695206381 2.8998879912327897
Sn 5.1560973992247305 5.428344214959765 7.816261029344745
Sn 3.3604553411239575 3.03782505235804 7.349500781469599
Sn 6.9106671283530865 8.179639704459769 8.207619175943524
Sn 1.6125182252322712 4.189045342180855 9.631298097610257
Sn 1.1447007916880056 7.0864792846482185 10.096088516898794
Sn 6.21680095970505 6.19805423629452 1.8127167262165835
Sn 4.222048081968088 4.514245781751625 4.009477609546325
Sn 6.554651853645009 7.7769888002947125 4.935898824425875
Sn 8.286119260723344 10.801391523498422 3.680055883540142
Sn 4.50989781379507 2.7275262862748675 1.1886333663554902
Sn 0.5699767954781412 4.130459875510045 6.355252674579881
Sn 2.5197129978891994 0.6093013802074067 1.9107070773783545
Sn 1.5301174585114399 2.496046047009738 4.03727711310821
Sn 7.141492506880768 10.86972137292863 6.640144952977228
Sn 4.2266770251246415 8.960372573081816 6.745007900119228
Sn 4.010050373278698 7.7767123164732 9.755690997297298
Sn 6.273630417735462 9.2283358048901 1.8351827132898555
Sn 2.3084736685089844 6.427906905170002 7.273382383570938
Sn 6.675534011130821 13.042626713932897 4.682814450665669
Sn 1.3612535550488993 5.469189803568929 3.4253662612922557
Sn 3.3444974379797383 5.536314070160859 1.0186535916472286
Sn 3.8052007956645055 7.693447149529652 3.6183122770189318
Sn 1.2339941356135358 3.270562024736268 1.0430754233237018
Sn 4.934601871592909 10.704420040854568 4.21210348888743
