49
Energy = -173.00704542 eV
Sn 9.563398941610687 9.190599576066026 5.086369563306852
Sn 10.951189728900268 6.3806765946607955 5.843499587131897
Sn 11.75930554735076 4.980597228233217 3.2028242619194587
Sn 9.045579389551415 11.889280158515106 3.6836418212347373
Sn 10.551327302177157 3.960060409253277 7.693245330491907
Sn 9.096633236113213 6.646357003407561 3.365176056688702
Sn 10.467708826670442 2.636481555570913 4.885662107619453
Sn 9.73705369181246 8.187794884300633 8.654575158975314
Sn 7.3078829805589995 9.662447241426463 2.788457069254113
Sn 8.446567970011607 11.218989343576641 6.972446847716715
Sn 9.627107876312323 5.550158723502696 10.263737727876606
Sn 9.411715850620174 0.9953559346112172 7.296270815327437
Sn 10.004228462459913 5.339313289924489 0.7706357674731801
Sn 8.651795492142398 3.548902328728109 2.732261255250694
Sn 7.221631119138566 9.727286188692041 9.513005110304235
Sn 8.104219810668868 4.895653263953255 5.741505498827252
Sn 7.430219007234907 7.288167256127185 0.773946144760072
Sn 5.740357555311688 5.981167496271204 3.206359899713456
Sn 6.447185149865202 8.82990625712282 5.836367089053939
Sn 6.269771182343489 12.09409851434646 4.878394734421571
Sn 8.119156097682138 2.9034276402100567 9.394724984805048
Sn 8.181724532746212 7.953822741564493 11.668701929927629
Sn 7.1158824403439285 1.973225740024096 5.479969832150431
Sn 7.060115467997902 6.766053224954664 8.3371437608586
Sn 4.438789035679727 9.919596534903137 3.4940727819255453
Sn 5.783517395700118 4.720066999401912 0.20319158891356817
Sn 4.1611348326131505 7.329904571713558 0.628624963870529
Sn 6.645460504896977 5.268340132612219 11.047324989061725
Sn 5.6663525463935915 2.892298582743091 2.60512199906438
Sn 3.5269765889959737 4.414463663596225 5.019494354576344
Sn 5.37179331538987 3.8421460806298975 7.620491103810221
Sn 6.329305971645685 0.563624469298003 8.305611944445188
Sn 3.0268305823008386 4.579064370197146 1.6405266639469436
Sn 5.06930528388114 7.870596052670385 10.586762628559345
Sn 5.267815472287467 11.22286880063156 7.659214753302179
Sn 3.5806730380002225 6.977894744935564 7.630170846881451
Sn 2.990392081191098 9.684250174431208 6.150100447992725
Sn 2.7393594607606158 7.217020786049081 3.2902867542930787
Sn 5.02110617415665 2.586418312677281 10.4098049752726
Sn 4.237511846846786 1.0812325648649899 6.2093026148595944
Sn 3.0550668831260506 1.629599948441656 3.5254112481362254
Sn 2.9307243118066917 4.9514608250618135 9.93676398165475
Sn 0.5187750512795585 5.418719713619464 4.474776455124176
Sn 0.908760839517408 7.393268774743106 9.485269359855439
Sn 2.405250035858554 2.266487945508433 8.38442435326974
Sn 0.6347283746835148 7.8062153063059005 6.47253494492557
Sn 2.908675537323574 9.583729239485853 9.22914357141042
Sn 0.7974553591767576 4.881927142271053 7.632226902430338
Sn 0.9685912168894596 2.568137048707529 5.551167638979237
