41
Energy = -144.39700083 eV
Sn 3.756340904243536 8.693712319990679 1.9842008648685314
Sn 9.776570398626987 6.317380970925872 1.5865590117649315
Sn 9.996171910686314 9.04151300048935 3.172073530206292
Sn 12.510759770217783 7.267325511601351 2.734631145057952
Sn 6.296985749740195 6.75009789721126 1.7030515600568557
Sn 6.716781726747303 9.344233106439253 3.3690499473383957
Sn 3.3414473525826476 5.945138533981425 0.9445133185597188
Sn 2.1626206214750923 9.147701719224356 4.6613199578339435
Sn 8.777626961426032 3.8634939594017395 2.9318067948516164
Sn 5.5873406538250086 3.814775696308788 2.4291514146330426
Sn 8.117081983907287 6.753734961247115 4.334042085766236
Sn 11.589975675300359 4.727601252098677 3.872759300020639
Sn 8.772306958141076 9.591669553868426 5.888658464199703
Sn 2.430885237964128 3.7510788839640026 2.889058718375498
Sn 11.355067364812687 7.451753411725264 5.630926023182134
Sn 4.208598671418643 6.422848632866246 4.1292444820629335
Sn 4.9729474080951075 10.051142172957633 5.753906670600224
Sn 1.213019662549215 6.559739874708419 3.1769947286413815
Sn 7.3198451986091415 1.4579487296073264 6.952891786504235
Sn 3.340531496734415 10.653402110630743 8.368029455250399
Sn 9.847916808469675 2.2894823752431748 5.263635202469871
Sn 6.710498691281267 10.493378323508324 8.214012612726648
Sn 6.131400951588546 3.854762006556567 5.468598097601043
Sn 3.137060955007937 7.824611379163502 7.17646632472045
Sn 6.1973159264002025 7.40892162394943 7.215347155931717
Sn 9.582264524228796 4.977347475902656 6.362493645851306
Sn 4.6296502780190005 1.0152475040033342 5.2417087719736175
Sn 9.184873417035407 7.550981301821811 8.094829719070793
Sn 3.4180527515861505 3.725734573515541 6.551622844825252
Sn 0.6398809276989091 4.377070499615171 5.431936939398775
Sn 1.5135527339737855 1.544846361880188 5.316689977341037
Sn 5.245036410621371 11.172849911819242 7.6587217966488
Sn 5.162829434563701 10.656570666436355 10.802526552746585
Sn 7.015670525216551 4.281490857056321 8.332452004352533
Sn 3.8938030733162035 8.038949529338147 10.122639135722487
Sn 7.0286235065590725 8.17349713100627 10.294288736533511
Sn 5.646782736070166 1.6787382188684132 9.549534335588751
Sn 5.468965452437143 5.496427579079962 10.660970185612058
Sn 1.489906606378111 5.540958557344924 8.074657103843798
Sn 2.801752752396905 0.9962427280958154 8.033154099316656
Sn 3.2899191430547368 3.6198748380787897 9.655190293029527
