40
Energy = -141.13710897 eV
Sn 7.974017479362448 10.71106128833672 3.8335701469515757
Sn 5.300600867653894 12.231165698597334 4.677867500369311
Sn 5.448768874841895 10.132649929489597 2.266781557876957
Sn 8.97086069074832 8.662133229889648 5.9671005328768105
Sn 7.441429820702926 7.640149324810951 2.529066812645882
Sn 2.9023516539807557 10.155997510237334 4.0891304784448
Sn 6.964357624206201 11.153107798631858 6.834605105295541
Sn 5.685014135087818 8.710920139737846 5.0490907000696374
Sn 7.338783171569679 5.8460469973672735 12.883982778361093
Sn 3.854935058367753 10.377176352338267 6.966996195430479
Sn 9.094419726113106 5.171985108373699 9.151400162698781
Sn 9.101023145195398 4.4832073920593105 2.0527692416579844
Sn 8.19149591078296 5.764677504190485 4.921298662670533
Sn 4.639025214890778 6.98545202001964 1.1739040824089244
Sn 8.402859307559467 9.548884972403972 8.824544380059649
Sn 2.6304705430536757 7.145188641563354 4.447643771928202
Sn 5.394671929773317 9.021442928956848 9.318614732304658
Sn 7.2962583922831294 2.7060057222289364 0.16153983217181447
Sn 6.079868234401495 4.627705987186221 2.7131166294889195
Sn 7.0145332780728085 6.931680435090574 7.794271999843106
Sn 4.3151552316354325 6.081098249354655 6.7305610245231975
Sn 6.410828188978374 5.795295340054109 10.77978756221137
Sn 4.628590200802532 4.195747420627258 12.76276791078045
Sn 3.496269823108364 6.646267316706215 9.960199249828579
Sn 1.9354127286035727 7.871087899607279 7.616407619970852
Sn 7.62702535718909 1.998849879261024 3.2841262920463254
Sn 3.054686783898602 4.574308730789525 2.547820685976725
Sn 8.546892462614364 2.467348071559553 7.9833889298714835
Sn 7.778538693260101 3.0259545203387863 10.993558600741075
Sn 0.4679414253243513 5.734548427642079 6.022337344721609
Sn 6.382689410378574 3.4853309439921714 6.00312097860504
Sn 5.5357882831298975 3.533155546239181 8.955984768921432
Sn 2.0516660845091867 4.527330519488841 8.400838450973383
Sn 4.831384792231325 1.8278405628474215 1.9182226135023712
Sn 2.7855745270235146 3.6746672832172487 5.550719445422199
Sn 7.413373181283625 0.3458849810954591 6.273935595510555
Sn 6.595789230263321 0.5370393534467355 9.507450768810314
Sn 3.350750925727914 1.5884536453176108 8.43722950872713
Sn 4.473267920632417 1.2120878986717232 5.229177985825238
Sn 4.815639895666493 12.23116569859733 7.4359353563520205
