49
Energy = -173.37043014 eV
Sn 5.501992692392377 6.485696515966173 12.041052731455096
Sn 1.0113330664598306 4.117580721253583 10.108821282237324
Sn 4.950952080039258 2.0795113421305653 11.368134236909958
Sn 1.8133997049797579 1.4588775970158385 11.520464065101319
Sn 3.8601828597870926 11.625369593549303 11.624896981751624
Sn 2.545213898804189 6.42230706652555 11.215668498837044
Sn 6.1283405298642215 4.688764257543851 2.0152808700676177
Sn 12.341903733464198 4.874835511594586 0.31746855855900724
Sn 6.911468703345357 11.953653100923681 12.420035219735613
Sn 6.8411406317944214 9.224066798299702 0.05823227762398164
Sn 2.9849003201992814 3.9851433539779126 0.4541859896377191
Sn 0.7561180939962603 2.905855189267281 2.492056232638955
Sn 5.607407946134391 1.6834048804308932 1.9073969523761227
Sn 2.78062331902568 0.5333377165519897 1.8836671320516978
Sn 0.6956960321389704 7.75667843873219 0.6931055823875092
Sn 8.490418267398741 4.5969471879995165 4.113940778368969
Sn 5.183059444262385 10.455373082084726 1.9029632028346117
Sn 1.775757081052176 9.703458052063143 2.819186109227606
Sn 2.0313687788237624 6.579490393318401 3.1383002223281142
Sn 8.231704976919461 7.136459827692921 1.7007848100083032
Sn 7.566861412887139 12.276246437465156 3.0056188600809777
Sn 6.8910856474879925 9.570258184529258 3.127651696113118
Sn 4.38217672518654 8.459183741686925 1.7020044547909086
Sn 3.4230296452695432 3.99399200876163 3.6805498216990054
Sn 5.65373669685442 6.8451596018115755 4.004738852386603
Sn 5.842058364917775 10.625899213806921 4.966367126482089
Sn 8.709850675551712 7.574518418599148 4.830899291663594
Sn 12.189843065902469 4.976718094415533 4.6879320694374575
Sn 4.365980014690394 0.9987659826571113 4.8696042691682635
Sn 3.2139607689713694 8.658957834075904 5.426575621034973
Sn 12.42214213935367 8.069705862514326 5.0898576226072
Sn 12.17599169260225 2.3599657796133195 7.045016692042274
Sn 2.8531809609862284 10.865548731343752 4.146732622034415
Sn 2.3305954128151454 5.749234749760462 6.292358897108669
Sn 9.11141128886802 2.4951631512275076 6.218511421475031
Sn 1.5026451892073933 12.286183233725406 6.656052208600793
Sn 2.745407068905266 2.6707253218273364 7.196360621139611
Sn 6.181258379953956 3.4206025478321216 5.766056415773146
Sn 6.308508311788809 7.632505396182661 6.798267492977216
Sn 8.341582747326465 5.212875029013581 7.442440369592249
Sn 11.840868015444793 5.951612160356823 7.56218916908067
Sn 6.718245128382255 0.5266302502898974 6.8883918657392815
Sn 3.999860093898447 0.18395843450235627 8.502496025671224
Sn 1.408756273656684 8.253558656658662 7.8126848618124916
Sn 1.1101155570788994 0.8991318424489714 9.502579205446764
Sn 5.06563229892733 5.053561480661733 7.982381734470406
Sn 7.013741478095708 2.847075989601551 8.893688726353837
Sn 0.9749685367277188 3.948970430338588 9.461831939076395
Sn 3.8078112242643836 2.79078377760158 10.108821282237326
