49
Energy = -173.4149254 eV
Sn 7.173356311786246 5.776884456153256 0.7946551518472983
Sn 4.976571594997621 3.6061033223649717 0.9725482847904833
Sn 6.573652429679805 8.779327183258042 1.0540277358764536
Sn 4.073877189813146 6.485358565343554 1.0035429929244717
Sn 5.481354593404001 0.03569432969942189 4.407503443432518
Sn 2.7270638439782586 1.034669148336703 3.6759341940882453
Sn 1.7511784873417557 7.954709495226629 2.029853865471953
Sn 2.607868120610779 3.91256399895599 2.8994853285033537
Sn 8.977118230031886 9.587442638389811 2.763327627463151
Sn 9.695827000301778 4.0948382784546995 2.4475833767118162
Sn 7.245763358071528 2.3618338468130076 3.146115853548567
Sn 8.285309765594851 6.683528510749649 3.5314668264371596
Sn 4.039544388818098 9.966152834003278 2.2246833203459224
Sn 5.56663795283186 5.157332494218832 3.598105932275881
Sn 7.731047938518292 11.67425805579294 4.671792870332189
Sn 4.627077394799865 2.8548168815340027 5.593711031688493
Sn 3.3469474247573436 0.25814730396413277 6.733281783242535
Sn 6.248561942464717 9.013450384099361 4.248061361262624
Sn 10.893459813697408 8.276277917701966 5.521275198446435
Sn 11.524871081133616 4.276486634731418 4.838206880962439
Sn 0.8786343802076291 5.866665263009822 4.441991189368592
Sn 3.581998865997366 7.322537142168044 4.311262491500462
Sn 4.636145970483898 11.732824104657617 4.671086337045131
Sn 10.326720179444994 1.479092432206252 4.5620265053989275
Sn 1.4665129782671678 2.657607432797382 6.075267713103253
Sn 7.874193794781813 0.9897909290055391 6.170123489618526
Sn 8.375619524218544 4.038547980885313 5.466110465512714
Sn 3.106813595022622 5.314414273456193 6.923909762319417
Sn 11.430170677985583 5.987741599981818 7.557571004234767
Sn 0.2872434347252961 6.45522719449027 7.453296219225966
Sn 8.427009505045366 7.033264576959386 6.81116006265354
Sn 5.402985970206659 7.651330814411973 7.343856420506378
Sn 10.834127580170067 8.822821320103307 8.755583064309594
Sn 8.86766211116046 10.14525608053086 6.947497771897954
Sn 3.2244910600268373 9.63230814862957 6.382766738940268
Sn 5.734186950775166 10.972044218700113 7.700841359976548
Sn 6.199891243709222 4.488422862932463 7.98728579802349
Sn 4.922491822301684 1.6989802188841334 8.811337440030094
Sn 1.1166096286446616 3.916803575768288 8.902245633207096
Sn 7.890848325216401 1.859546871969986 9.103298863708778
Sn 0.9924907415517588 9.310885984345683 8.29056949375127
Sn 10.434854489662985 2.8589340754419217 7.423400026466784
Sn 9.123049585289543 6.153207239617098 9.57007756273054
Sn 2.2106226534024467 6.786123356346801 9.940700231467202
Sn 3.850502305325061 3.9687762623767653 10.379283001226344
Sn 5.324751240023111 6.906188034570171 10.342475412190248
Sn 3.7290063600183476 9.56275045923164 9.59481261452209
Sn 7.725236888002764 8.973782543607262 9.55105566109544
Sn 7.016742662786671 4.157760110971078 10.902265130142835
