41
Energy = -144.44712246 eV
Sn 10.915487761586945 3.3738318335991626 6.658805326574281
Sn 8.038891449419715 4.826934665378061 9.077873368132645
Sn 10.877332854627994 6.416157309992973 8.646737680088133
Sn 9.10364099428216 7.494189696809766 10.777450109109202
Sn 6.170786183319058 6.454242820307908 10.942801685716532
Sn 9.920881052180972 1.2110101282834964 4.767698905908244
Sn 7.7984625744703004 3.1234770008992707 5.922851956036905
Sn 6.796705098836024 1.8064398091021945 8.48089638280037
Sn 11.986541001399303 5.888264380934088 5.354215856788725
Sn 11.664467555030575 3.391657674445909 3.511576227368824
Sn 6.898396087411214 0.9642266656815308 3.7014180995917108
Sn 6.919866524672322 9.454196195159183 10.127586178747833
Sn 5.33644969825559 3.454900837032386 10.644735709515363
Sn 8.958649844488464 5.929418663944159 6.164576074182401
Sn 4.947081519817028 1.0181084830977833 6.070119595907058
Sn 5.9117047516426044 6.557702318118929 7.684224530697486
Sn 9.025372696882707 8.70623659044321 7.866745804049368
Sn 3.4877890074805213 2.1292323707663514 8.472004910852293
Sn 8.650095818780233 3.334139736220246 2.735588384959797
Sn 4.044063290961664 8.280485394491325 9.40417420146796
Sn 3.2875191651522573 5.305520486084045 9.18812345981458
Sn 9.916718913313881 6.107312485260294 3.261775866703154
Sn 6.531390343432881 6.602960812665735 4.328231910807572
Sn 4.3713633299941534 4.189577122890434 6.287850979792666
Sn 2.0181196554605707 1.7797928815494746 5.606659795204724
Sn 6.050560705247984 9.546684974663371 7.147858807907246
Sn 1.3423434091739017 4.476072550797301 6.898583131480656
Sn 5.33352753154857 3.5782962593725216 3.4543230318553846
Sn 1.768552139893724 8.311777832465799 6.955284549112142
Sn 6.671373025958597 5.46697218214593 1.3698836557132534
Sn 6.706485476194924 9.771749177241643 4.20202357615721
Sn 3.39879817656884 7.1907723644350705 4.789820287065714
Sn 0.1557532864929161 6.6617789515382 4.728686651893412
Sn 8.05780081983499 8.054701739269648 2.0307605509717903
Sn 3.7210451907739186 6.291920293316975 1.8510599752376973
Sn 2.146718015368871 4.304511451106297 3.76953649799018
Sn 3.3396606640827837 10.484373337281594 5.226503085368447
Sn 0.2956068193201393 9.761500227457159 4.745449945089392
Sn 4.3235965899085445 9.240868138246341 2.4329422956529196
Sn 1.218895472700478 8.045418111029717 2.1812728571570834
Sn 1.920905991736814 11.053538633269172 2.5492533041660503
