46
Energy = -162.71279803 eV
Sn 4.217266426707873 1.8884935265839558 9.995597120697758
Sn 4.952556806440648 4.962460686670306 9.994571754231261
Sn 2.0561378503985406 3.825786920407902 10.96399788911193
Sn 2.6537549447381084 6.886611922080336 10.706251546939523
Sn 9.216267198465811 5.553406615290228 2.1308312314663134
Sn 10.491314572948347 2.437436797340232 2.6185080017565583
Sn 1.3714893370974188 0.4939550084463435 0.535123373460567
Sn 6.919287846453454 2.2921010594787052 11.226726331348695
Sn 5.420777047046155 7.603430577927369 11.978026136033954
Sn 0.4187201042350669 6.36415646411025 0.41124463530330874
Sn 9.151743468885618 2.5474533440970593 2.6535950557395025
Sn 4.403915341990821 3.2570126220341806 0.7442133084210585
Sn 4.435869934426982 0.1459617540303495 0.2299455728859959
Sn 3.211548441434358 6.3588215645968384 1.5364801485879027
Sn 6.960718908995188 4.918844472084588 0.2803008455345237
Sn 0.7407314319270536 3.402775053956849 1.4767065821470202
Sn 4.124412783136393 9.140912229244945 2.573701249260035
Sn 1.2007118548414961 8.60053850321447 2.386024481144034
Sn 1.5878657166803773 10.278980706809374 2.3964653427942695
Sn 0.055882274741233855 0.29761438178331223 3.4815351043196623
Sn 7.168317143760986 0.4040019759277591 1.5777028535760236
Sn 11.916056531713954 3.4945826652877603 4.990724700442194
Sn 3.1851945539283193 1.0850744226228632 2.984378213079536
Sn 4.415158532314801 10.659643261749785 3.5042998581181903
Sn 2.937116351837686 7.51573325285765 4.905117648359007
Sn 2.473160708062705 4.3595236911834325 3.8583054615643615
Sn 1.696391468740856 10.923524540624761 5.540857356205651
Sn 8.893114687627111 1.7191004701609882 5.632391791815422
Sn 6.214352013182539 2.470364599999519 3.651227710005852
Sn 2.6468666276848105 1.7816085412173346 5.976739070029932
Sn 0.01055992834410258 6.596279348010313 4.503262204419011
Sn 5.203808468595987 5.129472583934657 4.805184455547296
Sn 8.29533728054411 4.532399750394529 4.851796880320362
Sn 6.362502934399816 6.88036835308179 2.620324169318236
Sn 4.624615299380136 11.364613198267682 6.534832303114702
Sn 2.360583692723961 4.83270266404469 7.06746523030615
Sn 12.136494454865716 0.9537035335416355 6.692026528936189
Sn 5.8352905370832 1.8861987795957362 6.597378873328362
Sn 5.810367306976557 4.692784446981577 7.773670159606116
Sn 7.032830157234281 11.756008197545794 4.551389512391688
Sn 0.98344556361923 2.8961027974591627 8.950759663275049
Sn 3.583011279996432 4.080586404438927 9.952926706277333
Sn 0.9806899540289749 7.7900667101218195 7.3741790299122565
Sn 11.527123257798959 5.113727307007055 7.602309486337259
Sn 3.77487967531981 6.975015535301456 8.597734667923289
Sn 1.191511790749869 5.980636004319511 9.994571754231261
