47
Energy = -166.25994535 eV
Sn 2.8297591096710693 2.509405526943571 11.06266615656402
Sn 4.8821026213023755 4.960615477875625 11.848362188220962
Sn 5.1867800883122674 1.651716130137979 0.3793777931800929
Sn 4.311812708885014 11.457446978535947 1.5224201314219388
Sn 1.2779651354264085 12.079328416001662 1.3734535978685523
Sn 6.767241617775145 6.6577412866489265 1.147771728614556
Sn 7.494504410255127 3.436756736000386 12.08719271233328
Sn 2.6778597321519277 8.616201429229022 2.8328724507873093
Sn 1.7245262014985718 5.069353365883006 12.339527903913691
Sn 0.17943990048616482 2.027253556321684 12.488529806052501
Sn 2.4820809420388725 2.692513218807381 1.7908417232702143
Sn 7.285599619336093 9.353472817354682 2.5821502998844297
Sn 4.952161206300649 10.211958099735186 4.1668918740495835
Sn 8.478494667983323 4.548486957123078 2.5630563613140085
Sn 7.929914422290394 1.6118839609539815 2.0648909404225746
Sn 3.602195736415649 5.868919855534674 2.1123630245499636
Sn 5.597890834257918 3.681026047446386 2.7935540201320745
Sn 6.309697099516436 0.6511482081374219 4.537638558910226
Sn 11.786047066764768 4.273517214553913 1.9660227538028787
Sn 12.450248353673292 7.131177632644637 3.1915581276642264
Sn 2.168729520275738 10.686127069090704 5.946624125286867
Sn 4.854255518591301 10.446737909921568 4.404459422409533
Sn 6.489814335850776 6.905864230882772 4.274121666906332
Sn 5.120411331502694E-4 12.05808589421736 4.178477617442052
Sn 0.9892478562321428 9.489709193682708 5.344999121553659
Sn 9.630164731224834 6.191839032419121 4.996785481902065
Sn 11.98048253754045 2.515372359135282 4.346927065994174
Sn 3.61952684633736 7.51893394888784 5.527393895089497
Sn 7.137850123598426 4.601138467396523 6.320022991011289
Sn 10.209506618399294 3.721377329725041 6.936002807588303
Sn 12.306293945309928 3.73676750723037 6.977090446498441
Sn 4.628466195188328 0.0035693461123899924 7.089399170553966
Sn 1.579555308180235 4.764201139367718 4.339540607366603
Sn 4.144895185004733 2.71538681787536 5.543419799321487
Sn 7.930475734176564 1.7258296826602642 6.970830662494258
Sn 3.7259410708322847 10.446737909921568 6.879621042430106
Sn 12.256484082864644 6.71238178266701 6.201690170947786
Sn 2.9695117172135133 0.4014798865866842 3.84224563503816
Sn 8.50755864587078 9.029429617396836 5.333287537081656
Sn 8.278080867559094 3.583667114443889 9.388499929809381
Sn 6.098715670858625 6.0025885181732255 8.868473628029143
Sn 1.6753791898525066 1.1452475934555588 6.651848251345262
Sn 9.061872106599933 6.363426158894918 8.109194431237023
Sn 5.4027482232903985 2.9057382688070987 8.456029134047114
Sn 1.718993676417932 8.13877380548373 8.023373603322753
Sn 2.567478371271996 5.304860910278819 7.332684405636251
Sn 6.101841533651649 8.635508717086159 7.106518324369903
