47
Energy = -166.94309052 eV
Sn 4.413127604865014 2.7327639322313977 0.4186407336731555
Sn 6.5930343693858795 8.696559295593895 10.981936190597096
Sn 3.6098554094775164 6.051201519178256 11.663154599273703
Sn 6.681827256698068 5.622758028071369 11.64086279772181
Sn 6.1540286776133195 11.218818818143301 1.11669662025727
Sn 3.822327405006591 9.263127493876087 0.3762991904478793
Sn 5.426748963310206 0.3643273456125145 2.271612299384776
Sn 1.8840036795070916 4.1909469683621 1.6956112832382693
Sn 9.37878348914308 5.404606735126653 1.252487450208986
Sn 2.691408535719738 7.309666335425649 2.553069320427513
Sn 2.3697055482740836 1.179859978601768 2.2943585189196605
Sn 8.847676478502004 9.756292812387082 0.9877609123764615
Sn 5.044241430934947 4.919651009443755 2.5089535725763983
Sn 6.486359599513801 7.856769630027772 2.1317428484870073
Sn 3.9510878194859695 11.218818818143301 4.826118647573576
Sn 7.428022314878494 2.9387798970116776 1.3167744167028375
Sn 7.664950749827539 10.449252268397933 3.7676944439866293
Sn 4.546053529162782 9.848555025885435 3.4774698493816243
Sn 8.323107363598162 0.9550934691534111 3.550412520411866
Sn 9.53101856124167 7.699800740753285 3.1941219960068783
Sn 0.7949677364610381 5.810078209580404 4.513263417766844
Sn 9.471628624474663 3.7747053423825956 3.779092224683796
Sn 2.52533143365036 3.276968848744446 4.761144059006155
Sn 5.6475723368309065 2.14170948526375 4.802476269163142
Sn 7.368879836829656 5.9020338841870075 4.723101265760187
Sn 1.0641478752280304 0.5150666689841329 5.081049076219226
Sn 3.8820395782404495 6.148103673709694 5.257755836950615
Sn 9.100287276310661 8.177021151432372 6.150126850621009
Sn 11.364674921930975 3.243930244050061 6.370424328279386
Sn 1.581323217485288 7.6020117903755 6.916104483224328
Sn 5.820736494594356 11.65520069344796 7.121142291799734
Sn 2.1402463210911526 4.568958550758291 7.924356731373741
Sn 8.14155581212643 1.6978182191093951 6.504346773418265
Sn 3.312699349141054 1.6009233597458428 7.258081731912431
Sn 5.62531551321928 4.345794000322467 7.174031012671497
Sn 9.886754896085488 5.16396607894308 6.470749673800208
Sn 5.895493390469225 8.423335543346099 5.953015496047773
Sn 11.296886816235393 6.0083186706201674 8.452358188654209
Sn 0.4691732819076178 0.7570471818329503 8.129401762523852
Sn 7.437922441146932 6.574199705347057 8.284604605761054
Sn 4.318474844274103 7.263584067060381 8.342542605686122
Sn 5.668895118074127 2.1354092736041292 9.354547783738644
Sn 11.195581626977798 3.1518646608713357 9.54607628007977
Sn 8.397263578393755 3.7460971326221384 8.76761845042593
Sn 1.3023387633072685 5.114604468582235 10.878666365476187
Sn 2.3404824616217623 2.118506790310979 10.346964424560769
Sn 4.277969719862437 4.7734554346102875 10.287191850858344
