43
Energy = -151.62049366 eV
Sn 6.340039290423899 5.07591730105309 12.126598902867386
Sn 3.610558620846879 6.258566248495921 0.7220452670036307
Sn 8.78875005040653 3.407870184764801 0.44302517750850035
Sn 9.11142157162789 6.592849618912378 0.2428699231129343
Sn 5.6379452136981305 3.248159829926325 1.9351455875130525
Sn 6.2307020802538755 7.970668845809658 0.44512701870614135
Sn 11.431826443787356 4.815080175156594 1.4043597641224066
Sn 10.517717512981733 2.2811743651996435 2.9991162296236946
Sn 2.671858089340305 6.645516855807552 3.5590281325717537
Sn 2.043631783870989 3.8380324438156004 2.269786740892379
Sn 5.701144505781826 6.25630328845727 2.998252337312844
Sn 7.46392562400452 1.914148213193196 4.121631189547645
Sn 7.36083073450783 8.8483957912945 3.1573627705385854
Sn 10.369622743336372 7.422482030178762 3.05500636416493
Sn 8.587409305386343 4.833417948108053 3.1594390353826007
Sn 4.713775569710112 8.762990940439384 4.847196929326284
Sn 3.6103727541084725 1.4365749361335118 3.158441692915996
Sn 12.286374603959272 5.086124088949179 4.145844909732913
Sn 11.432673544283992 4.943195904291611 4.5435947666190035
Sn 9.89122072410432 2.559640104669477 6.088476363953318
Sn 4.779322642562201 6.731379650963889 7.4310476289270095
Sn 1.3010305652331808 8.413861962684415 5.580245722105061
Sn 3.340502179867554 9.71130922564445 7.507544091990403
Sn 11.432673544283992 3.6052795729573854 6.853605014568103
Sn 3.948952535729992 1.465100628516732 6.361134107201283
Sn 4.09791166627309 4.053017599541184 4.780111403936893
Sn 10.037626573358816 5.266080813546655 7.4654665918384655
Sn 8.575492622223646 7.303136603039382 5.739070751995154
Sn 1.1549609008326507 2.4427950703349626 5.117455579763556
Sn 6.97194372286742 1.6333997642658553 7.179701455724767
Sn 6.79582241383573 9.407649520840865 7.070747113087358
Sn 7.040281110645942 4.565955067296723 6.0249672321442205
Sn 11.615653429281398 6.740833749076521 6.792715665707546
Sn 1.3277474045206445 7.704311044350211 8.78812622980967
Sn 1.9036677520834913 5.120335051607527 6.886149190492035
Sn 11.974766679061068 5.197467794571123 9.42424396287999
Sn 4.439110059462615 2.9843418440839558 9.073590172356974
Sn 7.824152560816313 7.213866344494943 8.955361909966019
Sn 7.620076945390019 3.9837397911140733 9.053377337703742
Sn 2.412030664607133 5.092402112009302 10.236391270625314
Sn 1.34523254095254 2.6002862805964906 8.657422750848884
Sn 5.191127690045695 8.789992045758204 9.7189207476401
Sn 5.450935032476509 5.780453887562639 10.47903887061541
