43
Energy = -152.00398738 eV
Sn 2.612127993571686 3.119780529739637 11.396701135014336
Sn 0.8732128923200412 1.008020992127388 0.09536694963611478
Sn 6.111595309023259 3.755351920297318 11.509308595468378
Sn 4.818664070659601 0.8214055804245716 11.459786861019401
Sn 3.884945912508373 5.2519947628118935 0.41050894416280903
Sn 12.575806215403379 4.0661296782653364 0.12396540274649721
Sn 3.5765350595348693 9.52951638807827 0.9508693530947041
Sn 6.061983310887878 7.4732783053360174 0.8743092061665907
Sn 3.972493191642997 2.3314057469443656 1.2683755762813098
Sn 1.3566459276866762 8.484135393612043 2.990519471570067
Sn 8.787131874800549 3.2875220024448293 0.2821079477350527
Sn 2.584123918424478 12.515645689701131 2.4013089795471085
Sn 11.058510537667193 1.6585286352331559 1.5292551767534521
Sn 7.7991402406042685 1.2834469741544214 11.071271317883904
Sn 6.426184248844502 4.121990443344503 1.953761102118918
Sn 5.270876579100434 11.514576412970936 3.0352585695636414
Sn 4.181362698807428 7.545582567579043 3.3673573270174546
Sn 6.145053692450791 10.146522984985753 2.5678901105372454
Sn 1.3641443015444368 5.389776539402679 2.4298964633582973
Sn 6.751251106309691 1.0136984879171358 1.1597244940547635
Sn 3.3917341587227363 10.833475711498831 3.7372068422773785
Sn 1.0639575172240103 2.413008111362076 2.985152108453786
Sn 4.8004339760018855 1.6949632591266628 4.302759173168235
Sn 0.38222559137542117 12.297740759353575 4.428609731112317
Sn 11.07647611118577 4.492482925389 2.7812747331288086
Sn 5.919270745629747 4.613859422983395 5.1120495100329055
Sn 6.091647478136248 11.881631703836904 5.958976194665448
Sn 3.195653414571773 10.833475711498831 5.391054048558764
Sn 3.252494952754239 5.449963483988626 6.03505891134591
Sn 2.5829057605241013 8.453182793403467 5.813566353366991
Sn 7.108449909586176 7.256252073280857 3.820861536656271
Sn 2.445199020383282 2.3629232147389296 6.245005342159274
Sn 0.34620089360471107 4.634700348762602 5.28362735694262
Sn 11.309209825470244 1.9737132038696805 4.627218150372304
Sn 5.308883485849201 1.5761614102388604 7.414861988307895
Sn 7.494170944807098 3.6741032495275907 7.459205048464107
Sn 5.494674601374233 5.975023264305278 8.149283916799249
Sn 5.543659701954483 9.453806411155385 5.536288728482929
Sn 1.2699109338343173 12.510006289876062 7.271374628956116
Sn 4.0381006769378365 11.498241175962587 8.251818290230862
Sn 2.913855887552104 1.5478991890132052 9.314325537742953
Sn 2.781213994039129 4.629865954887335 8.88411201641831
Sn 5.495075230007109 3.497434924192431 9.835960761943227
