47
Energy = -166.25024792 eV
Sn 3.2583851221310893 3.9600840978863685 11.38706224352504
Sn 0.8565713491515606 4.740464031732484 0.8361299953174532
Sn 4.909091309909044 1.171932577655104 10.80397239512428
Sn 2.213605056646973 1.3463746613668088 12.387983342290005
Sn 6.424157709737109 3.935198579647238 11.74224852865354
Sn 3.092005015387474 6.764999782313267 0.30812616511651786
Sn 11.338948081568367 2.78107472011607 2.192465555895736
Sn 5.690609846062208 5.962946960130814 1.5282082814011666
Sn 9.366920374752256 3.1871679568453817 0.1704486497497406
Sn 4.753593786790869 2.501547223753141 1.1550508338458074
Sn 1.7108276335281472 2.198481648691687 2.53185587409589
Sn 11.999581125376436 1.0279502844557225 4.762167069702825
Sn 4.559115754284727 12.25012441102608 0.6681990822127428
Sn 8.306915278052141 4.845993476148737 2.4715688538637677
Sn 7.281831082830876 0.9324126656446311 12.644076029544662
Sn 3.317184884187452 9.402070148392644 2.3472555705230342
Sn 3.268030442816405 4.905648020118806 3.0295166743129345
Sn 0.6592463070625348 7.701719122312352 2.0534524908236675
Sn 6.073401825190409 8.474351745588894 3.0729989905593738
Sn 8.900966132267836 1.6609603881813324 2.648023871464736
Sn 9.238003430399132 5.689688591491811 5.147909021739516
Sn 11.192138443708586 5.72823445675057 3.172279082339972
Sn 2.8257797801202784 0.47266294787347474 4.748245082627887
Sn 6.260521059647941 4.0112871950290865 4.5269112439140615
Sn 5.822296571083969 1.0839577442593025 4.412664078444988
Sn 3.995050952281401 9.791606175451482 5.263417793383059
Sn 9.805899412090344 3.3295099700570487 4.837928880080685
Sn 7.175053861524102 11.949956509873942 2.5511541675487974
Sn 6.99514718348741 9.582676744535732 5.587635160775457
Sn 2.2095159738426835 7.178659664708494 4.673126863896594
Sn 7.932139814782331 0.7335483994316956 6.605802035731507
Sn 0.34693998930879383 3.9761692950033014 4.756091313098463
Sn 9.805899412090344 2.7173803958450438 5.283295527803231
Sn 1.474877306323197 0.9634537670300941 7.375519817697483
Sn 7.675020021814928 4.018286128165195 7.270018424064741
Sn 3.3018126470645215 3.3472550037092073 6.139328515651347
Sn 11.178601418104162 5.8129791028431255 6.330148449595074
Sn 11.619975133645156 2.8354255258250975 7.261667206765862
Sn 5.368721404874191 6.814765202548411 5.641076367463259
Sn 4.915699795594666 0.8996776789166575 7.447748908057044
Sn 3.0947083394792307 8.297483033571398 7.740555156222108
Sn 8.068060808599474 7.345590098816228 7.435784027149717
Sn 7.191196491480883 1.916056076165135 9.317910824249495
Sn 1.35147376356435 5.8518726213864545 7.3631024823299
Sn 1.8047624832078308 3.4130045063058914 9.07209334461936
Sn 4.7887718905329715 3.7315867272332586 8.73949050807307
Sn 5.4296182046217165 6.621208706378147 8.661161694714536
