41
Energy = -144.2855257 eV
Sn 5.019246127906837 2.95916486536458 10.36744121794804
Sn 2.8726730759500025 6.465793151910383 10.885419897821176
Sn 5.405614287982288 0.09580007478425423 11.37600568511725
Sn 5.7737815562315635 5.648941674904312 0.14906225450236144
Sn 0.55486515731839 4.946781890660832 0.8403788634203806
Sn 7.856109112385074 2.262719554995381 0.0024258263690360767
Sn 1.9672901172809505 3.453560362826507 10.126405520258588
Sn 0.8041459449171352 7.918034394300552 1.4193151195754297
Sn 7.63028232658666 4.348835854279767 2.2267831514743595
Sn 3.506822127622695 4.195854193123339 1.6036021481770975
Sn 5.821013220753269 1.901679852634184 2.3880516826186167
Sn 3.9776044305134186 8.482250291353841 1.8458811957651364
Sn 11.411157298257166 6.438756038569762 4.0316848482472185
Sn 3.1441950455328502 10.808093601781607 3.3977214681467487
Sn 6.772385948741036 10.525642624525478 2.9209477756348847
Sn 0.26745049750536126 0.45385128441588235 2.643906739599077
Sn 6.690525508835924 7.464433535202604 2.933843044109204
Sn 2.737655252986274 1.3485385088093362 0.7447533308723074
Sn 9.20630609681573 4.438354735054874 4.900980581392432
Sn 9.100906975297006 1.0173133171416389 2.630322129495566
Sn 9.206306096815732 3.3655954898550875 4.616531378437746
Sn 0.07600138615038592 3.2794594264186196 3.3366797121659166
Sn 6.101575838774806 3.830863515037195 5.19655403735764
Sn 9.572470132731574 1.3407904116622178 4.83126137453331
Sn 4.97834302601365 9.779877018933952 4.575748512032724
Sn 4.0008637219084475 6.349821773160725 4.033773959322122
Sn 2.0227142649960657 8.93502909455853 4.275417383510512
Sn 7.821243366248514 0.6469932186234426 5.444109625672925
Sn 3.788478570238154 1.7942945338888867 4.967530269703394
Sn 6.330873933485031 7.299378396253922 5.931355373374126
Sn 5.13929971744594 10.364638404301502 5.672320975423901
Sn 11.362790701893765 6.061974414274888 7.000119749208803
Sn 0.9658026656219317 0.06001100397276936 5.651238118154513
Sn 5.368222069937649 1.3434266898991294 7.55112884706345
Sn 2.0024953703166353 4.293373446996481 5.380006208480249
Sn 10.861241843829301 3.032839148423973 7.1241702713660775
Sn 8.106182215372776 2.961425774689741 7.48949216294742
Sn 3.4728933917856626 7.737541743320193 6.670529293821312
Sn 2.272762600966194 1.9296456190388338 7.699779382064748
Sn 5.834395975628872 4.999788081765814 7.952447217504748
Sn 2.657247815321775 4.989904577064186 8.18152686915036
