49
Energy = -173.43236415 eV
Sn 5.033829224763344 1.6738587386858783 0.4566175225240682
Sn 2.223675827241925 3.2060137252091727 11.844852348201508
Sn 8.09804145966852 1.4419241039256747 2.120903997262357
Sn 5.02816359542318 4.6412150566529595 6.472111785827232E-4
Sn 8.980857635142518 4.387491831822939 2.3496645181883973
Sn 5.379764536491121 0.7132190941154213 3.8855263008297354
Sn 2.657342636667095 8.842838772077473 1.3782756579897897
Sn 2.590345000823338 1.207806843107543 2.206452670977033
Sn 0.2435347174047195 7.13517667244699 2.1499226563761904
Sn 6.819717961339804 10.161494368640426 2.5506101094630678
Sn 10.458145759329833 1.9863328041275494 4.207004271193754
Sn 8.999561062558191 8.609569571019865 4.128656329374968
Sn 0.3176317755134037 3.9273638400685202 2.2065851129671077
Sn 8.185500036230328 11.333258530171088 4.392969775352879
Sn 2.8925991534365845 5.692095844696628 1.9388785060200335
Sn 5.9410526938782064 3.7921786429082442 2.803201758727852
Sn 7.77161726053798 11.333258530171088 5.1631964242646164
Sn 11.207749576193724 4.956174535753257 4.440302323008743
Sn 0.1505186689091482 3.464921752710072 5.236958388015641
Sn 1.3418505450730285 0.6879183528643509 4.950795333050885
Sn 4.2334233304192805 9.504481004901539 4.099587887265096
Sn 7.899863629844699 5.801212753515788 4.874038701905589
Sn 5.426088089745876 7.465112105607807 1.6928247246918435
Sn 1.226630210147848 9.01925987785774 4.296594255252773
Sn 4.876145507869219 6.599983844672048 4.6044861573463844
Sn 4.99941683238434 11.209142005713185 6.470621260304256
Sn 7.527122120777431 2.51669246375733 5.475719281199179
Sn 3.2084800272015763 3.1610714724457294 4.392683187472182
Sn 1.7889857642656994 6.06347252301416 4.935396741790361
Sn 9.794540132507661 0.5288240172209409 6.90124882670099
Sn 6.786460052967536 8.655238953579385 6.414524664808927
Sn 2.6629377828144416 9.475836393421899 7.569964641797846
Sn 4.659599454928715 4.146917933218329 6.858562566250881
Sn 10.251497357541352 3.5200450648630968 7.036209498892349
Sn 9.77222090495245 9.981300849480336 6.900317928010805
Sn 10.277013250562117 6.909334084121116 6.592119558672873
Sn 6.733941404185831 11.797048633900449 7.075036821198978
Sn 1.1204018417747996 7.134202957705788 8.92204058555357
Sn 3.8102656645817663 0.9506554331287558 6.750375559264571
Sn 4.217732134908661 6.96176911721593 8.113791786016478
Sn 1.7191678286094285 4.384968333746666 7.78589640912989
Sn 6.424055809785889 2.5294899967086826 8.7264064443972
Sn 5.542697360921016 9.852776123890967 9.275557006195497
Sn 7.8400733560725975 5.229103633751903 7.906826764572225
Sn 8.28870366300639 8.066008230172619 9.044759548108464
Sn 3.131913338781447 8.802264793295562 10.748578907713949
Sn 3.453437235568075 2.5128396441068026 9.359876718351378
Sn 3.069960902865529 5.562311502256596 10.669066135485302
Sn 5.751405801998224 7.091581175120934 10.816234442775048
