44
Energy = -155.46058946 eV
Sn 6.715938783771635 4.861857435467753 0.29376651351646166
Sn 4.82580365216472 7.204062559143263 0.8644106676662513
Sn 4.132995351073971 3.2482782326116624 0.8363628502955763
Sn 7.335779072417939 9.151298266150867 1.8052413714607252
Sn 9.705126498792492 7.237991035014549 1.5216891114432496
Sn 2.1757998144146624 5.554957279099225 1.189679932218386
Sn 1.774459835160897 2.8304307106733426 2.86980521362548
Sn 4.1446799552337135 9.661929409490385 2.8942461124891268
Sn 9.166139479865338 4.2989644174462 2.120638298489199
Sn 6.729664741074503 2.0593326510936456 2.0657875710107385
Sn 9.554468676460043 8.82629186486672 4.172770060189712
Sn 3.8868775707869307 0.5870066393804912 2.3765263451638727
Sn 7.802332562281576 3.7658030066172086 4.930386630244958
Sn 7.025086086613258 6.343500446990297 3.0992672114388276
Sn 0.7846791537134519 5.802791879956117 3.9301066403950973
Sn 6.347680743671792 8.873572204144095 4.857159343359089
Sn 10.967331551469115 6.00283295944602 4.192669166332812
Sn 1.34019987939617 8.819540056743422 3.710789085031297
Sn 5.935452263252669 0.5837848487712366 4.798092133505699
Sn 2.3184324741299616 4.218469063482649 6.257393907564704
Sn 4.6652124468440554 3.4445145554325878 4.014690143465545
Sn 7.754717836585333 6.591916613356298 7.060724784512223
Sn 6.766064758075246 5.42017583334057 10.049682170146118
Sn 4.361342761658075 7.702364648229927 10.125474812988019
Sn 3.980393899867951 4.338023079606154 10.62642913211238
Sn 7.600241362963014 8.324755368882276 9.820010653724962
Sn 9.937887742345032 6.244501620676515 9.4358144894575
Sn 2.0788371243420714 9.370948179675715 8.94237501287467
Sn 1.8157072205926788 6.097092955768763 8.8934087126189
Sn 5.21583308567213 9.909857692330524 8.042867513879097
Sn 8.89628014718496 3.2466565678538104 9.56132148974935
Sn 5.8686546776667425 1.9648078157969235 9.973354565265137
Sn 10.902849611141 7.684843178212142 6.808197337121397
Sn 2.9177590916628504 2.3104547689461494 8.627138715192828
Sn 5.388561590988009 4.14182242612611 7.539059815926457
Sn 3.950371778844254 7.301978828618914 7.035419624793757
Sn 0.8183585717115174 7.852474073167058 6.565081765211647
Sn 8.460961662158423 9.657527767098973 6.997708984020331
Sn 10.167861051557026 4.611957443949815 6.884849323096017
Sn 2.9461872890202483 10.147769057074022 6.023908328689584
Sn 7.4406075526856865 1.8007683232676341 7.26869182998757
Sn 2.9068314330263125 1.201840445331805 5.423068204650613
Sn 4.8215648068779675 0.0502700843324123 7.724340126657349
Sn 3.7280830790055473 6.710082434556584 3.8296930266389153
