42
Energy = -147.9325384 eV
Sn 6.164771915238009 8.356530730937445 0.29467660538775964
Sn 10.148730885368144 7.363330919099876 1.7845610088945718
Sn 9.609313444844775 1.2484919102144065 3.6478905652670655
Sn 12.030096278453732 5.819121090554502 3.712449038074088
Sn 3.7245275059790615 6.765454801658219 1.1057530086999983
Sn 9.913257243832291 4.072925653113409 2.1655247025089053
Sn 7.436573347311684 5.821090572154357 1.5686280647672195
Sn 4.956309085314449 4.180461122008427 2.507082720543436
Sn 1.3669584350843242 8.707311744318861 1.9578901083551012
Sn 4.368191974029503 9.591804382685913 2.4948684556621847
Sn 7.575283695351411 8.669454965575174 2.959515507170199
Sn 7.90075000655207 1.1976926065606477 6.191060992078786
Sn 10.546553141347719 8.398851908092626 4.719558628180294
Sn 1.8843915444671635 5.805221641035382 3.374588338709562
Sn 10.667075125961713 3.5566172826390536 5.277463337093984
Sn 6.698893016577487 1.7080944499095583 3.3152901209438017
Sn 11.209701529300602 6.197667057815117 6.846987449987385
Sn 8.564321207609533 5.926920883256867 4.586533096726861
Sn 4.88565462750126 6.576900445879374 4.261039337569002
Sn 4.683029208074051 0.3892572877858399 5.063324063715973
Sn 12.030096278453735 7.3678571910941795 4.179326611565052
Sn 8.792932375760923 3.918143120750373 7.658954747860897
Sn 2.355001157816729 8.617139999771508 4.862529541894696
Sn 5.598980741122516 9.187372407706807 5.374475527507603
Sn 3.057157101534871 5.633190502999736 6.644166496732201
Sn 2.7519514444412585 2.817803547085089 4.556095207080414
Sn 5.659672807103628 3.3833991335591618 5.786120458355689
Sn 9.239600802728287 6.499350162238947 9.298593518030613
Sn 5.354929900929702 0.7089239398215698 7.983011039670922
Sn 0.1963618383460263 4.567393528995646 5.747596716708006
Sn 6.379672422179391 6.186062440888973 7.573385130621592
Sn 8.437243435833482 8.389469277159852 6.949810481167956
Sn 3.7669023592665822 8.167813237753624 8.359449997002889
Sn 6.031794407199674 3.428807789246274 9.050239297548764
Sn 0.6115288712794198 7.458388541566089 7.195897218145088
Sn 0.5115633704179104 4.652291365271512 8.864831962619613
Sn 2.8674766706731756 2.679794419164709 7.673542259163909
Sn 6.622418610928683 8.497192396373588 9.699811865063905
Sn 6.7487064435245046 5.679137487701919 11.003161457567824
Sn 1.363344804129853 7.316835683533194 10.221651434804977
Sn 3.4190937738244274 4.927355208082669 9.883814100550746
Sn 4.341259507142778 7.430390293218214 11.472787266891183
