49
Energy = -173.17279715 eV
Sn 10.55406725659826 6.595433931853368 8.054595990187098
Sn 11.091635869437422 5.036038425503827 3.932610839990662
Sn 10.724999796115796 2.842235288969551 6.00245334321657
Sn 9.845436686721039 3.665529486617968 8.871895765885757
Sn 9.50367402807312 7.459350113200823 5.302060844420103
Sn 8.363688664103723 6.594894023480947 10.248149914314071
Sn 10.63679773645616 1.8537599625192551 3.1215960161459737
Sn 9.316321452927216 9.456057972434534 8.653001127007327
Sn 9.629021428151542 4.162621008652531 1.4166588440668122
Sn 9.189141549847339 10.505850957826434 5.444556705428403
Sn 8.477052833393012 7.459546827497099 2.33780889794491
Sn 8.629148364570986 0.9436980601699164 8.103615009758842
Sn 7.662741096614396 5.457749568229385 7.291424156339369
Sn 7.274899881575397 11.55865370129955 7.687618623545141
Sn 8.232844153901794 4.1251943303151055 4.413966667085366
Sn 5.909859979804939 0.8386883895855746 9.629557581372223
Sn 7.078931971564017 3.6447332724693027 10.28472563858127
Sn 5.3905475595069445 6.218340104517667 9.231974761921279
Sn 8.205062092204491 1.0005540269295723 5.049829706521647
Sn 6.467513624222818 9.186586193363235 9.73037975598656
Sn 7.801090274781027 10.539866930824648 2.2492916843404305
Sn 6.908401228771834 8.603056298347244 6.638087878882658
Sn 5.774200239767284 8.191076584391574 3.6015173654392028
Sn 7.596216206874259 1.9150066356016273 2.099290059198056
Sn 6.091059177160509 8.557447204346937 0.5237761945549154
Sn 6.620347448177297 5.050698704822528 1.8265024455347374
Sn 6.24992249478662 2.7522584611343723 7.188304385857674
Sn 4.385024608083073 4.63779526829627 4.120742521918543
Sn 3.8870321995853843 7.140027902407632 6.592788533614335
Sn 6.052833223961419 11.281844706249633 4.744436000490441
Sn 3.9823146697266205 3.3293719982601586 9.822491416430696
Sn 4.989030117680587 1.390248424255999 4.575042047858915
Sn 4.288901969797036 10.212980472437337 7.505782567018471
Sn 4.72916377063588 10.994117900065545 1.8747750917308537
Sn 3.290102199905444 8.204317609969756 1.7657134472435123
Sn 3.741355737253053 0.992663211198109 7.425461384377358
Sn 4.56512624004926 2.397660878334075 1.7446890914636255
Sn 2.8695693279087724 4.203561584971191 7.0213904820665265
Sn 3.216323768764073 9.768333590996537 4.522159163590299
Sn 2.2004698486940883 6.753957593147306 9.345366343576606
Sn 3.739601166721591 5.185960741362737 0.9224311767304694
Sn 1.911736202063481 2.3859473256221797 4.393426035412296
Sn 1.4937570540897271 5.026928477449466 2.993249905581615
Sn 1.1646594596119586 7.089814714585385 5.22616038606106
Sn 0.6213075653603105 4.242906441126975 9.23734388766816
Sn 1.2569516205845341 8.995370828763827 7.63566960937407
Sn 0.7374937362512475 1.8315517579482308 7.2227962012093805
Sn 11.619113989842429 4.417398094669029 5.934571425941555
Sn 11.091635869437422 6.696037123601534 7.874912062559933
