45
Energy = -159.04585598 eV
Sn 3.5677414483460703 10.97982289648472 3.6589373260961513
Sn 4.93578923209139 0.992463536877722 8.611037301081769
Sn 9.540465066856928 3.38364339562703 8.704869661801709
Sn 0.999748448127673 0.8320464108901988 5.326865107600773
Sn 1.9859269653035787 5.6860642639650205 1.853201024123498
Sn 9.978022894218343 5.5931157662015485 6.974240634765115
Sn 8.000521629524437 6.0350772430708854 8.14692888777165
Sn 2.5556852165689135 8.918347238954617 1.5916140438588806
Sn 4.607846550652346 2.9049662095326934 11.022617200163165
Sn 0.9292815268309783 7.624658348143098 10.64543296034789
Sn 8.793486562923237 4.712027226092823 2.4991220007553396
Sn 7.030335084249767 8.76292711919718 3.6315111333447807
Sn 9.073449655495315 1.7371679211500066 5.33316624446301
Sn 10.959165531061563 2.52224003996266 3.1552704289710833
Sn 6.943626342815069 3.3467643575061676 6.700022960868653
Sn 5.632402613678539 4.209184158734045 2.2587467142439674
Sn 4.048367167727945 6.91606269359619 11.056066480830456
Sn 3.324456789302297 3.6241296966131493 9.11664779984418
Sn 1.329735185679172 6.379731049588073 8.152843934134028
Sn 6.403428203929658 1.5836696301540323 3.593547028333607
Sn 9.819563102795666 5.3171930672908365 3.865135757243265
Sn 5.9771213657583155 11.124999597210357 5.991585788709402
Sn 9.135193269072392 1.7671308987220717 2.02001914725534
Sn 0.770689444213959 10.970255154846003 2.4824589115872535
Sn 7.366587640426873 6.210421058870081 4.970347247040989
Sn 8.04419386428186 0.8022548379169954 8.255218205442967
Sn 3.05249001885245 7.848804624493217 6.063411401090129
Sn 2.687174877000838 2.4987063468790844 2.806902404200666
Sn 3.170051688609491 0.2614612606482341 0.5957445445092536
Sn 10.517215936317433 5.315090302576045 0.5761561790813207
Sn 6.607862594902565 3.539242672836724 9.75608898831331
Sn 6.47269073158601 0.4245846005389676 0.7957230114540143
Sn 0.7594445432399403 3.325458378195205 7.3976444179588885
Sn 0.02321620336533589 7.975220624845636 5.589150814412727
Sn 1.348330024517052 5.208577124923769 5.107539819234002
Sn 7.6103501949962835 3.1536166989224927 11.168068117374817
Sn 9.819563102795666 4.733522373368902 5.8696380515493685
Sn 7.002213782257971 6.847623683557151 1.3248722125493528
Sn 4.485661285960031 7.279927747222304 3.2141361886569406
Sn 11.09544867217556 7.900649148669801 2.235526127982326
Sn 4.768257060780056 6.148879830488051 8.056495087864954
Sn 3.6621063697269163 2.212456727122343 6.113711218243611
Sn 1.991305752739985 4.755670124954254 10.216966725885971
Sn 0.6988528208854858 2.1735869389503946 0.33333204975016273
Sn 4.617596538345806 4.953856880363012 5.304101710196209
