42
Energy = -148.02752698 eV
Sn 5.6142342209760665 1.8031350543117057 8.160985119628537
Sn 8.777723985548308 2.1992454992971955 8.358999998029914
Sn 11.789289367369783 2.7821306646781885 8.49543919255964
Sn 2.4715526927854268 1.3046075922389773 8.047520786942014
Sn 1.3645875767902584 1.692187934985125 5.209230051802766
Sn 7.2006717251350425 3.598419469167794 6.032394063025905
Sn 6.723915444352172 4.44253469619769 9.579872068290866
Sn 10.35834547458261 3.042292867799084 5.704334168688244
Sn 9.974743347399201 4.968202536443622 9.416641040112445
Sn 3.3950708897142086 4.101944416174452 9.130154132712736
Sn 4.363601330072858 0.8554768828482919 5.480027794289806
Sn 8.659303113771891 4.463543627957589 2.9394949683445963
Sn 5.861755957095854 3.0167082565810275 3.172155679145787
Sn 0.7361055161022161 3.803930163867973 7.445658541630167
Sn 6.58744464836424 4.829760523604705 0.6544711084479993
Sn 5.320365228505379 6.0273087532069 7.173634660214401
Sn 12.101888753713023 5.486307357537247 7.117276234353513
Sn 9.425690338821516 7.270358731450465 11.274889186605376
Sn 1.2578522237317233 4.767893253085347 4.302701540578559
Sn 8.924138661840553 6.075475080548082 6.6415383329893
Sn 7.252278107354895 7.8578959753677795 9.414067271385223
Sn 3.6219835459590235 3.7056326169056883 6.011765729342234
Sn 10.646174281330664 8.023869807644889 8.381172289909788
Sn 9.419453415883494 10.193181875826777 10.107790564698206
Sn 3.911643662812091 5.227386291115531 2.4749084120493023
Sn 6.4132073355775905 6.3073999947362775 3.8397198434732243
Sn 11.065369328381786 5.908407410429331 4.296950056932984
Sn 2.6643952887105247 7.422606647353967 8.362027785593337
Sn 0.26424273031482404 6.79004095852623 6.389092218759511
Sn 6.43710089970731 10.70734276091595 9.58557733953089
Sn 6.745297187483995 8.61047349453547 6.244224785313216
Sn 8.432973000918643 7.16388169021083 1.464347567120338
Sn 3.080496496551532 7.1781570206742344 5.257501906504251
Sn 9.669364120735851 8.645023269940006 5.135265586824891
Sn 8.573197320789241 10.8571348180442 7.2684883909708615
Sn 5.298321657761976 7.6827676828565545 1.2192601834989363
Sn 7.3318564721896635 9.520050811846236 3.1516455434698316
Sn 4.33298232044912 10.008559519965866 7.422694192335901
Sn 1.4029300838780285 9.64297602339862 6.44070950227067
Sn 4.193041372695641 9.53119619470518 3.7872867768307508
Sn 6.2080859759799285 11.65320798152876 5.177175587559466
Sn 3.2165472432768847 11.934702019895775 5.34660313351404
