48
Energy = -169.97971143 eV
Sn 2.7895813728051473 9.160423663181138 1.2441913102315894
Sn 4.609362994394072 6.68050203395257 0.8249404550802435
Sn 7.31887298461158 5.428367412567142 0.34358831080792596
Sn 3.795965702133224 3.7212387007076657 0.9168566763214565
Sn 8.70878825687356 8.227705797380203 0.5912885705254731
Sn 1.5638407717496716 6.02301863184849 1.1680327680618259
Sn 5.884712529637628 9.93617761810388 1.5441692257142634
Sn 9.429469401094567 5.64056722817053 2.4682151631795777
Sn 10.761364842104602 8.439282987470527 3.05071144560762
Sn 6.3542832667377365 1.6843371169552879 2.0877886699264168
Sn 8.914228024470157 10.776095565825639 2.421222874474245
Sn 1.2650218531532087 2.9402727241648443 2.317399933241765
Sn 3.650187549982325 6.848765863130502 3.796203769503501
Sn 0.6527734397926264 8.16492986545205 3.2609895090179255
Sn 6.486175646186751 11.185808404161152 4.399787680146073
Sn 3.5141395262954815 0.7236178081923074 2.8914012544839864
Sn 6.098445875456989 4.530109830990944 3.044465557106491
Sn 0.8867125266275017 5.297518027099302 4.2983494185333955
Sn 3.5002301160591203 3.407333531748242 4.42323515471767
Sn 8.251919632082078 2.3973216299349573 4.435616221684516
Sn 7.393888822474533 7.887239410492188 3.3497146660752644
Sn 3.608378084474463 10.007962117194392 4.049058344545473
Sn 6.304596448025709 12.081874101556643 4.638551507180411
Sn 9.741276341759935 6.755419661648459 5.493572486283102
Sn 3.421748208317935 0.4410007482985628 5.873812130951414
Sn 1.8127832971649809 8.333689986412422 6.11256970195653
Sn 5.875579280966986 2.451003419286273 6.523599841271042
Sn 7.026426506578213 5.442357477026684 5.791116164698057
Sn 5.774640159861917 8.485859289916508 5.9638373399356075
Sn 3.756206397680216 5.880849752081648 7.085614551050636
Sn 2.1846398891231007 3.3697337446147557 7.2745578027004125
Sn 9.008972629791886 9.782023982563084 5.445259238981782
Sn 8.528006793211638 0.5051237668748423 6.923769309605842
Sn 8.821239296584944 3.6125296586275426 7.648156191620818
Sn 0.5553251017682296 5.90019863631934 7.438403141613783
Sn 5.738926062051831 11.747345868175307 7.759830212975573
Sn 4.014142066733345 1.8003501294569744 9.073022075856457
Sn 9.521050383960029 6.803085526904364 8.874538786217778
Sn 3.834972973992388 8.567607389244715 8.54585159476214
Sn 6.608003485823869 5.791756775407576 9.078438040433934
Sn 7.041233090449453 8.846963964070307 9.131659327421444
Sn 7.1313098403520305 1.7905657760409435 9.407108924758951
Sn 2.387156992082728 6.293934606311751 9.940611281712075
Sn 8.929617504234114 4.44007257233419 10.770303225859216
Sn 4.534257763107103 4.347907927828036 10.656903422687142
Sn 5.19930476659139 7.692219572582167 11.377054956288456
Sn 8.338904357424768 7.417601565327035 11.644522615579616
Sn 6.568795559838403 5.11574505799439 12.697567565285116
