48
Energy = -169.86822348 eV
Sn 6.145220527926493 6.833123417123983 10.836937901060919
Sn 5.302787150584979 2.157625843502036 10.159352391918654
Sn 0.7053725133658506 5.975101507163926 11.152456929276612
Sn 8.154370420251814 1.1235128419023612 11.542579050529632
Sn 7.199819005004659 4.154615696233912 11.352071982812864
Sn 6.330455468243652 11.110186107346038 10.189183480986204
Sn 0.6853962837733582 3.0467609431571763 0.6712199812126236
Sn 10.073083720110583 4.986132571444004 1.058716010383257
Sn 2.691143677204048 8.180794662895309 0.857078485601947
Sn 3.6990068040426176 5.478219492839591 0.043036478138172615
Sn 11.469168899728633 7.879104304331552 1.7564591645030174
Sn 6.6633981674650355 7.06666776711687 1.9321416779730642
Sn 9.681963306906573 3.377853059750421 1.0058736448572276
Sn 4.3163559247566745 2.813563665001631 1.2543028474186042
Sn 8.651541934310139 0.9957610763027736 2.893195315852173
Sn 1.3038040094174863 5.43996543310962 2.4750489104122724
Sn 7.133696935883285 10.421811183447874 1.4308289207940974
Sn 6.993732713857852 3.6049833354542096 2.5656213602146902
Sn 4.212994125411981 11.595347545800342 0.5414626841904915
Sn 10.73114190122476 2.873890183599673 3.2131844704455523
Sn 10.362668389830022 5.839036726737672 4.090551658560981
Sn 2.166664775197921 2.42460750331173 3.6004175293447553
Sn 2.1052287079142498 8.41286444563709 3.9164399699947174
Sn 4.190470177783947 6.206189952735139 3.407768557759647
Sn 4.919596322722443 9.336336585379376 3.1393692987362205
Sn 3.015858101576993 1.090249883654219 6.760628663908656
Sn 4.807181879684565 3.3843436720043756 5.293479029835494
Sn 4.560835612244393 9.483204164984377 3.0202570671240054
Sn 5.171577219167331 0.6351765127433392 3.631027007815885
Sn 7.177612392166595 10.435399815455204 4.736072414901844
Sn 6.665923763361466 6.083856997616575 5.766337460565966
Sn 2.2383522854227813 11.188711170586046 4.186022766755464
Sn 0.8964982811894966 4.407952826563233 5.534290035773343
Sn 7.981998210667453 3.073838741437315 5.428489785530537
Sn 8.780391180326058 5.85023322721533 3.690040614847298
Sn 11.78879619021324 2.8436146496752044 7.946068682462838
Sn 4.841407255843261 8.4069384211367 6.024604354614255
Sn 10.395580699242261 5.535852994906129 7.386216363568322
Sn 0.294766865951656 7.789635918614466 8.606388489990373
Sn 2.4006452989894793 6.817334529910974 6.747953736896001
Sn 4.423348997686192 10.206207446860006 6.096219064580621
Sn 5.451983249931532 7.042973173760198 8.761311041240994
Sn 6.162433918153005 0.8521861559180035 6.86050349311625
Sn 2.1590088643237912 3.213814926055917 10.122828466251308
Sn 6.746270556065006 4.323878005988909 8.196323174436193
Sn 11.588083544373433 5.065581099020411 10.159352391918652
Sn 2.6139078239306843 6.398589080748775 10.001560962380335
Sn 3.76682989302251 4.3547446802710486 7.970377263472757
