42
Energy = -148.11563294 eV
Sn 5.302256743283264 7.873975765787074 0.2098666801638986
Sn 4.50828382603598 4.9783712185679825 10.517226523923465
Sn 7.4412930703726 5.055067366696068 0.5681584515802361
Sn 7.695723316844994 7.75292261882388 2.144562276810004
Sn 8.551193416192131 2.2296330825357207 1.268868366494269
Sn 2.542187769287764 6.402269571770795 1.5629959312974557
Sn 9.958164482356334 4.349090348845677 3.0196915181934054
Sn 5.310732393449253 2.8157370425549217 1.6364180917865867
Sn 3.4036828961994634 9.4624864130048 1.889790958739378
Sn 2.486739754645694 3.4863161508835323 3.109151519875631
Sn 5.788131310179394 9.356112454656499 3.943795596705518
Sn 5.259222437720222 5.939650360220491 2.8591712255260973
Sn 7.124132129244469 3.6364099756910893 4.086040902839532
Sn 6.61741422604701 0.5734084612772332 3.1889293513542567
Sn 3.4593602301701267 1.0158784149771207 4.616829755153751
Sn 8.297330419721414 6.4315452445260055 4.840435058941222
Sn 9.501997971590429 1.502076453738669 4.285080356218311
Sn 3.235252816192141 11.103949528923254 4.42160098253184
Sn 11.60607464608788 3.4729426546705877 5.455099973697525
Sn 2.896224806092714 7.860587720786463 4.504903511605956
Sn 0.9807729584478817 5.327820448769948 5.2054924815902694
Sn 0.791945492997761 2.169664581840591 5.69156656658073
Sn 5.17324846797351 6.9661098719501355 6.342695332907536
Sn 1.5223286127493756 9.727950916863016 6.508028220020434
Sn 3.709249969801797 3.957188559690968 5.8620346639071
Sn 3.06919244457574 1.5196334140892984 7.735308981456017
Sn 9.352547187895446 2.461702162368885 7.285731942730648
Sn 4.5264160938212505 10.744654943167806 7.238788955816199
Sn 6.150399471738738 1.8073259273721136 6.266939592711806
Sn 0.7082853266869945 7.144413636771072 7.957126169048736
Sn 7.305638524717178 9.131931072532323 6.622417804238536
Sn 10.253159713738775 5.613443432597631 7.036485361778135
Sn 7.161734263073137 4.805195918781242 7.3544707970969005
Sn 1.2957811381539466 4.043602292162016 8.075880770828814
Sn 2.6038948659434156 9.484322744363764 9.384020174514369
Sn 3.61780986046763 3.876421381199198 10.153624597683033
Sn 3.5003698406020334 6.57417257245759 8.877451840087847
Sn 5.614819063326594 8.708361269385778 9.292761935944457
Sn 6.3378451259514215 2.619904326734665 9.415579870561487
Sn 9.078570750216194 4.012430713756136 9.88556505084991
Sn 8.68200184330251 7.200306248653178 8.979704611553824
Sn 6.386796421796908 5.613218815247278 10.405702663747794
