40
Energy = -141.03689788 eV
Sn 4.304247668667952 6.620217921832975 10.435693940951097
Sn 6.494470891663088 3.783357782650281 0.44457949013999076
Sn 4.1568347788938365 9.050613493618037 1.222976782112647
Sn 7.261470229516686 6.377844518325222 10.323637008392172
Sn 2.987100685719088 3.9318140277379774 0.11215276264224332
Sn 2.245818146964428 5.919487408165022 2.354261908259846
Sn 8.64813524898372 2.792304397500899 2.4273555558267685
Sn 6.925999558734297 9.942631323335776 2.1701995118084265
Sn 1.8969332413974493 8.996719628010483 3.252895294462561
Sn 4.587238085313822 1.6288946439502878 1.3212472534543718
Sn 4.3521002156989335 10.564413052529812 4.056599107786529
Sn 8.775905043114227 5.443431397733977 3.7471347123788377
Sn 6.0039240379804095 6.754592890614412 2.250150256045491
Sn 1.6023959576540991 2.637021494736925 2.615990278942231
Sn 4.134180890936197 7.52997209606362 4.985902984445062
Sn 8.854433749236838 7.574451797888996 1.6166879897618418
Sn 6.703940295398641 0.8790910785519066 3.917881170347854
Sn 5.951216766337766 3.8399623220417936 3.4172146004061896
Sn 3.6401206877244405 1.2849539244622967 4.43794495177126
Sn 0.08404512894942531 5.195073436531689 4.4802444653545885
Sn 3.185273153229593 10.700008636866949 7.078286031374349
Sn 8.976946215567285 6.916830058701934 6.295215771903106
Sn 1.619203797753877 4.87027389662357 7.261545638794464
Sn 4.608462301775099 2.5994466078232366 7.403613126654149
Sn 1.077330440467479 7.742087710520928 5.937342113893763
Sn 7.0476049379959536 8.898617683166563 5.003222073177352
Sn 1.7494406073143662 1.924020309371021 8.630507290017507
Sn 6.326830953810456 5.1865232359985205 6.190777936177266
Sn 7.74063779283011 2.3705857985859327 6.368737181981832
Sn 6.255441599390761 10.709437297241594 7.499931072806776
Sn 5.078240561666915 9.854956124765055 7.029414268156859
Sn 0.5633114348741769 2.4121818610090653 5.621094883962989
Sn 3.1693884036667117 4.331648109604978 4.773687018233234
Sn 8.729820699755871 4.488911469764964 8.22496453890095
Sn 4.402157526200207 0.24477246898814456 9.943677880557344
Sn 3.2372817857077965 7.639137469480998 8.009973456048805
Sn 6.425740111010434 7.347893121213082 8.298796667567334
Sn 4.0599586943098664 3.2833940509408714 10.32363700839217
Sn 6.936471356903687 1.955072621615695 9.567588446172495
Sn 6.6136438970426 5.080678019765899 10.250562758269961
