44
Energy = -155.4408345 eV
Sn 3.0939100549722887 8.967750465295428 6.0026310968916095
Sn 6.266768955878676 10.840031634117263 8.91199363489253
Sn 7.192068849287339 9.809792541611609 2.6942757332949325
Sn 3.0757707965370225 9.651698794236145 1.9112178962515833
Sn 6.979632961523766 11.8995185543325 6.098105533432996
Sn 9.362667653429874 10.241953002729907 4.965001234244755
Sn 5.003966351938336 7.624105826430988 0.7652852932832117
Sn 4.67689591672688 10.846421971949717 4.156195326700089
Sn 1.4485076815556144 6.301837907218738 6.852313810793956
Sn 1.4071035067337967 7.883914349943481 3.718182038176681
Sn 8.004509278685248 7.679223346502315 0.728900106932865
Sn 4.112813687267235 8.732636997482157 8.895980953565942
Sn 7.62113846865373 7.962085975019988 9.268509379005497
Sn 8.327302381144378 7.2967792885816865 4.05447389040412
Sn 4.685505243413353 6.221835598585805 7.049240839916692
Sn 0.008411156115233593 5.215428661886123 4.415043092175472
Sn 4.939124785621494 7.653164358308552 3.855625909478739
Sn 9.191392428890236 10.39399753408812 8.120181961096858
Sn 2.826474611082771 5.68064766696329 2.1045811495422835
Sn 6.545958814106273 4.818226986885969 1.0777826835608388
Sn 9.853279002704042 7.69014151532026 6.8269558533818255
Sn 0.7364164464106718 2.919342694639103 6.73234756492587
Sn 7.85637015737353 5.295747379567065 6.810642064367083
Sn 1.1319351436675733 2.9651775027084812 2.5360208130186956
Sn 2.285658232633526 4.385210165950563 9.05704594854318
Sn 3.1491102353271625 4.461560519027107 4.914985250658707
Sn 4.763323060550922 5.899787633853729 10.20673380456815
Sn 6.687365751588139 8.901664773740173 6.468177397931775
Sn 6.609122597857473 4.5961582870928 4.0947119189932755
Sn 9.742025490848318 5.476925995947557 2.097081949502819
Sn 8.397060470517703 2.5574560978005065 2.243672207738862
Sn 4.943179149925833 2.8922994047115544 7.379848247302671
Sn 7.105162567324911 3.8934600994570867 9.461797570262348
Sn 4.215083845909022 2.9145092552223977 2.3672119569707273
Sn 9.819822726736428 3.8612677610943846 4.784021427686127
Sn 2.569420315266757 1.5145844361731795 4.793442232768754
Sn 2.5455713987869766 1.3256322641038134 8.755745331310784
Sn 4.434197943757648 2.7077357033625242 10.682126927344857
Sn 9.064017625312387 2.2111937969753397 7.48548758865276
Sn 6.324696556066108 1.6242973752344028 4.494788699007098
Sn 9.48354896941581 0.8489873759413007 4.651704476102126
Sn 4.451437846777118 12.138023228402965 6.638026572337724
Sn 6.616116952837638 0.8757918630335357 9.284121194992405
Sn 7.492935307801099 11.8995185543325 6.627369137702315
