46
Energy = -162.26641452 eV
Sn 5.068633440602496 7.822779184765724 9.845086533837794
Sn 3.1752724647165427 2.306497315056492 11.204143324727802
Sn 2.0845623855467923 7.761820757262937 10.478189401291427
Sn 6.677117245776682 5.302952890287364 9.971180104790655
Sn 1.1425009847140586 4.894544758398578 11.202623777583494
Sn 6.839695882390367 7.522277170599211 1.0045537788987158
Sn 4.136545246001475 5.370990601340494 0.1501279798330499
Sn 3.792984953933308 9.05214156861063 1.3849474672405127
Sn 6.046447513950799 0.8736572977747592 0.5520411029151185
Sn 9.00772217913596 1.7334507723099455 0.5601849892169186
Sn 0.15254439961890398 2.6632475307985777 1.7817571891010373
Sn 8.246931428262716 11.155253469054436 2.7321170276900397
Sn 2.632516555171286 0.2215301353905261 1.95229453350004
Sn 0.9754294214665143 7.652296242178134 2.0808251526247696
Sn 5.298630277933377 0.057759576690953884 3.4606668757381804
Sn 6.923981431275549 3.8137145220289295 1.2501292039500287
Sn 10.050277490649927 5.6961026031433795 1.4812638988622056
Sn 1.8542605760728783 4.796187272195024 3.050989464524737
Sn 6.457803356674575 8.874969540792707 4.2674848841127115
Sn 4.632179087304511 6.393980952497851 3.0555795745825636
Sn 4.393578989667001 2.801725760317712 2.617015974943215
Sn 10.266202279866077 4.52954295218764 4.19695680929795
Sn 7.677199270169143 5.971684506301104 3.5926922935513335
Sn 0.3354656712322989 10.975061768101806 3.7921620196711148
Sn 9.005518754983031 2.8968061018519276 3.377853377207324
Sn 0.8849433783256319 3.326370675017694 7.892717099181236
Sn 0.4753222948759595 2.1966110344147527 5.176277327816422
Sn 5.911985689775402 3.8410979223474055 5.150170332863566
Sn 5.434290974194479 6.847471000116138 6.31055996365314
Sn 3.0691066950012758 4.891233545844283 6.248675693793618
Sn 7.9446562049373926 8.54237175437457 7.023343130215591
Sn 0.7667355531283974 0.18621543260882742 8.087828700130455
Sn 3.4756244833542342 1.7569995618877563 6.765179176319028
Sn 3.181861058518244 8.724265995536596 4.368526241874331
Sn 7.737396243295631 5.371312008848778 7.553509558290277
Sn 2.5336164855600534 10.49397485740949 5.762246500202625
Sn 4.97828589463118 9.649573315362128 7.311929666464931
Sn 0.8585205190735127 6.739035879457863 5.229391679008364
Sn 7.509023775910485 1.2176360255784764 5.422592690402905
Sn 5.510798948061325 10.175709792964991 6.389766349737934
Sn 3.5102897473389962 10.371775334033734 8.909746215607278
Sn 4.98325219276449 4.575610278577021 8.718196950738248
Sn 2.8539792818399286 1.8611935642651836 9.845086533837794
Sn 6.225012660359897 7.425117310197336 9.398367644504853
Sn 3.256448670898177 7.279648648597951 8.472970986285004
Sn 5.695250434801228 1.1281978077835833 8.662447814542183
