44
Energy = -155.86957753 eV
Sn 12.317843821308898 5.704240930995547 8.123083515730382
Sn 12.012422073036154 5.215390389798837 4.450487581101085
Sn 1.5676359819390842 3.5266501605325593 9.011138137719849
Sn 0.711859311258499 8.511356639367426 8.708017376404428
Sn 1.6229569776878499 4.035138321379569 6.042031515903113
Sn 1.7388160885278758 6.273770337498388 10.48407210731559
Sn 1.2253460026339946 7.247521120578547 5.920196718543383
Sn 1.1513261009342495 3.778239916848572 2.4248292427570983
Sn 0.9149826824531645 6.857561849976626 2.2966109120754505
Sn 4.789823871360875 2.6254690160156415 6.57745037918023
Sn 3.9837916405977136 5.949901989396889 6.290058243947306
Sn 5.032067172261995 9.866763570828962 6.048503236326856
Sn 3.838233194409063 2.6797480387371757 3.5848757417413526
Sn 4.301995114579311 4.7917231147833785 9.171048831567678
Sn 3.6794139099514926 7.975983211492521 8.579631513441779
Sn 3.0144452026798665 8.557374960004497 3.7970879848458123
Sn 3.7933032163537796 5.698226394148096 3.1658149509515927
Sn 6.6253571836962415 0.8880492766261708 4.552231541677561
Sn 3.0770042174355186 2.453790266613564 0.3968986366785566
Sn 4.92865054390521 7.063058712908623 11.16830316382447
Sn 2.743324617542058 5.533209559246651 0.12201134993097623
Sn 6.890258415038329 4.056004967949719 4.958930088493506
Sn 7.884692586119695 7.795347761983558 10.324991678598073
Sn 6.198885406114022 9.783778587643553 3.1838778269814854
Sn 5.569471117501178 1.1444514225621745 1.6178166060794559
Sn 5.213741299809634 7.295338828914869 1.087984156247842
Sn 9.667511119214986 5.2260141749450995 4.693194414817533
Sn 7.370662423201105 2.823652318761432 8.256127089315108
Sn 7.142313988167485 4.822988241346928 10.72083192771225
Sn 7.558898978040176 9.148961326704972 7.608721253323002
Sn 9.319950564498575 2.0589626751755348 5.757605861976065
Sn 9.27140476426593 9.846471936886111 2.974660786885224
Sn 8.08263057133127 5.783430670403596 7.854684490887538
Sn 6.539513740282065 7.346485814652078 5.300053329474411
Sn 5.667050579125606 4.225984038125895 1.0631561262278553
Sn 7.883953737015516 11.25968664962852 5.313976893226979
Sn 10.297247993634873 5.985877618422729 10.346967729131729
Sn 12.012422073036154 3.738857680855403 6.25355222424784
Sn 8.189708633482317 2.6793103074282767 2.55045760421999
Sn 10.27965515104404 3.357773841925193 8.721403869874523
Sn 11.140118227934718 2.981307072391913 3.3578317436419023
Sn 9.619922950616628 8.448480458837455 5.579689580492494
Sn 7.97613768283014 7.114244969958667 2.670256808487298
Sn 11.070587587798174 6.411412146816406 7.457719509642004
