42
Energy = -148.43967218 eV
Sn 9.248525474630883 1.923092614305873 0.2373151935831463
Sn 6.270613124184751 2.4064073274916074 0.9662776243256013
Sn 3.2323420090783577 3.901717695651085 1.0972394089404998
Sn 0.4533460099890307 4.921366680542524 0.43842664383014174
Sn 5.56765565185065 5.650968311502103 0.28165576683633403
Sn 8.465271011253135 4.726286226225979 0.8166027125577917
Sn 2.6463174772718774 7.011469257308351 1.1347182095319261
Sn 10.585466823393116 3.148781833090007 2.7634700711218403
Sn 8.511068966185242 0.7155302756141935 2.8859442828668036
Sn 11.930371326696958 6.465529886369725 2.7189197370053493
Sn 5.497029535856251 0.6674079252804529 3.4248815650900832
Sn 2.916229457009844 2.598933660592878 3.7807219401143013
Sn 0.046897720927137496 3.3432443770846745 3.0439503905919265
Sn 6.538151894260187 3.3883759051667584 4.115697572124172
Sn 4.069807826513665 8.924211067918039 3.0406991767930576
Sn 7.072757702027193 7.367707629235099 2.2539897182495867
Sn 4.531028568328559 5.688043960906994 3.334155312412012
Sn 1.4635786399354977 5.963280452596423 5.024590913614069
Sn 1.036845604915326 8.81809262650267 3.6008611167977778
Sn 8.80548300226033 5.342235350301578 3.8568473123992475
Sn 9.20549746878356 2.1834689111541374 5.422167538113647
Sn 6.41276661622645 1.2266062564632998 6.372356408141613
Sn 10.788579109082164 4.832892471477214 5.006567952342103
Sn 6.294318832852686 7.822501762137863 5.319663303310287
Sn 9.269614630389272 7.559532065888418 6.58345898210929
Sn 3.8050428728490417 2.7571190366733727 6.556304212236629
Sn 3.096917543788608 9.312515777628802 5.907095076816215
Sn 0.09498869654241843 8.52127340890263 6.558865592924441
Sn 10.78857910908216 4.746882959818071 6.349247527195186
Sn 0.6433597973908496 3.103528155782511 6.241653157535323
Sn 7.645696608857527 5.272298510446109 7.495896668309939
Sn 4.305116120944339 5.84440810914382 6.603316605345768
Sn 12.197039607481 5.6699002115900585 7.610817655614014
Sn 9.596349961635083 3.1584630013595834 8.879818879665235
Sn 6.491948928773019 3.0163238164416124 9.007655707753695
Sn 2.3129587155064057 4.364190518051095 8.754603785317451
Sn 2.2422109416307907 7.467332441577868 8.46585239622541
Sn 5.149343328454043 8.542787884678763 8.136114010272838
Sn 7.945193228081001 7.893995097522168 9.392382491593297
Sn 10.53225958690593 6.061461812759931 9.192831795615412
Sn 5.304320968467322 5.9007326178574315 9.82788783100795
Sn 8.149583718739335 5.162365533007779 10.891741177817753
