42
Energy = -147.88838146 eV
Sn 4.5302533756384715 6.296903668374042 10.201067990885669
Sn 7.580806439220997 5.616622430431945 10.518118326002067
Sn 3.0237894599250286 3.589766150375946 10.797874435778532
Sn 6.949496580872792 8.454029543597734 0.3189125789679129
Sn 1.242303650639099 5.806854710285919 1.196361455395199
Sn 7.820785455164697 3.5515926940550306 1.7912967945863867
Sn 3.961744468949572 8.612531717050286 1.078489591639084
Sn 5.521242829881957 5.691321461339807 1.9307243606878648
Sn 5.650865734804147 1.7094375478863844 0.8062373985334312
Sn 8.546526923836472 6.644007630412295 2.291614278450841
Sn 0.5079585181339363 2.6830538316975887 1.2988852294714253
Sn 3.731752530231098 0.09480233782474223 2.656073337487275
Sn 3.3742090963545546 3.282399128962516 2.645938537568386
Sn 6.874400135056449 10.587017776544128 2.6179144494996103
Sn 10.185554026125986 4.530928611755864 3.253996656754706
Sn 10.68329575453835 7.522169354087912 3.185669816220182
Sn 6.413953238227105 8.588159644018795 3.4151293223630024
Sn 2.855762007797872 6.92975615929835 3.5030180321816444
Sn 3.666657327937955 10.086630352785924 3.6137775376434433
Sn 5.384089871470138 6.018965425636706 5.160310331365899
Sn 9.31542388402008 3.2362683178257323 4.389475129861021
Sn 5.180895049425008 10.364131976961897 5.23319551259836
Sn 10.661804619543046 3.072579405107439 6.117703072253912
Sn 8.20393017882753 0.28812307339487103 5.216624965250268
Sn 1.2622564250552495 1.4437975351536592 3.9857091301889542
Sn 2.557948920849889 4.144601252808808 5.451461429425675
Sn 5.993753289710978 2.3108249868923774 4.14246077907023
Sn 3.0655874296687213 1.437255042025378 6.699768357128021
Sn 4.809074911264828 8.640895837725834 6.47101063463544
Sn 1.702661445123708 8.683510042708907 5.609148855724374
Sn 8.335219641016716 5.815326874332281 5.703612209518968
Sn 1.59055386865007 3.6349217082140375 8.454985209906825
Sn 6.201254607867807 0.6325569528206156 7.846654238687446
Sn 0.1363540761172442 6.062286776743662 5.856462583048826
Sn 8.444612559657255 2.953936639174656 7.300847209411652
Sn 5.489027425002565 7.882579077693472 9.353161362135943
Sn 5.437483675318154 3.7101070451840488 7.35754320714445
Sn 3.24996036412211 6.290197939819456 7.7027590195956535
Sn 4.044471776476227 2.0664856607106095 9.709443320030951
Sn 7.649353670859787 5.796692058314627 8.712823424746672
Sn 7.1789526658174685 2.998263107261373 10.08692868182659
Sn 4.8682288753564595 5.056786335302407 10.201067990885667
