47
Energy = -166.54912443 eV
Sn 8.576113685549977 4.666203082535895 1.6491917174204807
Sn 4.360550494774317 1.5452005801739401 0.3465175403511581
Sn 2.271100909926682 3.885346714356377 0.3068672590592776
Sn 5.160595058562142 11.14183686907444 1.564399326529097
Sn 11.791838254613415 6.048703191246565 1.8081728321372013
Sn 7.5437319668170275 2.049029492308103 0.20240223524899092
Sn 4.004152401697207 7.546331492573286 3.2240392244436933
Sn 4.52588480610145 6.848680037014254 0.16117069389522834
Sn 1.22632036927075 0.8494018860420013 0.5246415821727366
Sn 9.690466904148312 3.7112224778962704 4.558458875435288
Sn 1.7469025255608763 7.999727491644157 1.0527302855227505
Sn 5.441287065453406 4.311696951203594 1.761898079021395
Sn 2.272476668823547 10.045777979592094 3.4559777394995312
Sn 10.063048921874088 2.0210001130246744 2.0849491268296143
Sn 3.599387941779989 0.7987503904795447 3.162528917019008
Sn 8.161678655489105 11.97822318248297 2.053271258577004
Sn 12.011805560632808 3.0344503601968658 1.5840563312488931
Sn 2.0419289527300735 5.1436273871650435 3.013967701897267
Sn 10.490850280187768 2.7102650310669643 4.2957435177955245
Sn 3.3056827057897404 10.249489304438418 3.864013468237441
Sn 4.226957965899684 9.857215926739466 0.9119969131906794
Sn 11.821707504006246 5.659329609750795 4.792301358521133
Sn 7.023269585895644 2.179791001896996 3.35979604760222
Sn 1.1991332942810031 2.5317403309177093 4.359050668312426
Sn 6.354264550445289 10.950266902344064 4.52375374685275
Sn 6.7484270109391025 8.18053981066227 1.9558100693077873
Sn 0.8940332899054009 11.980612826722833 3.258088949791415
Sn 4.470774137163517 1.9226884788813672 5.782910283156999
Sn 7.480706762453131 6.094114272816622 4.278480808761715
Sn 4.813180004972005 4.726626567735196 4.822210730310632
Sn 9.046816643347796 0.48227513996159393 4.930129307594122
Sn 5.335330369342791 10.249489304438418 3.816544205889991
Sn 2.15558928234403 5.119118572522883 6.48291565587871
Sn 1.7252134257829992 8.202279677518229 6.067777076229072
Sn 12.030804605129504 0.534813495342319 5.926989467813512
Sn 3.83161472058868 11.531161713401724 6.64678271052673
Sn 11.73940682384259 3.5777336177692916 6.953779288949771
Sn 4.6875754033929775 7.504423991333013 6.463596862779566
Sn 7.277672604590477 3.445998578720859 6.497561600761736
Sn 2.0182092616202527 1.9141261708964274 7.420525096958454
Sn 6.652241374373938 0.2586897235306056 7.095173651912095
Sn 7.646197076132387 7.1815737217570925 7.294210293066318
Sn 6.371076331823508 9.983860570044337 6.8984499156317005
Sn 5.369731830168404 5.347467244709293 8.54592398889705
Sn 3.4834432124840795 9.924287878258864 8.083169795288523
Sn 2.845703696140099 7.0516375970136504 9.088081884506279
Sn 5.72797961289394 8.286037769540021 9.5370281549223
