44
Energy = -155.39485447 eV
Sn 3.039070551328098 3.9065996513991226 9.774003130774625
Sn 4.045375967698062 11.001044336214155 1.461096918111067
Sn 6.970467704555016 9.739607583903437 2.095654877017667
Sn 6.548064544173694 1.3288592842390972 0.5586183214998115
Sn 1.0245681315682855 6.176704779006061 10.235753949773738
Sn 4.065519769106626 6.843521295786238 10.206513705073666
Sn 0.28202681590415446 3.3207403162225635 11.149366440330068
Sn 5.639788613010244 4.537174212290669 0.29522927660742737
Sn 9.484999556241824 4.40939533221722 3.2109730190090975
Sn 3.1484972080489713 2.640562642756516 1.205107925599083
Sn 8.103718170281667 6.042431879218404 1.1251253337461378
Sn 2.0868548231922444 6.90994858078173 1.78498287075386
Sn 8.784913411875026 1.0895019218024096 2.632811654698512
Sn 5.82299265100705 1.3702639511161514 3.5131110693176453
Sn 2.3501617214323853 9.513752506928602 3.520358021945272
Sn 1.4814997273421617 0.6892597495715395 4.125287816472664
Sn 6.753577418813651 4.266256164893051 4.742123231200568
Sn 10.413457999715666 5.760778054953869 1.511807457528224
Sn 5.236402970301397 7.389255947749867 1.7673005692564245
Sn 9.951075261007746 1.7952128687007118 4.618659047311885
Sn 4.147350725035105 4.860964303031833 3.0516823924941727
Sn 0.7757663401198919 3.629188780064495 2.9700261452643573
Sn 7.750596287196445 7.113574421990881 3.9163463934671974
Sn 10.856766087796546 8.061020817914192 3.882402505037832
Sn 0.9790779026823216 9.47843805723259 6.342214816080075
Sn 3.6402870597135824 2.516583864285622 5.315837484888215
Sn 4.032096128515333 8.835510596011382 6.001365598767503
Sn 9.520052552764861 4.860816171465744 4.39580125636946
Sn 7.572896560101487 10.582529530268166 4.887309306516005
Sn 2.2299710181101857 6.676066826885923 4.971878610832826
Sn 9.50117698712243 5.639451426772177 6.151328671411681
Sn 4.543692163678876 9.99494150651663 4.262319284973142
Sn 0.20674617058255415 1.1193772527457162 7.0209092367110815
Sn 4.422683277848957 4.807891984106753 7.247349016911952
Sn 2.9389827961431547 10.872786073683912 6.837470390575937
Sn 9.372463460338844 2.387619593395673 5.608943208366046
Sn 7.656665322881227 3.745143179935845 7.770072666884654
Sn 10.845778457894815 6.693617341273081 6.685531901425902
Sn 7.751689307762811 0.5857564146031119 7.609183044772113
Sn 6.594214042214938 6.869791626452915 6.650256934843288
Sn 2.3206650645892886 7.159295321029501 8.009675121369646
Sn 4.973767312546176 1.444276282064967 7.928663365797187
Sn 0.8275247698116973 3.831003134188899 6.034663379558106
Sn 5.453779532862308 3.65120677924676 9.774003130774622
