45
Energy = -158.75184006 eV
Sn 11.627757252350976 7.668168222950534 3.197885737966998
Sn 2.245843128131921 5.0520943599078 2.9249069794932145
Sn 2.9139368673661403 7.83985347137062 8.595281427249455
Sn 4.505087025040745 11.142807182990289 7.0837453839221025
Sn 0.9199077947711116 3.5940578565902954 10.498908621176605
Sn 2.752004464518208 9.54665084359334 3.3709250502700927
Sn 6.0521827969050745 6.299115426697794 0.637406998347407
Sn 5.81891633633709 8.612075733754434 8.986319851400872
Sn 6.9346491791011236 9.046576270448139 5.889906169439033
Sn 4.791140085578306 6.863864529951819 6.220047558962113
Sn 7.637277086335236 6.524813619350546 7.5237716382339235
Sn 4.769734605725023 2.3170261607341796 1.4284557379531693
Sn 7.761310340591794 4.842506872046454 5.038383960461901
Sn 2.276331455094174 7.601292814264976 1.0581897434728775
Sn 5.450189823228592 10.915816365683726 1.8937927241803238
Sn 5.739627607065423 2.2955009263768074 7.9531530000008726
Sn 8.295960022836297 0.1997349204134458 4.04658665112878
Sn 5.621463020765865 1.5323228366001727 4.816713579507842
Sn 1.0374210192422277 2.531491078440323 1.6884583804157343
Sn 2.9317201995314273 0.06837186127448514 0.4416830471468623
Sn 1.4366431186996276 11.137511707347233 6.764183051962962
Sn 8.298535424318791 2.240489899701416 6.289701560660761
Sn 5.376232232959336 4.717407439512546 3.3200225261924308
Sn 0.17712441690306685 2.600719993604128 6.362678354483687
Sn 6.058709975012954 9.943177666755489 4.682246654332779
Sn 3.8359850576279224 2.0152813175712185 10.001233111681067
Sn 0.9811407021014582 5.532030650634448 5.610978996076207
Sn 10.793226035216007 1.393124248471897 3.8213527427748715
Sn 2.5354885142604444 1.8246437228775867 8.386235781375326
Sn 1.3775677686224015 8.501360945348354 5.970765256456208
Sn 6.030601426872075 11.567678147455416 10.65051517211513
Sn 10.758717766310111 4.502738794539138 3.2480148938587
Sn 2.9777938895834035 10.440083237083071 4.282058794078318
Sn 5.079046823081422 5.415935068501072 8.96533027348261
Sn 4.121891440429998 9.943177666755489 6.61096903860044
Sn 1.907865102551352 4.852824714246828 8.588233102552591
Sn 8.206903397265751 7.317352835430533 3.3430950672372406
Sn 3.6560774741616204 3.939400625187894 6.1971900076803195
Sn 7.746547974674944 1.4377165211859693 1.207385848546731
Sn 3.375035012426138 4.843463378543073 0.05920665106334933
Sn 5.140706803941284 7.743428633406603 3.2466966790351672
Sn 2.3079737311912316 1.6836460508518591 4.387733640552889
Sn 6.610933953316334 3.2650159983004907 10.650849995928608
Sn 11.416820679438962 5.8753660543195165 0.5984713677880935
Sn 8.135725901171899 4.482346984294414 1.8860839234072946
