41
Energy = -145.00230942 eV
Sn 3.458682308208871 5.249433337294977 1.0651810897618113
Sn 2.9706642161573784 8.311753018356756 0.45778254417567854
Sn 5.1466393019194605 7.246115638810216 2.528872416294152
Sn 0.6523906969293317 6.348529988914076 0.7156414741266124
Sn 4.744731067715385 0.9350505610540595 0.6733743516217209
Sn 6.025574400675293 3.7729986027127067 0.16862447345459372
Sn 8.223463231569792 4.29627660240983 2.3127716333143575
Sn 8.108098831712326 7.514744818118045 2.350667927084582
Sn 1.4418942992193984 3.5384118182286963 2.649708384657191
Sn 7.722605026999532 1.3021374357639586 1.298165771313106
Sn 0.6282406990629573 8.818872257540855 2.5212385135518383
Sn 3.3684990904519823 5.272267647904461 4.283927290779192
Sn 3.212986568844172 0.5556176955420095 3.35393014335346
Sn 6.137337299849548 10.575609201331542 3.1110523410835165
Sn 3.4527889810264556 9.616621374004877 3.2984128550956435
Sn 9.993299805987702 6.102398133144325 6.251048542513068
Sn 6.469714677802098 10.14971667611137 3.2471130842608855
Sn 0.13980500568052023 6.031624141383162 3.763088018212012
Sn 7.006980345368911 5.7553797703239 4.920783936816046
Sn 5.3488947637992075 2.9160664580159814 3.083611398808146
Sn 7.9602140024539825 1.734902589938472 4.338363313405483
Sn 8.069371487540113 3.712728540061085 7.389421884604063
Sn 6.683681552269631 10.551662192906106 6.25182057941324
Sn 8.626282496490855 8.553363591331212 5.123086210567233
Sn 5.150473029235079 1.1756141950849597 5.741632689126432
Sn 2.189453636814129 2.6126513865294534 5.771303095123223
Sn 2.00096702238407 7.768046744544133 5.386269222372945
Sn 4.558036577806804 4.1179859460873525 7.097696169451786
Sn 7.1789568286085705 6.494972933431882 8.223307110740492
Sn 10.071387988900376 5.028840927273673 9.444658137356251
Sn 5.148268043011991 8.079984407547052 5.877505403001663
Sn 5.97657753616023 1.9657885269764066 8.89113766707893
Sn 1.5239220935114846 4.456080463952961 8.32365684689466
Sn 9.944482815330426 8.004882142561202 8.657490086129215
Sn 7.239231394157555 9.329562438216229 9.131502355679677
Sn 2.9792347572785625 1.803524254010635 8.782655084374232
Sn 3.5457285977445 6.696613012297521 8.339339443500043
Sn 3.71959132854161 4.2035813272659235 10.49100433277261
Sn 7.192591516977195 4.390417929811048 10.586138644229992
Sn 5.43256249250571 7.082001370933584 10.795093539291722
Sn 8.540773678971735 7.030626414777297 11.287001490283311
