40
Energy = -141.72043893 eV
Sn 7.86245412653915 4.348121988832057 11.043042245357706
Sn 5.122533848264835 2.9478983692294545 10.400491540718537
Sn 5.231562998840849 5.632570623424555 11.980902273124672
Sn 7.296169256855359 1.400455408460424 0.025705898308216475
Sn 7.9378126561425 6.82194133749626 1.1495032426389138
Sn 5.1916663351409245 8.432250676999233 1.5137388837208574
Sn 4.299404804603168 1.0715786347560643 0.7907437815376666
Sn 7.362349688314309 3.8532686716324553 2.035081075268999
Sn 2.7368906088322453 3.712333563015656 0.28073762503481553
Sn 4.008646842294394 3.1979566047096717 3.1132734574257124
Sn 2.6999926503091523 6.654506654601892 1.5795184686093027
Sn 1.545743551103472 9.019465903849008 3.662069391188142
Sn 7.309487470344632 8.41167775147325 3.9335882458145495
Sn 4.324055446816931 10.308626786835074 4.107510136922929
Sn 6.388114908237257 1.1838618822094615 3.1185763331276397
Sn 8.748008185899959 5.619867629263841 4.162419051035453
Sn 1.7084752462173924 5.619945750054661 4.325532211890136
Sn 1.2086846858266702 1.5689159899698677 4.712959993385562
Sn 5.384649009190833 5.967019491399985 3.5048460099072636
Sn 3.6840414108536725 11.747426138526023 4.395904254044015
Sn 2.080217667402255 11.573078629286384 7.006263934471293
Sn 1.0185910220535659 2.42912103461569 7.660387290219344
Sn 3.6529837779033034 7.679197469159426 5.529861087679214
Sn 7.261396330945579 7.292002466428583 6.805840968322577
Sn 3.739327015884996 2.312350894876812 6.233513905196629
Sn 5.229859680829398 11.851254821032642 7.110954145351705
Sn 5.2281183256138855 9.809647065412383 7.00650128071559
Sn 6.89442393465389 3.479828529751841 5.488312415312612
Sn 5.325853827610181 5.147599323597826 7.522394929297034
Sn 2.0701740881999067 10.541475986930907 6.3709855571082254
Sn 0.5214462860108737 7.868570485253278 6.34235216961186
Sn 2.3238026154937748 5.321246574698009 7.311311994940143
Sn 3.517964462094971 1.410906347807237 9.173224183341112
Sn 9.234780565852098 4.782563690847412 7.332155209590421
Sn 9.281346945795406 7.343567067809697 9.003239838000843
Sn 2.8366690263115237 8.294035440260402 8.457346334165331
Sn 7.071459316537046 2.6789862441186703 8.476447744343496
Sn 5.289926773385086 4.25638407597963 10.400491540718539
Sn 8.404413262445974 4.716156806585375 10.391546822345013
Sn 6.35481662361602 7.065987136506271 9.914374477905753
