41
Energy = -144.65668248 eV
Sn 9.994264875615167 3.6648175708698156 3.7541620902138777
Sn 8.899712047163097 3.4646361952496187 0.8668552724764279
Sn 8.412658679496102 1.9483064049833547 6.219686574480403
Sn 8.67867045899135 5.193567242485339 6.111105011321048
Sn 10.158372759452648 6.208043905758155 2.199501945613653
Sn 6.373866627295913 2.3323208829499547 2.344289005138441
Sn 8.674767444626326 6.24659500167885 11.670972435204156
Sn 9.097810867061662 0.5873158616925584 8.838611941918083
Sn 5.517965069860033 1.5779547526093343 5.499054905960391
Sn 9.805030952346696 3.5428095741445533 8.57599856514419
Sn 7.175942781332494 5.045427482840903 3.291661471295687
Sn 9.16320801105424 7.325751358287521 8.225950450127767
Sn 9.691605515531572 8.612201802470487 4.093094009959124
Sn 5.982689999094185 4.507818443052035 0.13606481777147075
Sn 9.145302776181584 8.909041591139102 1.0556424371379658
Sn 6.13893710731001 0.9649095405272777 8.428662396931143
Sn 7.695179072514128 2.5662338917425775 10.70132311062149
Sn 5.823850397824628 4.283802936365456 6.80910620313938
Sn 3.688846950760662 3.8191665940548494 2.1939575923100647
Sn 7.014062789155656 7.789494309906046 5.182576805556926
Sn 6.546925762358819 7.39634941679035 1.4927908364750646
Sn 7.348660000890344 5.3274788918908 9.42671289452372
Sn 3.020058994696838 2.677000608855739 7.129313640564541
Sn 4.273382418193155 5.9789787521211855 4.416234565377194
Sn 4.756909266690475 3.444809419782627 9.633280293202079
Sn 3.6184955003297032 6.664043884709391 1.3085215578939502
Sn 6.88669621292253 9.24548218053134 7.807279601418233
Sn 7.075822567106413 10.014590532000225 3.0763198439481285
Sn 5.370651267170607 5.655801720555941 11.670972435204156
Sn 4.374375055981752 7.31848462474534 7.57253347619066
Sn 1.8252393740751318 4.2608183545790554 4.775695513085972
Sn 4.097113752459652 8.937635537337812 3.689056589474006
Sn 2.019763497865299 5.367181786965919 7.984583854697531
Sn 5.375024497855792 8.49911194212982 10.350028395599624
Sn 1.3844354493684423 7.061579174029344 3.717046007461478
Sn 2.7572142704102443 6.882937269393324 10.504758422008154
Sn 4.198281936891112 10.291531659782898 6.658755240250054
Sn 1.6304625521713132 8.703029783237993 6.3395931028671155
Sn 11.933271732491846 6.275691729209987 6.308161284571895
Sn 2.69827769773643 9.744570844354284 9.318711396701497
Sn 0.22612263265196136 7.88125198038059 9.020290388364536
