42
Energy = -148.63418317 eV
Sn 5.011371004962923 7.680635226109796 11.986090610389443
Sn 3.788341358711321 5.095712509412881 0.8213278301066855
Sn 2.7121560576167356 7.847617721710067 1.7922198734038384
Sn 6.859689916933092 5.290167950109481 0.5651305512475147
Sn 5.237992456664572 9.742914870596259 2.058354773356949
Sn 2.4013132478888326 1.6340344784569687 3.7827700318277526
Sn 2.567926325192077 5.03250961268223 3.8312587539397476
Sn 1.7076437658859291 8.082264628084978 5.168531002881415
Sn 7.7842841328219174 8.122222462535383 1.3206887785565007
Sn 7.333785500286216 3.444835724388204 3.0732686210786433
Sn 7.405894520956385 10.694212068473242 5.051497841617197
Sn 5.495967187019402 6.684284188526847 2.9585473237599142
Sn 0.5736549156385814 5.284197317742784 6.260810106930074
Sn 1.289946514829491 2.2657075895969387 6.508599576129245
Sn 9.06005278981158 7.394307250716267 4.102820469909954
Sn 2.6906286087850617 11.728077891726723 6.1953609396719544
Sn 4.063084436070909 6.2977234957333295 6.292128082735921
Sn 6.880068917728939 7.760505210379225 6.129219863920045
Sn 4.857874518793321 3.1284971948071294 4.8095213425332535
Sn 4.530742769931549 9.423064399934658 5.035432807179376
Sn 4.975813901237502 0.0059826021764504125 4.254440653210882
Sn 2.5279300573126604 10.390606323587644 7.264127598140677
Sn 1.8629262924503183 7.531873608943379 8.298460774013732
Sn 10.120646590522737 9.498261112973239 6.035637569623201
Sn 4.673980456646046 9.283637674997337 9.107477220983306
Sn 1.9123600882544591 4.256852719403607 8.806899539728754
Sn 10.089506317121877 4.50604793513351 4.097569389897767
Sn 7.7543945901912625 10.19830161676317 8.181912036358543
Sn 3.022325610757645 1.1901361530542673 8.83032897460541
Sn 11.02689444425607 6.5460406859948455 6.505630297920462
Sn 7.611353710082685 4.728396669680889 5.9047897288718945
Sn 5.333837031922542 11.728077891726723 7.119697102470209
Sn 7.731080898650229 1.1304940456123544 4.872103944268567
Sn 10.212033979522644 8.466445424897563 8.970623190668265
Sn 7.330996711971636 7.068885543958137 8.985690419914002
Sn 4.3434394449493965 6.108515743381053 9.542814054499237
Sn 4.836779091461821 3.3815353339603202 7.781463527388423
Sn 10.397932720375263 3.3545117197095866 6.955122227622581
Sn 5.567954572735124 0.29254494241583373 7.302077532940588
Sn 10.161337884252394 5.3874784958240705 9.246147331521795
Sn 7.7077031733314625 3.6345768859256933 8.784933408291964
Sn 8.617979886390057 0.9731760331762426 7.718160688461306
