43
Energy = -152.42464759 eV
Sn 11.34182572123761 8.563811017967 5.693750888051715
Sn 11.373087506844527 5.840134532559342 7.988090703963431
Sn 10.991528363088213 11.163894908539906 7.2104772659919005
Sn 10.56734490137825 8.657376026028432 8.857964541982296
Sn 10.454162670998725 2.519121917787683 7.114371226387008
Sn 10.598572527789312 5.521554247703912 5.017804181090117
Sn 10.0998024579331 7.841019565262563 2.888922026495783
Sn 9.489855691890616 10.746625672939874 4.111622872356629
Sn 9.440637452962486 2.50575572596903 4.191711767690107
Sn 8.586461327088806 6.9328645812791985 6.739941418513632
Sn 8.313200131746452 10.026027208953366 6.8756745572095825
Sn 8.692803623801098 4.730266131309522 9.049965416278363
Sn 7.765617760196071 8.860522137193168 10.036645882263612
Sn 8.108870441871298 1.549364728764583 8.969345070546341
Sn 7.854391054263362 5.50193196603123 3.033529130547629
Sn 7.585404692445766 3.5829468420223005 6.4063294901828
Sn 7.8089064327795565 10.272942547203087 1.376957823577161
Sn 5.529958212475024 6.043380131107901 4.848677474285437
Sn 6.887043797624387 7.488792288735013 0.7244135582003952
Sn 7.271059338435163 8.61511338759816 3.952528817104119
Sn 6.403890380417893 1.8528437252175485 4.252372241739162
Sn 8.420403009718134 0.26909067749443044 6.150493087076174
Sn 3.8268657569424436 7.480514325932755 0.36601985187419545
Sn 4.958342895676808 9.70175299317675 2.1652317699810557
Sn 6.772607364497891 6.413379283298249 11.423777991354337
Sn 5.680932144005527 10.400850091723749 8.450295424031825
Sn 5.734719051415839 7.186510085675432 8.449494534531157
Sn 5.708322305264425 3.7763679040637297 9.416004983586996
Sn 4.489801669977359 8.922499359074898 5.176477659672589
Sn 5.6106441231121025 1.246326615539163 7.173629349698417
Sn 3.1373900570069484 3.825666602758419 3.9982920972110825
Sn 4.163450460512928 4.296407577998712 6.922523207676246
Sn 5.071410213276581 5.073046190074453 1.7105187015022436
Sn 5.131065765252177 9.278386763870271 11.536069217165378
Sn 3.0149722072713434 7.03982941864126 3.2563536757477767
Sn 3.817265020052107 6.574166818552292 10.899988353933464
Sn 3.0366081400838643 9.092539513871133 9.194483526524822
Sn 2.1739584166329746 4.123160041519436 9.295214804250346
Sn 2.395893191527519 6.7614663490380265 7.184604231095679
Sn 1.347448846069292 2.933875500305534 6.371483716430326
Sn 0.6415599531396465 5.572435700224519 4.762285124333163
Sn 0.8713387575264446 6.870285876123492 9.916507526313225
Sn 11.373087506844527 5.187755618569012 7.640262535809725
