48
Energy = -170.40336329 eV
Sn 0.054692071389617805 3.514939519984459 11.639685660840117
Sn 2.2419058328544796 5.946008825920177 11.86462474266881
Sn 11.145000268565557 6.62746730946702 11.613742372692743
Sn 0.26058348204163884 0.3422381628766639 11.931590198105912
Sn 7.141950419741893 3.749507630386388 1.0842428236906436
Sn 3.293444457732435 0.27201391948051235 11.59216844307739
Sn 4.12813113874143 8.137786434513796 1.1338541089199266
Sn 4.395528284727516 3.1339225247789484 11.558032448304877
Sn 8.835851817162107 1.462628481027921 2.1462005946254505
Sn 9.70136848041389 4.606592477993737 1.538284410730088
Sn 6.28345896441494 0.6808363405584142 0.43390262259731827
Sn 0.8077168172742641 8.605941832431544 1.3402101038429841
Sn 8.71187002283215 6.436829116382504 1.517631485657448
Sn 0.6076841035506908 5.593971757566854 2.3932949034176034
Sn 2.18092762903315 2.5432024093484142 1.6283867709454747
Sn 4.532190023737831 5.219649115290846 1.9894557434078877
Sn 7.2646567699097755 9.03471242627422 1.8166798218639268
Sn 4.564327287277118 10.547780350898131 1.7952651296035693
Sn 1.7366824080978716 11.54784691564529 2.3593888462198844
Sn 9.949437309002674 7.678153623010195 2.17401120531483
Sn 11.308202402175933 2.002601751824833 2.37479785953286
Sn 3.8040625435636324 1.3943758103462232 4.088821192693314
Sn 6.659999626521875 11.901257421561784 3.5647374957710083
Sn 6.6307787936828735 2.9651979372786545 3.970473643979201
Sn 9.70136848041389 8.546700648176715 3.8956733739730938
Sn 3.157560754462926 4.487123883199388 4.5542112144391265
Sn 6.495939013564249 6.758808926153057 3.7785609960612927
Sn 10.50057271056248 5.346244859567 4.493176851341621
Sn 9.274005685313316 5.5370465496242485 4.313648937576895
Sn 0.5993661900988261 3.088714086373842 5.066773872567927
Sn 3.7029464842687987 10.936734520183244 5.892011849084456
Sn 9.63388713342678 2.663498846999846 4.909011018199919
Sn 7.042335683674809 9.728937203883316 4.8372940624713765
Sn 6.470627099820199 0.41374464824700574 6.641069641166576
Sn 0.08806788291878533 8.004833306067795 4.38474863156593
Sn 0.8267539222659966 0.07956357975712494 5.171002264901447
Sn 3.042474872066587 7.622625897642096 3.848504247844096
Sn 5.010931594759786 5.198046667826145 6.769930627864072
Sn 3.7168384667416783 2.0146370793370303 7.209689350176598
Sn 7.470251383357475 3.4724341373591483 6.866776005513249
Sn 8.100933444742921 7.320562991840509 6.4885053631496366
Sn 1.029099332472415 2.9053519505899654 8.253756780665393
Sn 1.58624850105094 11.850461240130592 8.236178786164396
Sn 4.8468022682090774 8.153331566994515 6.227992558864345
Sn 4.572380739126857 11.362933709908479 8.996125036685253
Sn 3.6199640155035024 4.4207635664933775 9.320906560815654
Sn 5.87161244523849 2.163382460083046 9.455759865014798
Sn 2.947922344700242 1.5702675420516472 10.431421438726359
