40
Energy = -141.42507889 eV
Sn 12.70284292600665 6.069239057556852 4.9631340429926825
Sn 11.160703816940432 5.471194306626441 7.597819905620701
Sn 10.86290164273172 3.666129193180546 4.91965405284491
Sn 10.385721465393592 7.836454514634209 5.538473955954872
Sn 9.866408568103214 8.071753700218132 8.377773535557582
Sn 10.295533563527728 6.054134877838416 2.9396007124076378
Sn 8.649509786144261 3.930546929834393 7.346223590500124
Sn 8.11684126864175 1.8334662148756713 5.319767070376357
Sn 7.756149636686432 5.47998333865439 5.027147807011434
Sn 6.940396405957703 7.553041429395745 8.663488613876257
Sn 8.43396899259801 3.5400179576083195 2.821018857402352
Sn 5.300270318009058 1.7796915256787191 7.558127494817456
Sn 8.022953994196811 8.13282156541138 3.737024879826758
Sn 6.004948916697797 10.60168148258187 9.116437817239376
Sn 7.104068243502466 5.69705670780606 0.8531336979986566
Sn 6.441114610972592 9.33438104999032 6.283332196744112
Sn 6.118340958226798 12.081635860048882 5.5858552128717855
Sn 5.918014690203139 4.614816946669447 8.661614517680682
Sn 4.83572886777566 4.275167623691691 5.68441532840222
Sn 4.921145933680012 1.8083884111327087 3.930535499348247
Sn 3.5420054543009765 4.091680159969497 10.432769841098722
Sn 2.8739524481671017 0.3807793423333741 6.205111862856713
Sn 4.6864653120147395 5.566900703960326 2.891431883487
Sn 4.428285297968622 7.065315922737348 6.751700248302753
Sn 5.42451782988187 8.294642592083635 11.120047715648408
Sn 5.436979079534131 8.20033179297493 1.6233082675202
Sn 5.183699055996775 3.1846818690425356 1.0551477164807888
Sn 3.8548540007252035 8.829229718902383 4.3357473034798195
Sn 4.252854000906314 5.974388839349855 12.03536883850035
Sn 3.68516892077738 10.782693963657293 7.076338053238919
Sn 0.29275813753760405 2.13103340303118 6.263092148941958
Sn 2.547838894373902 3.111274702259874 7.827797038316928
Sn 1.914528978642701 4.542636344783994 5.117724784723374
Sn 3.092197799671209 9.974901276863786 9.999053023743585
Sn 1.8666406306307721 1.9056149653933674 3.635577909791675
Sn 3.2078254403819337 6.892904299313885 9.62137560322771
Sn 1.135888778949559 7.414478932039177 4.646272860036775
Sn 2.318602036761433 4.229552791795139 1.4194159562893305
Sn 1.8074054140801106 8.42773830736039 7.517227088425068
Sn 2.4039789879307327 7.3041301189098435 1.6599057672214614
