48
Energy = -169.69720949 eV
Sn 3.0751360888724153 4.868557896701687 0.42597179103114297
Sn 5.184808297273591 7.165614510612654 0.5493802693880961
Sn 5.992874793728427 3.83973833346159 0.48442244399458495
Sn 0.6137649524062491 3.662932001061486 1.9240469886677352
Sn 1.503759604127835 7.433200574632888 0.9492875053011793
Sn 7.210065997057875 9.132904671846282 2.026134992157996
Sn 3.506391116341124 1.8823061823203173 1.402054797948431
Sn 8.18125373421109 6.205047704198726 1.1707783511616408
Sn 8.45598203879083 3.0115532728032672 2.289294116434652
Sn 3.6907661545927106 9.63010579170278 1.5705565304080173
Sn 6.346079499313351 0.7961090784189866 1.3501359816622107
Sn 2.5460408499558227 5.494073365042681 3.574781420827565
Sn 10.914947354542933 5.329890803394524 2.767335337109166
Sn 9.706297603406682 8.05497083734957 3.247845113562571
Sn 11.427247226398531 6.433589410336487 2.945115033414598
Sn 4.976085640452283 7.587673773205805 3.6825519784283856
Sn 1.6122470840516219 8.602970607470446 3.7744888763262705
Sn 1.531167189117345 1.2310309062913198 4.03608953098737
Sn 5.377675411958495 3.2416687275315694 3.539159311185746
Sn 6.951635087935827 9.809213041769633 4.997216563914199
Sn 4.482600014512268 0.06762142971313503 3.8625352475080903
Sn 7.28304487575016 0.9971897935349846 4.4198657976352065
Sn 8.383427871420098 5.421412047887979 4.7411428833394655
Sn 3.9948366831280704 10.478768787126373 4.521566157380489
Sn 0.6320806297754014 6.808449944597046 6.1039106244282655
Sn 2.727335179435164 11.520072399149974 6.682828050618689
Sn 6.453435508321143 3.541663191169393 6.865683036069355
Sn 11.427247226398531 5.726907601650899 5.757160299909344
Sn 3.6673634924378598 5.846854807810892 6.799588057633261
Sn 5.351767852541975 0.7016188139164041 7.814878874814518
Sn 6.437391466164845 7.199445983984697 6.6570217815231985
Sn 10.356147421591423 2.8433584556158986 4.783952801917955
Sn 3.260471985575322 2.6677267667448885 6.233733684711685
Sn 2.988783668687885 8.910677019313527 7.096055584607545
Sn 11.884115585748082 3.953896438492046 4.951795079794293
Sn 8.559837623404682 1.3447035398059348 7.131911892776591
Sn 9.489926890861222 8.02556178756026 6.352960106438877
Sn 0.18759665702581108 1.1570329775666226 6.862557156741359
Sn 6.007934009203341 2.8187259307265093 9.999608270922323
Sn 5.846909798927722 9.98990056355536 7.945447925489975
Sn 1.5910976645891093 6.783858115368578 9.121451135668257
Sn 9.799022526943359 4.045895491202007 7.618462844480166
Sn 2.562566505073241 1.5242288069832297 9.111760210929317
Sn 7.550440427181068 5.318948500307192 9.153096853001838
Sn 5.040923094004789 7.530531953118427 9.519762256870168
Sn 0.9099134761839306 3.920500282340633 8.03122013838747
Sn 3.7736264106788724 4.762859842872152 9.648965805955397
Sn 8.17201807075447 8.313633323274425 9.148734336765934
