47
Energy = -166.46477046 eV
Sn 1.443705660876737 4.404006546828183 2.709888922699977
Sn 8.462120699175962 5.069027891221949 3.2361009797282714
Sn 6.199326913707233 1.4738716388880155 4.301693682870331
Sn 5.855507820952979 4.779210920631789 10.701852525336733
Sn 12.012993085012747 5.8525559355812975 0.464323120483324
Sn 4.5395224299481125 1.4453333622158455 10.942589074664896
Sn 3.798855426370742 5.638448058827511 1.0376789330739769
Sn 6.183842228342206 3.833269543012049 1.5812871814305494
Sn 8.129254378503143 2.187818101316846 8.124457669984912
Sn 4.893319745959872 11.285550589033589 5.892223910744493
Sn 5.902561978288981 12.123916400244195 1.1426263652470872
Sn 3.9797744900741745 9.408440586140493 8.36756008531743
Sn 2.801148270099302 5.320656350582286 10.505605431766117
Sn 4.401841222310862 4.705950316802019 10.441306829573822
Sn 11.80603085135279 2.6751015355152727 4.253497968723543
Sn 2.152958876351377 3.099796502516188 6.58570568305724
Sn 0.8158243559906827 0.5105225636870653 1.7784554736310085
Sn 3.55998198346192 2.1313216234893377 1.6481861986219999
Sn 6.397601974932612 7.858635991270774 6.86625830112214
Sn 0.39658478253081186 5.5222132147977945 5.428474840194171
Sn 4.926054953443333 7.779330735329221 10.963487554475035
Sn 0.6322353497907806 7.403559301884136 3.0165657235718477
Sn 2.8776669577367384 11.474781878223116 12.150995466389043
Sn 3.5441363528439416 11.691523252552699 3.040274146788148
Sn 2.0729955835147855 8.038328411053714 0.06591379008943808
Sn 1.578351143398349 4.927375858374631 9.177135344191763
Sn 1.6203926401625453 0.30321495253503555 5.3876502293644455
Sn 9.167339488890565 2.5329039538276823 5.184072789858889
Sn 5.0539769818923626 2.850661319431646 8.110575164949065
Sn 8.45222734252054 1.8181982332690665 2.253197345631886
Sn 1.6710900154774362 2.2989732546680854 11.582512349981881
Sn 11.173956999159435 3.0689361433056552 1.2013165110787642
Sn 3.5038602740201865 8.207531091110674 5.468267950040524
Sn 5.7518894953476565 6.347873470350932 4.097200257441453
Sn 3.1700162971478334 0.39328538088343584 8.011010833075627
Sn 7.439430141874246 2.158371234563238 11.609670256078159
Sn 6.218814179465969 12.218988319130421 8.685265783024413
Sn 4.422074351875701 3.7760661472000923 4.8449497407891595
Sn 5.908988244783063 7.454155871045965 9.912980069944991
Sn 1.3115456431356007 7.868339671225324 7.865111372657126
Sn 10.440803091031722 5.427861587310028 3.2219855818551464
Sn 3.9621262670246837 6.111057232774016 7.684722685643873
Sn 4.655556624188978 8.400035362516853 1.8219026256891804
Sn 7.043332076010676 6.772239218876115 0.6401445725960544
Sn 7.952945334060424 11.98383550981093 6.116529624227508
Sn 2.8770424514821595 7.521918713946915 10.505605431766117
Sn 7.10172356302364 4.588426254433229 6.354649160107316
