40
Energy = -140.90166181 eV
Sn 4.4827640851965285 1.568591253691262 9.688489259238848
Sn 0.4888583555296056 10.770713721092376 9.975979902314577
Sn 1.5453571551341794 2.511386215179735 9.687719440696705
Sn 4.540859576813579 4.551876872469871 10.458092715348426
Sn 7.944059848576393 3.84776700265172 10.848241903730738
Sn 5.479673373844958 10.5413904895726 0.7189830066351707
Sn 4.364797877159566 8.78366291989217 2.3608736751771553
Sn 1.6198338361823121 7.818317829391215 1.5253328004008386
Sn 2.5842829573980217 0.6160700695423158 1.0225780886958136
Sn 0.31095817091106376 9.817866810724311 1.6988370104509942
Sn 6.439119647263403 6.236427828036754 1.126031431816532
Sn 8.205857449195983 1.1828095928217792 1.1735248754235665
Sn 10.414644047954257 5.719883599247999 1.3995172783297831
Sn 10.567352294015443 1.772610800782916 0.9152093192004308
Sn 1.9239158228311974 4.281108126128506 1.1112257532476961
Sn 2.966546834989694 2.6286859274319947 3.395423908191503
Sn 8.170852000021744 0.7695096956114814 4.1924804197242596
Sn 2.890722507656387 6.5384531784987505 4.015965419587522
Sn 5.51500213825838 2.57308615264051 1.385762581781715
Sn 1.7888615131720933 9.817866810724311 3.988830479810964
Sn 5.275501040172259 0.3602851297301054 3.6430045944045992
Sn 0.5804141884723167 0.7761110159953604 3.8405469079752814
Sn 7.025113785236818 7.55951565843562 3.8074820839826713
Sn 10.978533965938498 7.292517097328001 4.099356031097349
Sn 10.869675537783309 3.6545117053366023 3.597023710731838
Sn 6.977740269767416 3.128021979105129 5.650038487479728
Sn 1.286991279074458 4.730362214850493 5.999246415918817
Sn 4.429616442713133 8.725904152072927 5.50716647820186
Sn 8.264341578079543 3.825863225154683 2.837506418279287
Sn 5.393981124314122 4.835956560667844 3.698828142742357
Sn 1.194547561705629 10.994591492549674 6.807466992391779
Sn 3.288326939388234 2.3033476979452168 6.512739690664163
Sn 0.9468637766231999 2.5081918385037065 8.491225765048176
Sn 1.5926237190620935 8.078733839844729 6.597580348113714
Sn 4.156074476544005 10.473141875819422 6.397712444693154
Sn 6.602112986181414 6.050457106343699 6.3370785353820205
Sn 3.7582402242457267 5.7881166047434 7.333291257193978
Sn 5.7721637670459005 1.4491490568633876 8.06507515524247
Sn 3.747248240396741 3.375274130687361 9.394743941976042
Sn 3.1270048653806732 0.34111102780061103 9.293035634588525
