49
Energy = -173.20061688 eV
Sn 5.542668456960744 10.429317201880297 11.417193787176227
Sn 6.2105755918354655 7.323966166732135 11.602150368470848
Sn 8.525880398958842 5.1385584001090265 11.219169791203214
Sn 3.4448153257851666 8.237040414365655 10.733171066586456
Sn 11.614937942808547 5.61801825793094 10.411200361573114
Sn 8.325430512472954 9.367609316621845 10.683519398555793
Sn 9.451332624725776 7.1409822121967546 8.949382483612567
Sn 6.945939844448291 11.152077699035406 8.614335876699501
Sn 7.28628981941081 2.4507815703630578 10.338947151280282
Sn 4.809990231733404 4.083621831788617 8.630210874819632
Sn 2.1447026563717513 5.758083872026114 9.017889812793682
Sn 1.3764615563121152 8.564496819514174 8.164056254306864
Sn 3.881796655440928 10.60987328408632 8.75674390447412
Sn 10.365163113900586 2.9836109287942634 9.721640075036193
Sn 3.8144286093884157 6.873185234283694 6.668923312762304
Sn 7.665347904945036 4.7722156541843255 8.157734158419322
Sn 3.5432711412006235 1.6269319740520656 7.338543635609011
Sn 6.888047859206933 1.4509536737505617 7.311892783515948
Sn 11.418936503672455 5.017275223421557 7.413172094102204
Sn 0.9417934219222477 3.1003859134659177 7.924967950114442
Sn 9.165000563575761 8.346266036494374 6.186640647569247
Sn 4.2059850744930705 9.819131063492646 5.759371781782834
Sn 5.995811784090278 8.25032524298431 8.720138428603724
Sn 9.201278706438108 0.38157276871551976 9.101238112112402
Sn 9.577801960763537 2.676938783286654 6.6804269690617275
Sn 10.925271920822258 6.428784115518102 4.789429697206887
Sn 7.892357380359955 5.658154377816747 5.303223069864518
Sn 7.210457826158368 10.524131015212882 5.438455707538634
Sn 1.7344705927682964 2.8239620446147615 4.963932128466286
Sn 2.6489237598859376 10.514370533539296 3.2689293171108105
Sn 1.4027913150521563 8.350506816668327 5.062122612304425
Sn 8.462696270424708 9.446537500662254 2.855844297201125
Sn 6.1183746914541945 7.727594611146597 3.9792569406157843
Sn 0.640485741851388 5.604308060913728 6.221545031420069
Sn 4.794934522285021 3.993145624727417 5.481440208715286
Sn 4.103863540911696 0.9372292745508128 4.300566761350768
Sn 9.643885640018455 3.7304525481375763 3.6772841990785077
Sn 6.914735030573509 2.2516091067169777 4.173250558393313
Sn 5.609788400176173 10.776417603707428 2.5138239445777764
Sn 5.614302349443726 5.044685624739878 2.0638373478140997
Sn 2.919858515310928 4.141039901770395 1.003726456931221
Sn 3.773176801561107 7.967501012897969 2.088729242632917
Sn 2.6714397055559544 5.491988135464983 3.8159247876704896
Sn 6.470053923089703 8.598773619822031 0.4998157313777189
Sn 5.034947349481019 2.026274172601979 1.5293658318412728
Sn 8.581634674985255 6.416786600366041 2.0986781587311656
Sn 4.2558531819713945 6.368000147651688 11.661743368011672
Sn 7.810079055454601 3.0885750927520665 1.0754605720450299
Sn 7.233689786810336 5.657521442959866 11.602150368470848
