47
Energy = -166.23828862 eV
Sn 9.715099818763683 2.4326484316454464 4.104532865803412
Sn 9.455435941423223 5.686933758574968 0.21353904732049375
Sn 5.409948626666839 9.780366723882986 2.7311700194631756
Sn 7.191455642097146 7.614333317455662 0.9711760532424625
Sn 8.438246517121875 10.279596864520919 1.8932400636151199
Sn 9.155363295444184 2.6578109834003505 1.0175996659462188
Sn 6.966105548819502 1.7268034824262297 5.0020277154628845
Sn 6.298974785459105 1.820779661547158 1.9617233601387456
Sn 11.002581831757249 4.779862002834282 2.738887820509579
Sn 3.9706398698537604 3.67694600754932 1.090976822039207
Sn 4.550388553802922 6.527745263137738 2.1664253853276754
Sn 10.236151122041004 7.838454193991528 2.373984471003901
Sn 7.583248187308119 11.004160869356914 4.761550366544638
Sn 7.939190125414836 4.724632832670932 5.6629234952996175
Sn 3.4115061507344353 1.115218119503814 2.836181715058708
Sn 7.434923888115169 7.333976805928621 7.703885144041606
Sn 3.832102374148951 1.549099888164983 5.96660235408509
Sn 9.45504129206365 9.342725293907142 6.590985629023336
Sn 1.0158951544651578 5.434059044469001 3.2804717188746686
Sn 4.596542983294401 10.231519285421658 5.639309620850183
Sn 2.487606621903824 8.212406977123239 3.5541585396563176
Sn 7.6683908699978325 7.901201919068409 4.2930509629367775
Sn 7.545659517473927 4.79153312304175 2.6074031870052248
Sn 12.671151047929378 6.9526658164759 5.404370109719782
Sn 6.773895493392706 10.600698865293337 7.798982433856069
Sn 11.710717195582019 4.0690463791095475 4.628138100127067
Sn 10.761067725367512 3.858051673951681 6.625019063761537
Sn 10.512854082920857 6.709746078984681 5.218811826420146
Sn 1.0883641187516684 2.8577285442219784 1.7271939574662951
Sn 4.834662773996734 6.933667744402102 5.410395609607473
Sn 6.6242204745635815 5.705930430390431 11.000859271229602
Sn 2.3542856873490794 5.183295414509638 5.991860914260659
Sn 11.002581831757249 5.358827610797016 7.33395977920127
Sn 1.9002155505266292 8.285787779871077 6.665895233651967
Sn 4.680586312593269 8.371548736785385 8.288267031825264
Sn 1.1241674258713832 2.5156478455226785 4.800172895396057
Sn 5.90861793542689 4.17427629665939 8.2570181977212
Sn 8.975026068931129 5.037958289990967 9.04394396694723
Sn 4.778943805810074 3.7413300052349636 4.072878416237014
Sn 8.414564275566669 2.0513908531116596 7.807440850602199
Sn 12.945580679120825 3.119693825533166 7.513157213251156
Sn 3.7012144419381 5.839665915257946 9.801071128504345
Sn 0.5125073714196292 6.077576035712777 8.40093886387714
Sn 2.6618743206600115 3.294509201799402 8.417044896395351
Sn 4.7593543682494595 3.1471353370571107 11.15583527538344
Sn 5.65240532257401 1.2079853534133986 8.96896795528316
Sn 7.785990689158184 2.7625573772045064 10.813572615172122
