47
Energy = -166.2356246 eV
Sn 8.643494864112009 0.46400072072101967 1.1889031611789305
Sn 0.9178670903517777 7.057873767111232 1.2035897186633107
Sn 7.1633154322859465 5.574628031005322 0.747299661412762
Sn 7.08454648549376 4.763443345231685 5.984879018817343
Sn 2.3153501791403333 1.9132803236078164 3.132645317229473
Sn 10.900903069403524 4.2660221956176 8.624759976055277
Sn 2.6798666491239427 3.3467663012928517 10.30709352932208
Sn 8.305910619291476 1.9641929743163216 4.270997363466522
Sn 11.057556866865143 5.85438160738672 5.881515674778762
Sn 6.17785631161368 0.43653381623792026 11.484068780369498
Sn 12.132994150827155 0.7254400072493551 4.954093518946858
Sn 5.4461552301265455 8.340944798701406 6.787063685936717
Sn 2.7832970677032796 9.17375284760808 5.638840495564814
Sn 5.322723317465675 10.4633472410322 4.462005278912825
Sn 4.787085576674468 7.463501077492568 0.13555491139050369
Sn 1.1773015682199934 6.247756711746957 7.872790500571197
Sn 2.3938810419540006 6.387803922811546 10.765277077302295
Sn 9.155594510382334 6.565981908445767 7.272290896335
Sn 10.841604148090337 5.506058587243554 2.8233329134171377
Sn 11.598257278395442 2.609985366107498 2.443867440328609
Sn 10.023512443465346 3.68433400083217 6.358055306820306
Sn 5.769692942521085 11.842471031791893 2.3955233573886296
Sn 0.5060932946467104 4.256684252859343 0.04384500003368457
Sn 3.623916288645413 6.1332796403433605 5.800756836646589
Sn 6.282055307490825 12.133229777186049 5.694917301483469
Sn 3.6324474696003115 4.680256261456109 0.9278883990084562
Sn 3.6257966386738993 8.118102833224425 2.982509008268123
Sn 8.434353156663668 11.111476074051344 3.7626895762385884
Sn 6.64905805823792 2.632094182596387 1.6359019822034246
Sn 8.034117950484758 9.043032062083466 5.468473961803717
Sn 4.642318205666742 3.609365053893311 7.445411731431372
Sn 0.8984965902560695 3.6498616707414753 6.096660465391066
Sn 5.103259805640975 2.2760591154016265 4.2964095832008615
Sn 2.4563994572825623 1.1831735092536864 6.840796248565945
Sn 11.751782589643746 1.325308152755493 8.105117152656245
Sn 6.3467520187062245 3.195805830202277 9.953531980611006
Sn 3.5461954172815284 1.409345725602931 0.30485047960032885
Sn 1.5881954789185206 4.901029459162467 3.3086327700197486
Sn 10.023512443465343 2.894174242212518 5.868308535582988
Sn 8.704935445658391 6.362814595744854 3.9021028138569327
Sn 5.771256995017395 3.3923595847377195 10.960072880341228
Sn 7.64001633918428 2.102005687356988 7.478746807939589
Sn 6.724907248973846 8.475790465141356 2.676697606731292
Sn 5.569129830641325 5.647715631850185 3.4190596146171655
Sn 1.6616133971878526 3.3890107514666847 9.116894777359633
Sn 6.496203820011811 6.0306664795087945 8.79491390695574
Sn 9.152249404402653 4.1664134906876145 9.344986704050127
