48
Energy = -170.15523579 eV
Sn 7.811613382237137 9.684000580809723 11.674947962346085
Sn 3.532143073311348 5.0429201624279765 11.745873868974458
Sn 6.452746584833294 6.8898145874145005 10.947241999832496
Sn 9.095994236848723 6.8531109175661955 0.7237165116321918
Sn 8.643732730016158 9.191000930504432 2.712530092190994
Sn 4.754315833126879 9.351364218227037 0.021827858082766962
Sn 2.3068519837382153 6.205166726033271 2.417789549036603
Sn 6.562038177011592 4.092004908893185 0.4063671881517678
Sn 1.802672893550478 3.1130889383060176 1.9723978436077723
Sn 4.194311791239412 2.08448233393448 0.5214545714223383
Sn 8.546728426166743 4.555588116565935 2.928298503136004
Sn 11.02841437083589 6.003320752043924 4.24537739323118
Sn 4.770517843496009 7.071669129258754 4.98785726963087
Sn 4.828485828998315 4.521273370547065 2.815422216277458
Sn 6.199910779463176 10.822416630862886 2.3253355753450715
Sn 6.248813542254282 7.545643904258488 2.1325750450350336
Sn 0.3655296119328309 6.130215867294231 4.902091815609107
Sn 8.156010388442532 1.6327056796331894 3.6862324417710424
Sn 2.1014020574484467 1.031664263442078 4.834701936380719
Sn 4.820357581927504 1.586060762367515 3.4816013136235786
Sn 10.957902889091216 2.950685268632774 4.179502443210194
Sn 2.7289347251378175 4.190112456791693 5.289972318911349
Sn 3.4189459984996957 9.046759322009201 2.8473416542391328
Sn 8.127577873561908 5.956797851425364 5.521149387305179
Sn 11.773543873982756 3.066416678796134 4.431179749784898
Sn 4.834014202209803 10.277820432918567 5.340473952127145
Sn 6.5192126765489515 2.999932275200065 5.936806213377943
Sn 9.928165552933782 8.642900894118313 5.349934652548529
Sn 10.67362108646369 4.500592790829393 6.902837476787912
Sn 9.312473599988103 1.7280955158944666 6.54528687910134
Sn 5.317549495556944 0.17043411998103958 6.862979480217461
Sn 0.6713089156721607 2.536827617020949 7.493270938707201
Sn 2.2964847432033615 8.57145272619626 6.23614775780956
Sn 2.382548114481474 11.696035763828421 7.771271056107677
Sn 7.1303574401592265 8.687813957047318 6.457178590744492
Sn 4.048808874701698 6.0830077121472055 8.127950717401237
Sn 1.0094350822099611 5.601607358588604 7.859627405386604
Sn 3.835153539627194 2.727669372047508 7.74225342022533
Sn 7.876495186678885 4.434205177048117 8.243375461411393
Sn 4.489897203190888 9.46644332226807 8.447021247024022
Sn 7.163687271722872 1.4417151366449972 8.999414617029496
Sn 6.717125411233427 7.255998912979466 9.116700212991342
Sn 4.457227371465481 0.29483945155320357 10.023432325539108
Sn 1.992645202306202 2.1440810666055774 10.283367583776194
Sn 2.2804109971452684 5.40963911625454 10.681882684478625
Sn 1.6967536793920395 8.434666083351022 9.202725747756405
Sn 4.8763450065391405 3.5024854509870016 10.413203603487064
Sn 4.240935886233795 7.7536044052606865 10.947241999832496
