49
Energy = -173.19149136 eV
Sn 7.387489611127687 10.391792765129145 10.332386349310314
Sn 9.455869847385594 10.28703588430282 7.983029421140532
Sn 5.470526582357948 11.891083676884707 8.483832063627485
Sn 5.456779904310991 8.173827581485178 11.552949625523034
Sn 9.377055473943084 8.054214855375081 10.181753224778332
Sn 8.154788754549806 10.083873017836229 5.233509843136173
Sn 8.979246787664323 5.099241679714162 9.695835032295369
Sn 5.706285261066972 11.638918290259458 5.5502553515281745
Sn 6.406700572235661 9.048936967617148 7.565798466626751
Sn 3.182611836628411 10.1821428383241 7.774106399433275
Sn 11.787433542938341 8.402975249999871 8.329156451484517
Sn 6.444594516589425 5.32495164495183 11.54676381642215
Sn 2.6655513727489657 8.222099298269907 10.128131692501137
Sn 3.297184088915071 5.757896712491875 11.885139856915593
Sn 9.193169260624556 6.920970300014146 7.154273221240067
Sn 7.536393718494353 3.4547368449197955 7.710879201468387
Sn 11.35403511194981 8.1213203149114 5.26977686940376
Sn 3.1308967106598584 10.54645959547826 4.351111138025309
Sn 7.236718801602507 7.111033757709638 4.522811033096107
Sn 5.073871442328725 6.510282321067633 9.068559286784993
Sn 3.844001674596703 7.841763312121569 5.7185576661272135
Sn 0.7693132053173821 10.917472983572976 6.322855529615329
Sn 11.746201375626626 5.20262887288872 8.439653354852416
Sn 0.5903826383804309 8.045381057030077 7.680947889073664
Sn 9.514313638526657 8.683110350470855 2.9633937749676855
Sn 10.477596142624597 2.745499516715352 6.8249186077866035
Sn 11.7039642462139 5.24755122817014 5.406067504168279
Sn 4.5159665694152284 3.5214389931778425 9.990181411964938
Sn 2.070790634219316 5.312396866877967 9.063732717597576
Sn 0.9073190340455364 8.38133178106825 4.5417966001138295
Sn 4.900753607432886 4.882701107303023 6.499866288849175
Sn 9.742330818380456 5.712271068414841 2.6169884021831296
Sn 8.096405710032862 3.975055752686578 4.756900364584164
Sn 4.8114502580203915 8.179336472324403 2.7618947025609515
Sn 1.64489017130942 5.650065450050884 5.8529796808398915
Sn 6.977496641092931 6.645822330550407 1.1852778410508895
Sn 5.35599050364288 4.732357172580635 3.0193752197210224
Sn 8.104926085015778 0.6605423938714051 6.367269332050419
Sn 5.734049789271949 1.0978790550476902 8.119194334336953
Sn 3.173444328499339 2.4215215485877826 7.00486193712756
Sn 5.216719254344645 0.7912137847057217 4.953045531924479
Sn 10.902152925685987 2.9417461873377193 3.747089110691106
Sn 2.528251582960281 6.2391995638634725 2.8577607655803177
Sn 7.772077445857066 3.435377894244772 1.2791025339572242
Sn 2.981374806378927 2.986835837463856 3.992786494042945
Sn 5.324893688211795 4.2324898234516874 11.885139856915591
Sn 7.973199575842622 1.214879686757265 3.3829757101084708
Sn 5.0566385950830774 1.6846543939897365 1.7763039824746047
Sn 2.641612910594204 3.7563224076642947 1.0915892539601006
