44
Energy = -155.90165351 eV
Sn 4.16156059415138 5.391890051345225 0.40538659121313025
Sn 2.169398412470203 2.5539925893323505 10.167488174948312
Sn 10.448469346794006 3.582684380086549 9.964872075481257
Sn 7.217306621791416 6.089541427695757 0.6452137739097582
Sn 1.5078372318925608 5.54632973103516 9.78286510746775
Sn 5.13591866424394 8.397003708328171 1.3964832621581438
Sn 5.590211007723078 2.858017277449777 10.916283282568989
Sn 7.428068419842054 3.0770840679922116 1.9325413280581074
Sn 7.724149967080382 8.281939972887374 2.889730379485947
Sn 11.263598033863325 1.0647863127194144 0.30347556621469507
Sn 2.4775185952426 6.439049996111646 3.5425795389910815
Sn 1.9877257806223194 7.528834760953786 0.7657853775299738
Sn 4.092516969519433 0.22961657194548538 0.35364434052708993
Sn 8.762816201903565 5.404927332007174 3.514058691591514
Sn 1.1125689751480603 3.8727759804519444 1.3041062190160833
Sn 10.532559457606189 6.048355976317417 0.37564945860226967
Sn 4.212824896804217 2.7753572447999435 2.318441793591558
Sn 5.50161421804594 5.525186014832055 3.399826281882406
Sn 5.367234687269807 9.337527100780461 4.916900686615245
Sn 9.433877498386451 3.350403988565159 1.47300933446428
Sn 6.266645482638762 11.016232880081493 2.46745609876432
Sn 2.1955366737373363 0.15843624874072662 2.6369309115518456
Sn 8.997745206807492 0.700139628641936 2.988513280491503
Sn 11.122944314242385 1.5859236999386301 3.4258533005232974
Sn 11.352475787160563 6.201213299900089 5.57662814309615
Sn 5.004602950353982 1.008803864953007 4.717166769083877
Sn 1.9595484900213627 8.612273570130151 5.998334424129375
Sn 1.7194017114655418 3.6296109364397613 4.558995632332487
Sn 7.0442008359066515 6.835179119205484 5.718842212415944
Sn 4.858776324698853 8.53369009963804 4.434476537880265
Sn 5.667167898948352 3.7692088165290336 6.081078265193603
Sn 2.5944952145664195 10.646695190406135 5.463421088235527
Sn 7.960110652099195 10.890972254814992 5.744958908173997
Sn 3.193051735207902 5.813993658831705 6.670590588564588
Sn 0.6490184702753613 7.228821616948647 8.523265753560814
Sn 0.7545137443202076 4.159897771263874 7.744586836583721
Sn 5.421685383359761 11.14153796446104 7.538031763094083
Sn 8.356556092237218 2.6982125212738337 5.204725736947665
Sn 3.617606425957957 8.160788475189895 8.643206030835472
Sn 3.067281504916069 2.013798101148581 6.881007945228782
Sn 5.872728965308847 5.9663616357212765 8.532954892223955
Sn 7.789752706886213 1.6342007556313805 8.003105560911111
Sn 2.772854575490222 5.356263853728595 9.78286510746775
Sn 5.129065521383815 2.9816166351244804 8.997474868760774
