43
Energy = -152.27554051 eV
Sn 6.855278786752946 8.77276380103341 1.3961823022844082
Sn 8.601251250791087 6.1454701508734 1.2716972245339264
Sn 6.641682412194647 2.993358108135497 1.0190430028974677
Sn 9.575438108623919 3.045826498697751 2.095261506111089
Sn 4.321556674749887 4.072527768724761 3.5782180590530235
Sn 1.899580718299051 6.4636975964282515 2.1067415589280567
Sn 3.958698409347275 8.799105798622426 2.6334696468190675
Sn 0.8403921142783893 8.668174318006795 4.167726055742397
Sn 5.005768119674743 1.0875202910544144 2.9682307885507844
Sn 1.0408112674236838 3.713650747228717 3.5158873368732255
Sn 5.422271582644205 6.041691980346555 1.4682331763650014
Sn 9.263620745027808 9.01750455001199 3.226279762565138
Sn 10.425817986248802 6.2445461178292785 3.78784429198241
Sn 8.017413845423686 0.38252160972827653 2.1459283578444994
Sn 10.510888656356043 6.169715147968493 3.564932366146771
Sn 6.895871157298663 9.727042970792127 4.900892358979386
Sn 9.754853816799063 1.2960448312660275 4.632901171744674
Sn 7.363056616082395 6.626191431713505 4.063070625592573
Sn 7.255765665661215 3.111120778298364 4.103210420159005
Sn 2.8630247918341176 1.8382182017948963 5.394966155891205
Sn 3.951669062809806 10.410619137427428 5.141026941829528
Sn 4.610021021049029 7.283141777348329 5.264908700440886
Sn 10.663734325067223 4.284081988706287 6.058375417368203
Sn 1.8067516013228124 5.879504625626793 5.508619078488237
Sn 6.955271978616582 0.3284587295273793 5.233119131503905
Sn 1.9123004379448163 8.461661833100942 7.217911747731466
Sn 4.846593021591606 4.184772589507755 6.727801737970421
Sn 8.174905110157031 9.439167958153654 7.927462863256465
Sn 9.554416944150633 4.193552415705051 5.913987647150035
Sn 10.321626947180487 7.56719264987733 6.944475697426092
Sn 7.576843641523257 6.314912876764531 7.577496930167086
Sn 4.851158939873724 1.0980280207758875 7.562636532510756
Sn 10.425817986248802 7.376188061598921 6.399970702081147
Sn 2.2970400694823123 3.0293622195360523 8.209049597657431
Sn 3.6971932781567065 6.035609671135011 8.95892739636169
Sn 10.406691210106132 5.097895221999966 8.74035881835426
Sn 7.412117750111647 2.8839746858582234 7.798418087561444
Sn 0.6487855916883184 5.652848542302665 8.594522288670424
Sn 4.93222635235985 8.972886629308134 7.8064700610028375
Sn 9.622686138245118 7.753480925151342 10.053098900057764
Sn 4.898337913195164 3.1740442250435277 9.887911814372664
Sn 7.806833640282778 4.838319973787918 10.362152862278279
Sn 6.534068376509143 7.6348856844428825 10.181864017935563
