40
Energy = -141.15978982 eV
Sn 9.24429183994134 0.7934286206231955 1.9499529403501348
Sn 0.2950213133353232 6.591711832000423 7.564426433619009
Sn 0.450239358408404 3.6476686210165234 10.530340790283304
Sn 3.432770413863108 1.7373673311173543 2.0739895429624853
Sn 3.6071252813458976 7.318050386764743 4.107116350147745
Sn 4.199893730928849 6.527731396591562 6.9983171814617515
Sn 6.290476881315846 8.593237990732094 5.305223399597505
Sn 7.437952860523591 6.388255873642892 7.244462861799587
Sn 6.218945729037069 3.0422288443776946 10.308072495646227
Sn 6.060842694666898 5.384253834240457 4.665688690888757
Sn 7.28154940115276 2.316701113219256 3.553309797352839
Sn 8.804605119923531 4.193845257039538 5.56469386592269
Sn 3.708640312887729 1.1124954739334796 8.107562190316465
Sn 6.612473809124331 7.453693877993213 2.453403025921396
Sn 9.745939122971814 7.044637066811816 5.227593931516263
Sn 4.746473772649957 10.58832191372563 2.034897549520043
Sn 3.6135113024554824 0.21706097504236546 4.8086050295141956
Sn 6.649222106341185 0.8246500515408588 0.5424398048466257
Sn 2.980825514833654 11.227547643297774 11.285148110746116
Sn 0.935315736138006 8.472591872679947 5.202090715590913
Sn 1.427247514183275 10.895450685559144 2.4742459899379776
Sn 2.0461766701832804 3.931986395124718 7.97924452525686
Sn 1.08192973551902 5.368303107494181 4.834433630735189
Sn 3.6472540690673845 3.3621870425030607 5.332588001597903
Sn 0.542856824103201 2.103159611407599 3.4944274732584213
Sn 5.612515347554983 3.967014034590305 1.546894647677052
Sn 9.061824832881236 7.2371651286078915 4.553514780621237
Sn 10.371986822593941 4.179803515422239 6.399439963140538
Sn 8.613393848782815 5.057619211352593 2.5334549805419777
Sn 11.435953923036642 7.173381393464059 2.6240639398580887
Sn 3.1805993807790074 2.5538191973681035 10.733787068659217
Sn 9.994983133156467 4.562156035519828 3.3766675738578646
Sn 3.6894885518935427 3.096975778596866 10.308072495646224
Sn 1.132504936538101 1.333239339854012 6.463545521974781
Sn 3.6972017403777784 6.277722113744493 1.2526743670108078
Sn 5.477050788123796 3.8022103342861673 8.060814168486088
Sn 1.3158782241048457 4.44253344134308 1.6567605911766266
Sn 0.40287652942330543 1.163434502577713 0.43059323859051224
Sn 8.929970261157107 3.1740241035272145 0.2521745835410866
Sn 6.193290458975741 1.3845597296728085 6.336367644708603
