43
Energy = -151.29540152 eV
Sn 2.764554257825387 6.760112655623673 9.41090661703199
Sn 1.5188168834452165 8.404145516965086 7.081211197243036
Sn 3.276001460554517 5.253195897079092 6.653665103038535
Sn 2.7103036125735116 11.046769771778287 6.3506452328046805
Sn 1.5014618440911625 6.8180915408268 4.513250911762167
Sn 1.6079180986908321 2.3413175453221466 7.139175334663634
Sn 1.218030414305633 3.875231817690503 4.547069464823576
Sn 3.0681289255838298 3.5700394408960436 9.53484218016977
Sn 5.412524630462722 7.684624581863977 10.628080203344483
Sn 3.75050979398047 9.776133154920279 8.95674897481809
Sn 4.807066075950317 11.67694402559063 4.167565022150161
Sn 5.935854033640445 7.605745646036644 7.471224747323146
Sn 3.0661221111559116 7.077190019618769 1.8701105307495267
Sn 5.8572712320227485 10.852832845523205 7.004063343863517
Sn 4.6534852988153235 4.767082290816437 0.6773678424077177
Sn 4.232111639421078 8.672508039256616 4.861781267214387
Sn 2.4870578550854003 2.9391482650834697 1.9337876500861406
Sn 4.805178175437925 5.345330719250189 3.7986460147285475
Sn 3.275123357812652 1.5447824524505789 4.388647020501717
Sn 3.176987081216067 11.67694402559063 6.647050750067255
Sn 4.682459103209206 1.1692729280085175 8.76653105413787
Sn 5.7582974924173405 3.749945489626697 7.223123363598483
Sn 8.4775899799703 9.5206209018981 7.880723261031163
Sn 4.319550269259429 9.80950964307668 1.7210023777353516
Sn 5.7263779850013465 2.6358824721320655 2.8615791735139227
Sn 8.239503132456406 7.109403805151529 9.765278903009218
Sn 5.835374008358372 4.720755287344224 10.092060641484343
Sn 6.296012083826734 7.554313485733761 1.3394634690496283
Sn 7.269248537164102 7.151357407764414 4.533957014313728
Sn 8.51985742039414 5.328958563714194 7.167763073037374
Sn 6.003996864263281 0.9943669854739491 5.924737461512581
Sn 7.236233966482108 9.950793051152605 3.337089003237069
Sn 9.717279024136218 10.005824931967641 5.197776430838805
Sn 7.802177713519741 5.100035353772846 2.2244748534342063
Sn 8.406043311680126 3.0086227785624216 4.943747810047986
Sn 7.771845268285347 1.1341962890782253 9.002414458213476
Sn 10.736598335743182 7.514931327274924 6.853333232685787
Sn 8.720660942377163 3.810650070188059 10.103913813033499
Sn 9.487534224262003 8.135327240746413 2.2618629265408847
Sn 10.081411925741655 5.804243111720034 4.3198743895448555
Sn 9.006219569119194 0.30977753122738216 6.3955089597436645
Sn 11.924600776470603 8.340209104396036 4.163856518344465
Sn 10.172262585674371 2.7755466327545446 7.607972737288557
