40
Energy = -140.79474421 eV
Sn 10.34266503558172 5.244098981007921 7.616895818125669
Sn 10.266589879082742 3.0276787254979434 9.600620078771406
Sn 10.147672400208302 5.091309134405921 4.630756092944831
Sn 8.778435890472986 2.304130322807169 7.031129643821749
Sn 9.245363141883281 6.71082904960213 10.030347118401187
Sn 8.212020479596172 4.79730466287983 2.068957152524414
Sn 7.679187307219066 1.4860318712661456 10.028346325844158
Sn 6.081612835687824 2.446576025525194 2.855592947823798
Sn 8.42067045938644 7.470457795877445 5.019000256088363
Sn 8.093807093838809 4.152442258847635 11.60909756234089
Sn 7.681924187978879 9.26724250396974 2.746889212637763
Sn 7.199309619235754 2.7926478879647423 0.1146552570255127
Sn 7.409227399870679 4.63470663562734 8.537591619552943
Sn 8.580977425860226 8.764967332305117 7.727435248050814
Sn 5.243629210236139 1.8507799198184465 8.334835615881826
Sn 7.225345893606565 4.315867217581236 5.079498856231593
Sn 4.892601686595085 0.9907030280602259 5.557861469656086
Sn 6.976013232762738 10.69319504938555 5.282617647240623
Sn 6.277024335709332 7.7465492841438 9.710893093789005
Sn 5.299490034137037 3.803244640910698 10.663463308198292
Sn 8.252377612769491 11.749533413092003 7.6402280064823005
Sn 5.7378195578603535 10.298872132939438 8.325198164366034
Sn 2.347346265722125 1.2377264079188268 7.949316398013167
Sn 4.380804571813362 4.030824584509056 6.200243884101049
Sn 5.709465364589601 7.519284966504705 6.523637148851524
Sn 3.5626720021768636 4.03129169951483 3.00888798403948
Sn 5.957749799265086 6.7228901099676435 2.566324661477194
Sn 1.5058946378617941 4.0923069695006955 7.448978037185256
Sn 4.023907908105904 10.136636532422207 5.846564462479617
Sn 3.9228555922195367 5.927893076188073 8.683475639917706
Sn 2.1087418191588787 2.15788007879951 5.097132702339271
Sn 3.2945190859889832 6.837433865462174 4.1380398724902845
Sn 4.502888222926523 9.424723400975804 2.673255157504584
Sn 5.119453885533358 4.77226151461412 0.31967897084814484
Sn 0.13282917423252125 5.973186663382631 5.625609253031297
Sn 2.3072514675835087 7.699968993826429 6.787663988498961
Sn 0.9803277545760042 5.371806327631065 2.6654799295373284
Sn 4.608220123936352 7.782281907523155 11.655845607113138
Sn 1.9897241507812242 8.07693792512934 1.5296526753371513
Sn 2.3081656315569368 5.529980947545723 11.60909756234089
