45
Energy = -159.15562288 eV
Sn 2.2153197737621233 1.9088630374374767 11.708945443039136
Sn 10.232081741513351 5.497164846486832 6.543624288304037
Sn 3.235973266513241 4.122784737390921 2.694771715175589
Sn 3.160621068455356 10.726564552145867 4.42408016231171
Sn 4.875408870443817 8.543655405940877 5.300283672772978
Sn 0.8075796262053022 4.506220941705996 5.030980460040426
Sn 8.118841462136645 1.2403249114403088 7.158201101719065
Sn 11.296908541805424 6.882597578939261 3.9831980767655812
Sn 4.084644616840133 1.05434120653705 2.514791375436987
Sn 4.475835253136622 5.044611995595445 0.10693602266816557
Sn 0.5506999653259816 2.948569269368645 1.92433050092678
Sn 1.7763497889058086 1.2041674836805942 5.666593907551721
Sn 11.188615562026685 2.4606782628972783 6.388663477547547
Sn 11.993586223578305 4.167778976994349 11.416744339983195
Sn 6.30636139280358 10.914378731984568 3.092608449904649
Sn 0.5463825981307915 4.490655407006046 8.155095098998999
Sn 6.217095463145948 7.409843719012943 12.01965367084171
Sn 5.447051634730834 5.888747172218329 9.0095557604677
Sn 4.015111108849703 3.1801612848087757 5.621929548836732
Sn 1.56095058282324 3.030800585158813 9.0095557604677
Sn 8.733378395717688 5.1986635137969515 4.717039947834322
Sn 7.061137233917356 1.3676454177819133 1.978086451384785
Sn 4.170358959566499 9.129046991047948 2.1505856640111887
Sn 5.8134023773358745 12.04920279721991 5.772632334082338
Sn 3.2245020938222186 7.943435609327555 11.730422750163854
Sn 3.310957842006626 11.150778766207091 7.43110150857141
Sn 1.4280904674125845 6.051014740583331 0.9314267221395698
Sn 5.938383725438145 8.874297674407376 2.5152483074035876
Sn 5.221672605301065 0.8561320663654801 11.843691712017652
Sn 2.9257140496130436 11.240986890506244 0.39070862558057967
Sn 1.1560876425237583 0.08459844375766087 2.6722655307289345
Sn 3.2397764489473437 1.965534063475059 8.439657682138463
Sn 10.350587704046566 3.885480353194933 3.7629281325380552
Sn 5.741940540804255 5.96087181065868 3.7239333385841995
Sn 3.407989055923341 5.839459031758787 6.742313486265846
Sn 8.281041565068856 6.738672595073726 2.127364565829881
Sn 6.010853015506278 3.1479706707288893 8.009681047856938
Sn 2.3639501827417084 5.643355950451391 10.088151467569212
Sn 0.5315660744296766 7.240925785092513 6.762964961413336
Sn 2.3390635207079566 7.030460008577541 3.9018456164653617
Sn 6.829279206929247 2.724257859757831 4.794680371199525
Sn 8.184046284891666 8.516312015873996 4.563099667704275
Sn 6.8890808924409495 6.572916734096505 6.552135993714273
Sn 4.515840599867198 3.2034331004758885 9.90606304499607
Sn 5.719985422289082 0.07613616287190658 8.876716818800293
