43
Energy = -151.80713026 eV
Sn 7.638799467341558 0.5679894471534659 3.4620959078338727
Sn 9.9816952272198 2.2554069177507774 4.40443106648267
Sn 10.570319655855965 4.722371433973002 2.5252209629507094
Sn 11.902724301556896 4.4730363935188 5.265860019313144
Sn 5.28878112898459 6.124876780248859 0.9822937459187973
Sn 7.806167764246277 3.431547639318291 2.2872843392341164
Sn 5.530730240911545 12.29485698706868 5.849212589137965
Sn 7.622890344840568 2.0295466757049234 6.466135212474913
Sn 10.032758860610935 6.90247412157743 5.008387816189775
Sn 8.417338474862165 2.964551207546692 9.453633056743087
Sn 8.0718063582723 6.575790738829743 2.7496331713782
Sn 5.5921567097446365 2.7604331816118224 4.374444002207098
Sn 7.054817768531404 5.46330143307466 5.444964429590359
Sn 3.403757288452354 4.08133007407245 2.2686972844278888
Sn 9.508830789752341 10.150972068453381 4.829356688618715
Sn 4.335419103300879 6.630293622857082 3.8303368532055115
Sn 4.118198694030643 8.934698788816926 1.6135742813921352
Sn 9.407413534555968 4.465946940234277 7.0357855517963825
Sn 2.9219370495353045 1.6867860917613138 5.316427123955619
Sn 4.313011904933658 4.009770268082434 7.011596655580125
Sn 6.610384030932109 0.33098941540182475 8.813462997749614
Sn 7.101650145658752 9.829936974876828 2.8345417607084546
Sn 2.079328864068078 6.650734310769478 1.27799786030031
Sn 5.37832600642319 3.1237739978317514 9.722273240311848
Sn 8.532150618896754 7.395175514025077 8.018145740232026
Sn 1.2086731419592533 3.8359326973028427 6.743549837713101
Sn 3.6335524463235336 1.0238126455016274 8.210666101973988
Sn 6.618656747401951 8.91107434059398 5.6397259149774746
Sn 7.321808415883273 12.294856987068682 4.688406200418121
Sn 7.1608648077705155 5.646376081923111 10.55692168077246
Sn 5.542981008782333 6.9736093248885584 8.10244282524779
Sn 1.9140353148562765 8.601375387566462 3.8100114915094796
Sn 1.5047085298082181 5.569514831779401 4.104947298577942
Sn 2.4116887694397913 3.662837272398167 9.863231522621094
Sn 4.517205442461597 11.101305092415714 4.029354584890408
Sn 8.304886531557873 10.551367480023954 7.660817443826999
Sn 3.60705598271254 8.905872364052664 6.616966194103916
Sn 7.150058028371062 8.872804309213617 10.303574425503093
Sn 2.375559305441167 6.210630689744315 8.139392495064936
Sn 4.141980369079063 6.312170530849342 10.794904792439223
Sn 5.376320300800418 11.494074263870377 6.984710136174542
Sn 4.198417939248754 9.439825147773035 9.602126118799198
Sn 6.327903378943011 11.701433934009238 9.839619857594176
