45
Energy = -159.06942449 eV
Sn 8.374482335048944 7.444571213184638 2.7606193643908035
Sn 7.865622106576034 4.546791367824396 1.4069768440557402
Sn 5.113074042070035 6.754371807943708 0.9705258412277395
Sn 4.801408630661296 3.5965631622115994 1.1387218837289943
Sn 10.37194178469355 5.260655045483615 3.2588716555847936
Sn 9.859517189302833 2.430478112529509 2.332922603184567
Sn 6.871294871769843 2.2225480170353977 3.089206022504905
Sn 9.40279763546195 0.9126221346034996 5.032005937725793
Sn 9.614398797052834 8.795063890339046 5.2375139152309895
Sn 10.697255404776321 3.7368238608779443 5.876583662809366
Sn 5.786805134261405 6.5136811305742 4.274291325293251
Sn 8.515160356794933 5.918826136831799 5.788562733835758
Sn 2.4843121674757493 8.39126797299868 1.1781185181555807
Sn 6.574881490976754 11.939756000486625 4.819695040234424
Sn 4.053135035411183 4.352251413180868 6.213010205715267
Sn 3.4834232585988456 2.263298422497692 3.6521888507881957
Sn 3.270972382940321 5.363731964453387 3.1277706730465793
Sn 8.250380703816019 11.612517790089589 5.596549028088227
Sn 4.86506291633038 9.154643572250931 3.0101460536806126
Sn 7.039337424830206 2.9187259452509227 6.070704192780983
Sn 4.3695122835078495 1.1236088294596294 6.492553185781778
Sn 9.264917793539254 1.7281183023137263 7.916823410611601
Sn 5.221494630696063 11.456787860837414 5.200948473471947
Sn 1.1466309700429684 3.3336174208812706 5.17676293543524
Sn 3.451400261650997 7.813006559978344 5.870490653311541
Sn 6.274243672172654 5.947080281745879 8.118513282585107
Sn 0.7461889594758138 6.917379798590758 3.1600880075665483
Sn 6.358188968118041 1.3847445317838036 8.801709021971025
Sn 9.06867131470948 10.05960820990964 8.335667695041122
Sn 4.507581382207993 3.758721754268982 9.617454489031374
Sn 10.682703896147519 7.290207723730512 7.631694591805758
Sn 6.63557171274591 9.00463184568726 6.434498526497397
Sn 1.9453951452525071 9.762488109513125 3.8575788190807057
Sn 11.21915909696304 5.497309884913387 5.213537196042966
Sn 10.547065026970055 4.392072165446481 8.873314785241156
Sn 2.0681713912602264 2.625367088149809 8.010031577736266
Sn 6.607578144726283 11.939756000486625 8.086739973649438
Sn 8.630454322462374 6.7522003989924855 9.966150623718562
Sn 7.576023337596059 3.851308312865167 10.148713646779997
Sn 1.4083327928713905 5.689659777076313 7.374340626062033
Sn 5.766424635147778 6.066782945478846 11.381092188611486
Sn 0.3590794640698735 8.29687181829704 5.998031609716265
Sn 3.728732018381546 7.137153455929045 9.239618183644012
Sn 3.9768459741950486 10.197195216261573 7.830282307782167
Sn 6.376630935145873 9.076983213010042 9.576337833459771
