47
Energy = -166.34487498 eV
Sn 9.04685427034776 5.0108093123205775 3.579668771008381
Sn 6.665845172306532 4.031520579979111 11.423143365868427
Sn 8.075401742937713 2.480778523754778 2.0743331691433538
Sn 9.152462224344264 6.592397318383423 6.231728862274484
Sn 6.500681441835952 8.48402517421571 4.181640177420564
Sn 8.944465472696884 8.086650095201456 2.163893915833696
Sn 9.06206160519444 2.71488881515593 5.6189956395679665
Sn 8.445433855395812 0.1858750119791776 7.307619433372873
Sn 3.642944539443287 3.4930102793068114 11.271206547309163
Sn 9.298730884831135 9.565322791345281 4.987404340784722
Sn 6.671443723270606 11.23314396202512 5.568761679176391
Sn 5.013580261562624 2.1356065990161457 2.169588903702846
Sn 7.997221472517578 11.090242964014058 2.5960707156969147
Sn 7.560554819539179 9.12919596756517 7.793360170727786
Sn 8.287558100959188 6.145020664152335 9.218931869985934
Sn 6.299527120494115 3.812896630888864 4.414258386008735
Sn 8.910721634699831 3.1052126954827153 8.676508247457786
Sn 6.875564213099396 0.5551417393938612 4.623716313846166
Sn 6.314433044307026 6.066343947310424 2.0703118675703793
Sn 4.940239095541865 6.3792840248941065 10.820111412127842
Sn 6.238096994732414 6.358382623034136 6.800546534166571
Sn 4.603747306102238 8.957020926982892 7.174480701371135
Sn 4.912608367605863 10.8821482387105 2.940662529928214
Sn 1.3424577885506759 2.6997878419831447 8.546960476734187
Sn 0.17471836254349435 3.96544179390528 6.001573324795173
Sn 2.378012510167559 0.18673808354963847 7.286204311501728
Sn 3.2695249118796004 4.4958995898734075 10.353698940739251
Sn 1.2693223217827356 6.775895361007943 6.355964802352286
Sn 0.7337509586131231 6.826042026378833 3.1735574812138134
Sn 4.049639640033433 1.4234336619319259 9.820065841346656
Sn 5.416140179647648 11.23314396202512 7.519809164704106
Sn 11.42275294555902 4.3619102280450255 1.8805504223180085
Sn 2.457056922163377 8.999841105760968 4.535439270004334
Sn 2.508929666325704 7.549054548024809 9.103231180392065
Sn 0.8557648725910292 2.1396091465095157 3.637923224690585
Sn 3.5150548827894057 8.137731811791296 1.7026805939036345
Sn 5.436025015616501 6.969200741301308 9.836880314273605
Sn 6.401276259359139 3.9096109438084707 10.610895829442862
Sn 3.0294895716455925 2.766020712211338 5.7016167011763965
Sn 7.166619975630373 0.8901797253373346 10.056785020597967
Sn 3.7788662596821716 0.11442552088969951 4.416715764639984
Sn 2.7328820328813466 4.279953236071384 2.520336286181028
Sn 1.90706219075811 5.969748520053534 11.639182438009
Sn 3.561720690557756 5.118437168466608 7.417643561544609
Sn 3.9505077606337897 6.2948849203460835 4.328032389955357
Sn 6.384726849376294 9.134085590319637 0.7721646902529048
Sn 6.146485163430697 2.6129699712780203 7.371604451329859
