48
Energy = -169.69683495 eV
Sn 3.183403027779534 4.674928961396953 11.49045947657046
Sn 2.2723234573956685 1.6448811468548927 11.579827860058606
Sn 0.3467270489632728 3.9521267870751196 12.325242389595903
Sn 2.0390016887197153 6.0375583982688585 1.0100770146327782
Sn 7.466394054788548 6.079310030925987 0.7574295614494015
Sn 5.24326670748696 2.4255247450935276 12.099692649114461
Sn 7.485622807803128 8.872698785553887 2.0621619399213644
Sn 4.470466096852866 11.275666994037552 1.777963469071485
Sn 4.7818415351049515 4.6842115633542525 1.1664055528022697
Sn 9.668615336471484 4.290927677803824 1.8490123214503316
Sn 4.723242147053143 10.20536881475081 2.083945730457263
Sn 1.7297378952179014 12.110558673816577 2.8605381921968855
Sn 0.46675142527427943 1.3992260027816061 1.0640540088347779
Sn 2.37465193580874 8.567794030760604 3.2746340497355315
Sn 7.020193861278734 11.272059196840633 3.9661669219004847
Sn 3.5279581808558813 1.2205200681084558 1.3651994214797447
Sn 6.950433377903167 11.61760469246729 3.8001238933295656
Sn 9.067970173792105 6.657697990270503 3.564181636493896
Sn 7.00639675684884 3.1275166901207743 2.728468839562945
Sn 5.18550143028914 7.158705150767337 3.1740023819152516
Sn 0.33683029344791804 4.06945123780607 2.470566808864957
Sn 6.505825311755824 0.5020701516883284 1.2649924340371221
Sn 3.9963458295467587 11.272059196840637 4.914762682266263
Sn 6.844650414613382 8.620426164919621 5.353656474909078
Sn 2.3018300167935277 0.9325324993828841 5.18241810635373
Sn 11.189441154125769 4.515909385847857 4.456320638125576
Sn 3.1339300157937138 3.4473644041060054 3.3861793749448164
Sn 5.423585291139309 1.1241501259678752 4.781566494272632
Sn 8.429297351194073 0.6748321812035327 5.570201734737468
Sn 9.171968695236753 3.6984543561541314 4.909909153750462
Sn 4.259479578861738 10.610765254833085 5.089699426859427
Sn 6.176157741949061 4.925159450171224 5.074224385196832
Sn 2.6773512513775097 5.988578086280526 5.127740494361567
Sn 12.85912039380048 6.873376436054575 5.318112254668044
Sn 0.44494050410540315 3.4943382031881156 5.987507662896856
Sn 6.541606221040057 1.6825972602292796 7.654478169309645
Sn 8.592606388474984 6.343574429942217 6.542210101716247
Sn 3.907520306762089 0.12341737057080644 7.737576258822524
Sn 1.8088181210416485 9.340488530198684 6.301823792614925
Sn 6.422064039672964 11.539638615829595 6.860949488517862
Sn 3.610567485744672 3.5234446322092787 6.906163844136296
Sn 11.604969306265959 5.346677443673377 7.756289453617897
Sn 4.399093754203494 7.768839621635915 6.852228457895712
Sn 1.177953766451656 6.866599092900065 8.178509680208135
Sn 6.360107376651422 4.710708143336607 8.12720995229466
Sn 0.8012371384479056 3.7891548387324954 8.958668667716713
Sn 3.252749326382677 2.49739294964213 9.847220699202131
Sn 3.706897114318192 5.508679155068291 9.395730374303639
