46
Energy = -162.24625375 eV
Sn 3.6731303477499666 4.748617411186148 11.94801921230667
Sn 5.917018108118093 2.6886857081467816 11.332313465100478
Sn 3.5642868939688426 0.5967866134887716 11.756618542190877
Sn 1.3039995600608167 2.92564583307447 0.2560128751272708
Sn 6.9128012469248175 5.714693705718581 11.98492496042153
Sn 6.896987859972078 12.457398911149687 0.21308068841633165
Sn 0.6637987229014107 6.1907534802728215 0.6231236065187991
Sn 1.0289044994962717 11.736646393743566 0.5821382928806756
Sn 4.556079026281151 7.498811029785574 0.741245143602641
Sn 4.868372888137652 2.1495816353821677 1.770690067452827
Sn 7.847390462264505 2.8832314784621205 1.3134974551968064
Sn 10.923145261249328 4.160134699280039 0.2154795160111778
Sn 3.847509122165213 11.741479607482901 2.0164520636258567
Sn 7.455126589588155 8.325001096003836 1.338571314812153
Sn 4.935659023278275 10.158089613782714 12.28868247834549
Sn 1.5017334263595612 2.163411627005319 3.204313701753902
Sn 2.175616322776622 7.6419245018796795 2.9232021309982263
Sn 11.471783224098543 1.270393457004305 1.5034385426939494
Sn 9.322215671123638 5.8191019758844105 1.4297753523487993
Sn 11.69500292878864 5.334709116095989 3.017519061606049
Sn 6.400548170831882 5.335948814882288 2.5663372898327768
Sn 3.2093831640553634 4.8829724809641455 2.4351908292335303
Sn 6.287057692873492 9.776656397274976 2.481606085458443
Sn 5.553318648623771 8.002273170163498 3.830192547250307
Sn 1.314174700029541 11.704650846453054 3.672660481666957
Sn 9.322215671123638 3.094516704181206 2.6653864017088997
Sn 4.448930937371992 10.943768203119191 4.845772995002623
Sn 7.694505925752092 2.6201686881962725 4.715636932707256
Sn 6.917272531207398 0.09723444362037113 3.2564241157623544
Sn 1.6958780270659348 6.5744495548592905 5.722419683707367
Sn 11.273314983072492 1.397496942910222 4.562152513128847
Sn 4.7186013447135995 3.232832903220828 4.947870020502863
Sn 8.44627111544438 7.061176775918606 4.014711328157451
Sn 0.7165816348161644 3.700042240214906 5.682156240142525
Sn 10.233384804585901 4.254597621795619 5.307666495087551
Sn 4.602429979653325 6.047268983173957 6.2402843627727975
Sn 2.7999439291670516 1.0690141455475377 5.967317619193672
Sn 3.7049832007501773 8.780918492020598 7.454002267281132
Sn 0.7891554804937503 8.060252379042012 8.143480410667765
Sn 6.757037836225695 4.285773809508469 7.511376837789851
Sn 6.107964741456124 0.5874430283484448 6.511975318629227
Sn 2.493110177419099 5.449560150520526 8.571361169960134
Sn 1.5161399356362502 2.5941214190227653 8.47884674473374
Sn 4.500172528333445 2.5046656185152827 8.15919176719631
Sn 5.2934548389055545 6.586924333945542 9.177240358772261
Sn 2.8598486775702536 7.8819229906849655 10.320375404272296
