49
Energy = -173.22679296 eV
Sn 2.8545903473569547 10.828649421458987 4.3197547752185805
Sn 1.3006585163500297 8.01251982438585 5.326043742854691
Sn 2.3806486512248033 10.10224397739567 7.335706166206281
Sn 2.396944527938342 7.208187746082292 8.480959469035847
Sn 1.7458672374908673 4.710459154366322 6.764974213202281
Sn 1.694614880271774 5.380275857007926 3.673313019427328
Sn 4.792411394029718 4.841993078265507 3.77251649641072
Sn 5.870180277826457 10.862835122551136 2.215784131264072
Sn 3.444480998964912 8.147828140683442 3.0648472910738334
Sn 5.603645189423161 11.131118470792881 5.495830122524038
Sn 2.515692453331991 8.004942093258459 11.437640101815518
Sn 4.458086222764922 8.324098277194125 5.920213155770287
Sn 4.287661645180118 9.850625058261842 9.889851459626039
Sn 2.859526614690167 2.6910377700032666 8.872787644061306
Sn 8.585999197959508 9.981757741307018 0.9618424142501211
Sn 4.591110550964395 5.1438746750055495 7.666223770935889
Sn 4.040257059751934 2.320555746670255 1.896740038048523
Sn 3.694045682253656 5.202081427080433 10.818566911776657
Sn 6.473459849939244 7.5633760313634095 9.167357844891662
Sn 5.382940503278582 7.637727446175517 12.271513690877455
Sn 5.711773541180562 8.400079056040491 0.4425450893460847
Sn 3.3678876488994587 5.93587909864548 1.0853854649170538
Sn 2.612543609240352 2.4196780471757253 4.568191051178931
Sn 8.45334838118939 10.712095704632864 4.009703630259034
Sn 6.044847113265844 4.504269143882229 0.8843167592038538
Sn 6.8119353909713425 10.835904741516783 8.442209719295708
Sn 3.8690762153496348 0.6648060116239648 6.75425665692946
Sn 5.147382625705035 0.28633961619437165 3.9441489366452958
Sn 7.058956020890431 10.015144883979596 11.440439497717534
Sn 6.939376866204553 5.223238536989885 11.501467177399345
Sn 5.733428238909583 3.1395724713575373 9.654779115219252
Sn 6.080096102181858 2.683091264196577 5.973923827411358
Sn 8.331673162966183 6.778790955199521 0.7655596907552549
Sn 6.977803265946706 8.085104692604741 3.256980408923248
Sn 7.029105872432096 6.221367560894819 5.845657539905505
Sn 7.117963714231235 2.479667196001741 2.9530169559796895
Sn 10.23110548233291 8.198272827744828 2.830310324042343
Sn 8.426456377473333 8.839150172055366 6.661061310584682
Sn 6.70366855418848 11.339354501502916 6.533589668141847
Sn 9.332013083946594 9.302876815868812 9.598924361048875
Sn 9.3270911554426 6.324650129996154 9.84453146336396
Sn 8.631908516862785 4.336982639646206 7.598298812719664
Sn 7.969611164504865 1.4460614014205557 8.504130276672067
Sn 8.868479016398505 5.219404787332256 3.590042519333473
Sn 10.89336972713989 3.7569838992830618 5.405068349113326
Sn 9.051875299625905 1.266059730118577 5.421307661849853
Sn 10.47662727077275 6.900163112865091 5.756429510366851
Sn 11.652663468698723 5.183178849526361 8.137470748493932
Sn 10.907318403210924 2.143083476440371 8.012065709644059
