48
Energy = -169.850881 eV
Sn 5.131161235158378 2.074606695675336 11.552752372642084
Sn 8.012561552730386 3.300009372332603 11.747697345219306
Sn 7.769789623427793 0.23541433237058282 12.066438344531399
Sn 5.665987164140577 4.937084462575043 0.6737442403277166
Sn 2.400925623240756 3.0149825535679677 1.1784138262992532
Sn 11.817826919086952 4.115517705485564 0.7585871787885352
Sn 4.933331514232854 11.620388962363362 0.712616671315487
Sn 9.508270362796095 1.887942161510445 1.7290598171668692
Sn 3.1546460198623287 9.203207154627588 1.3607616804376403
Sn 11.264022605199767 5.768136611907992 3.428901127208496
Sn 5.709232650986724 8.157393973782384 0.012301444331599291
Sn 6.170965904657039 2.0676184886476 2.0942579032018434
Sn 3.3059245770971235 0.7776701674661483 2.9957591459309927
Sn 1.7249789088400305 6.127789706190879 1.703543115653748
Sn 4.025619753636041 4.577191073788578 3.4437343384971144
Sn 7.4848445716193455 11.625737344594928 2.6342432930376414
Sn 8.311275691351572 4.714015410414645 2.245127169038135
Sn 9.780406982994009 3.1225784790460134 2.7500888353994193
Sn 1.726285076270249 10.609394467633697 2.9693243940500054
Sn 12.341293124190843 1.0461790592887277 1.908291988160775
Sn 0.46992419518280004 8.387503977665578 3.4062642249009913
Sn 5.095788380904745 7.353495868775561 2.929555727641326
Sn 0.6967381799605153 3.223255729541801 4.096763970811402
Sn 6.03540120513499 10.564465907407037 1.999579889786531
Sn 6.736163315466761 4.598635168849013 4.936376297434501
Sn 7.9535348923070925 8.041709708990139 2.0960428119790993
Sn 2.007545434384543 6.240244554365224 5.107196178286092
Sn 4.735732484662497 10.564465907407037 3.7329663714943746
Sn 4.013915552633868 9.811472050761884 4.241767050379073
Sn 10.487798343751338 3.8321343845317135 5.727426067961524
Sn 1.7201302092321256 9.17228640378578 6.058222139713103
Sn 5.5494366019599894 0.3587917723519153 5.830320053364492
Sn 4.230181204529626 5.0986520723888145 7.177256182708792
Sn 10.945217754569684 0.9636748441666897 4.713583807377027
Sn 3.3524831606397836 2.3873691580450402 5.628107234786403
Sn 1.3250382996594854 12.19693574766129 5.388478461926576
Sn 8.114725263099077 1.8355663129003195 4.588202870388082
Sn 7.0818759060706675 6.746319085724295 7.011185202702152
Sn 6.913550341307675 9.02751680999151 4.7643143611243675
Sn 0.6121828938242817 4.894710307159833 7.363986849063392
Sn 3.1360207478408264 0.062107334067128254 7.74566910154368
Sn 2.3388945282546594 7.263887773403434 8.323677243610716
Sn 4.945293127813045 3.930328282458076 10.031797833628815
Sn 6.634676277712226 2.9256941396757057 7.61025928084616
Sn 2.4754470030087674 2.865057230259845 8.557098502078198
Sn 7.941243648314909 5.088811462643968 9.541457115889973
Sn 9.171759770274175 4.449520956242113 6.9051008670918845
Sn 5.166523077595466 6.887272799489952 9.53278854895644
