47
Energy = -166.1790671 eV
Sn 4.041211141777335 1.306694322516536 0.16117459520103108
Sn 1.8872290814317585 3.3007365207876918 10.55502552940095
Sn 3.3043224090725656 6.134641369932596 10.879382836483963
Sn 3.725045118259015 9.190686020964717 0.1916431337856755
Sn 8.214285855864269 5.520681178552827 1.3942946998637271
Sn 1.2312266747831118 7.676777958797201 1.1945104332946648
Sn 5.349748162322734 7.333790143160269 1.9618306781966124
Sn 3.47786403927154 10.031043155893176 1.714968796991485
Sn 10.910468195579602 3.3370929091621653 1.1183270744677969
Sn 8.64656605450631 2.5716962958967664 1.699100777612714
Sn 3.3019453369372838 1.412726984514997 3.2259907040019944
Sn 6.482793635372267 1.2735536774337202 3.289907582862341
Sn 4.927432199313962 4.089883283449774 1.0847151808712048
Sn 10.872601583245357 4.133566587861631 3.083060336671698
Sn 2.1222194265871415 4.612764892106926 2.009623210641985
Sn 1.0806704206909454 0.5712802835077344 0.957110777486699
Sn 2.8958660608175877 9.63083408704475 3.0954392470359093
Sn 0.31546719407655915 8.595958358581667 4.231162072645343
Sn 5.8434567218105355 9.763549101912622 3.6921434516266114
Sn 1.00787093362554 10.370842016843381 3.7182079471823917
Sn 9.60277057174915 1.535428312253577 4.493529401763534
Sn 8.707390131359144 8.655407241405873 5.860971693186788
Sn 10.94466260519827 5.730245275742209 3.220773150482654
Sn 4.0836999354014685 10.155483518846394 4.679914858118037
Sn 1.7884080835362348 10.63096075865343 6.733237302590369
Sn 0.2703512739302032 1.9152450203139133 3.749220735788329
Sn 8.878869500278842 6.199977778459589 4.157630366637039
Sn 5.939941130937241 7.1348791652719195 5.335184371811922
Sn 6.32092767045197 4.359116706801599 3.7089818794573497
Sn 2.85756392007982 6.6098269873118625 4.269633589171483
Sn 10.07146554009151 4.098195816729093 6.064352332772338
Sn 3.448461540390714 3.5528549599389385 5.6381947074843906
Sn 6.235075815739155 10.031043155893176 6.840650199696268
Sn 6.951392657726792 11.116902686536529 5.730685705958916
Sn 3.562731910362702 8.635367652543934 6.752293369493042
Sn 5.226694907568674 5.2525497813984305 7.60382718686101
Sn 0.9054044814426107 7.033115359924032 6.832066215390289
Sn 8.429958801643032 6.256843059087465 7.513452322930764
Sn 4.331312460093268 0.9684239354704784 6.975131425117699
Sn 0.41039910543303043 4.282031769052319 5.804141460967136
Sn 7.181935873658347 2.7881703277419785 6.191483158049799
Sn 1.306824582891119 2.0966619710915246 7.530986838170017
Sn 5.383605117367404 7.998495837392089 9.345176397172763
Sn 2.776038738052314 6.524174755545568 9.12764855575721
Sn 3.326351686411569 3.4426608778106096 9.273393635444023
Sn 6.270149099292567 2.7360672465122935 9.193620831827172
Sn 7.076985142445842 5.539877988456133 10.043861770454749
