44
Energy = -155.22543964 eV
Sn 10.050546602313522 3.7746423377532197 3.979964797367282
Sn 6.709314482143191 0.6885562328001111 1.9720771253582137
Sn 8.361990341853756 1.1624137490569504 4.454795441057557
Sn 8.13638777608658 3.283997972804075 1.6757407772858066
Sn 11.60350418531796 4.842659258243767 6.316035534374822
Sn 3.6692053664628292 0.4774762808313827 2.460276059150242
Sn 8.856641980769131 3.69704153162181 7.077323343393567
Sn 5.441572790063455 2.201399166124928 4.767678107042556
Sn 9.779279293251932 6.8176074861977485 3.973218634451194
Sn 7.251872323320943 1.1802567965720079 7.318692496508699
Sn 4.8899620641923836 3.086915521544549 1.1328979396974581
Sn 7.256119952229075 4.897573380454139 4.773520977309907
Sn 9.859188092186537 6.20299676794329 8.726242805074317
Sn 6.371190145071994 5.8454475321743296 2.069214013034374
Sn 11.120251549232604 7.897820975733801 6.397185952978707
Sn 2.714757932965515 0.8917101778737843 5.384920746165118
Sn 7.361634942920085 4.413145647038647 10.037457139544104
Sn 1.7168353485188153 2.8206992908912913 2.274186655713818
Sn 4.331033112193367 1.4974498873663062 7.958262632001614
Sn 7.936411382403445 7.324382374236998 6.526007161471151
Sn 4.444618970611062 3.7981349959670245 10.543187507485332
Sn 3.8631249836729413 4.660689326826087 3.5880422645788315
Sn 1.510834263382478 5.660697295306722 1.322277163344319
Sn 3.6254007242627564 7.625956573644056 2.1305288462901846
Sn 7.368512438933545 8.872087906912705 3.2634924058514754
Sn 8.962813495085703 9.263816475123013 8.91788656559258
Sn 8.386512274567522 7.171001424468522 11.307660036646888
Sn 11.60350418531796 4.934511106700797 3.4889567376017614
Sn 8.675521348155605 10.22843458381804 5.782101484068221
Sn 2.2287407217306083 3.775230324340624 8.158490886842655
Sn 1.3409548806385243 3.533980296329256 5.234797948017291
Sn 5.428285469156604 6.537065810154484 11.56885835227109
Sn 5.305905758844213 7.840681088831331 8.186347252284648
Sn 5.007151137318142 8.096248466718272 4.896079807804984
Sn 1.106598076589972 7.275829053244254 4.1017176449565325
Sn 5.452874747016853 4.434967260858451 7.5516131401102164
Sn 5.039065964337993 10.431874182893162 2.0084388475076564
Sn 3.0474382688356276 6.061102666872419 6.189946060440427
Sn 6.323980631799845 9.396560863275852 10.596160622284822
Sn 5.762122426152006 11.218394559816387 4.848088031621146
Sn 6.582421567296843 11.137626370951168 7.966089018883516
Sn 3.018528270116076 6.382009609695747 9.611989528817043
Sn 2.639415965507807 10.021904510432678 4.086853445105754
Sn 3.7734105253918955 10.138564675632994 6.948203799894871
