40
Energy = -140.79547351 eV
Sn 6.937177608976837 3.121263181147064 2.1359103087555975
Sn 4.764681981679782 9.225452051991866 1.6551569026097877
Sn 6.137482496804009 6.470735094331036 2.579951851462822
Sn 5.99700248485427 0.06359187344676333 2.2023235691526786
Sn 3.9838625739278792 2.549083058021727 1.6833555393268542
Sn 3.2221819432255745 6.575256887292308 1.3781197128012939
Sn 8.967956062878473 1.035908678290918 1.63667158650735
Sn 10.651710364207558 3.0762296005982055 3.5036595965316653
Sn 6.959074239925927 9.437389254896399 3.8012041232342315
Sn 3.798556817661241 10.953243197526392 4.1489152648684176
Sn 1.631168228704701 2.554880517477599 4.0508556076680104
Sn 9.848362548272465 5.99298512281617 2.968854888674904
Sn 8.001853136121984 4.468831141809877 4.784126076805823
Sn 1.6938383591074886 9.128606604490045 2.3903932230574356
Sn 4.534524551114289 7.964534002142903 4.907358458418676
Sn 3.1241063549339656 11.108796568032446 3.2412506485793653
Sn 5.331181557720689 2.004348416582723 4.628446554829798
Sn 0.9612855492956385 6.227283588603448 3.544395029340326
Sn 8.233538773913189 0.9921958081394588 4.497871533540752
Sn 3.754964978730092 4.879809291760518 3.888060341155841
Sn 1.6665084737919615 8.70328293982365 5.382519537872037
Sn 11.580166869167197 5.312112544181823 5.446616306838435
Sn 3.1135614618954666 0.9160316214129657 6.276636239882851
Sn 0.4579043673971784 5.938554056274612 6.748890721349183
Sn 10.069473892437516 2.5628594614130247 6.529636886514438
Sn 3.339622807011349 10.404312373362169 7.2965487546898515
Sn 1.0774389872095422 3.043915080577093 7.149166287473069
Sn 6.519063820869984 6.390690516136722 6.820179695558324
Sn 3.4330571736003717 5.175774883043308 7.004231395906694
Sn 9.117526294034683 7.56800016227963 5.519707277421652
Sn 7.026836466296017 3.428032498875282 7.5325107204998165
Sn 6.302538559223211 10.209671643316911 6.5876428408788525
Sn 2.084175920481966 7.490916693548118 8.782292424930995
Sn 9.740961323555124 5.365623427486262 7.865017258372827
Sn 5.211775444155401 8.389587591574307 8.937985960611005
Sn 3.9115020837140015 2.8009920762469274 8.7771620545442
Sn 1.4124721560362148 4.423866021958405 9.840757025493053
Sn 7.378773664461124 5.65971784931446 9.762924375025689
Sn 8.352746084290017 8.388074358247247 8.468287660657722
Sn 4.1738115991611515 5.624250824144948 10.148833819003407
