45
Energy = -158.80533141 eV
Sn 3.6309069170553836 11.207152171975979 0.9061303628174989
Sn 3.9576323362997985 1.3354607018844187 3.119493507370332
Sn 6.7679799412963995 5.04337659204517 8.220450935986369
Sn 2.0873942984574962 8.205046573688943 0.2974248930942873
Sn 10.91768845935456 3.0737277723228975 0.9281932822907494
Sn 6.893717838072943 9.442013396538352 5.194052047391692
Sn 2.8494399791659357 7.325715828008142 5.54497894973992
Sn 3.715368437433381 11.503299833323188 5.924674820693876
Sn 5.01110774912204 1.8345807766059146 0.02766440560781684
Sn 3.981765905607929 5.436786877643415 1.220379451379762
Sn 6.833223798663784 11.7711921272132 6.321055455071143
Sn 2.2577573813147813 3.183919214154246 0.11004677403283089
Sn 7.800738842287384 0.5935965517229747 3.344643165084996
Sn 0.26241145364589563 7.673262052031 2.7413105648177476
Sn 11.453552352502088 5.825118143676403 5.195247059542133
Sn 9.01903154351018 6.521251930868407 5.263316392719018
Sn 1.1744896306846722 1.0577872726996387 5.148574214409983
Sn 4.462133764715356 8.160325955095978 7.958825849508174
Sn 2.5315832477300746 5.785271557149621 10.5039312289162
Sn 1.7089395014501736 5.966214735773861 7.9996987970749664
Sn 1.0949444316837635 0.9687168651603077 2.1429212902903587
Sn 9.768520688559557 9.312263340222202 6.395449742466218
Sn 3.8649861718603775 7.89033984485797 2.8046589302072205
Sn 6.1104597532152924 3.3957648082418097 3.125204253862858
Sn 11.815721531585357 5.920531668380229 0.12428780308472788
Sn 7.455286239305574 8.418610290078774 8.067786652567845
Sn 4.903373303418217 2.3946448003288787 6.299799358726782
Sn 7.026122830049634 1.9944471930165744 8.63202955529598
Sn 10.698617437874475 3.0615564725365916 3.9531880715707532
Sn 9.398030400538426 8.90880484470054 3.4391870281164123
Sn 5.363160299279408 10.518253423194142 3.398366501813206
Sn 4.30588106633842 5.6821648943356395 9.810156632614362
Sn 4.447034734020222 0.5008000188875097 8.767293863766003
Sn 7.912280523454411 2.2276603193861235 0.7926816369209119
Sn 9.768520688559557 5.688290015498239 2.4874628255252107
Sn 6.933776952442826 5.173502466262179 0.7128295327762307
Sn 0.30213795516949415 3.135138827801902 7.1669360991857225
Sn 3.026296392096959 3.200943597648241 8.679234938290675
Sn 2.59117761950024 4.193423965413765 5.390654787085501
Sn 5.702399920824477 6.233081349900291 5.720988471095609
Sn 6.678015379957853 11.296863646048239 0.5727601241768444
Sn 7.855154282432846 2.7493664056862013 5.694731009365372
Sn 6.940203942213689 7.132314827715778 3.0562894247803793
Sn 9.547397187944625 6.2888379862452926 8.165676404287336
Sn 1.0907922846213782 4.685733459347299 2.721940561516888
