48
Energy = -169.47773274 eV
Sn 5.923448981351911 5.186184897205205 12.891203190666104
Sn 8.301168132343005 5.031216720763979 1.6502223615342937
Sn 5.0233943836359645 7.508701556187926 1.6734728982793068
Sn 5.191207696065193 2.5202565716882073 1.0288835160855425
Sn 0.9005684547793917 5.5480352068848875 0.37654926350298384
Sn 7.750919800155376 8.782199874714914 2.284402117209373
Sn 2.2322812796444786 3.0581719732924326 1.6840170424678123
Sn 2.048398894415541 8.189658789141172 1.3184685564167495
Sn 11.987341668614647 7.0313903815815575 2.1980017144289037
Sn 7.113810058157548 11.20432237245921 3.938355886903428
Sn 9.292375563524693 2.18121300728733 1.5498796454703616
Sn 10.074739966958857 6.999708277932303 3.0267726097251555
Sn 5.287218083876141 4.911934235457894 3.102017292723876
Sn 12.30712559279856 4.002594806121034 2.843648689651771
Sn 6.9602844145257805 0.4447934797115089 2.5072788140981936
Sn 4.536757947237452 2.155769509769081 4.097213902871218
Sn 1.3675334871413274 1.5155002247520797 4.165554578204237
Sn 8.879093437030543 9.099481009731543 5.253270632948175
Sn 7.411230070716557 6.3810110620520755 4.819926634942303
Sn 2.1196641688270264 5.791760544316926 3.3426472139030805
Sn 1.1035883239091098 8.686555967335943 4.125144350898285
Sn 11.189233926800553 2.9452972810302347 3.8432585899777147
Sn 9.459191830331529 0.16204235868557632 4.335524444617019
Sn 4.56671744544031 9.642440506213331 3.910584636458425
Sn 7.964186335301261 3.226480892463201 4.2064977858498604
Sn 11.98734166861465 0.7664256683364101 5.732257266728975
Sn 12.46669649922139 6.171840317359584 5.146529866827875
Sn 1.7392795437592818 0.8925265812922962 7.137343240410566
Sn 2.7215823921674915 3.7988233521149377 6.3213630295501195
Sn 10.134172078661623 5.26843029485162 5.654925820410068
Sn 4.460263231992211 7.520228527270663 6.098316317344686
Sn 12.510730192161569 3.1060196721072226 6.0170971417882315
Sn 2.630035663197485 10.402815066098869 6.108035140375951
Sn 6.844022899146168 0.9515604401729149 5.919640533438517
Sn 5.727230713581528 10.441845895819325 6.72696960211023
Sn 9.704746776178082 2.331787907198133 6.766898537612337
Sn 5.788398006279072 4.768937316191484 7.38173359747371
Sn 0.4831035725865615 5.215711785933738 8.154370323704628
Sn 4.357614999823415 1.6466270704228951 8.266336967942536
Sn 7.426479564987411 7.873299841171635 7.774452442836922
Sn 1.9711115177684377 7.962649982071358 7.824295848875486
Sn 1.8866602818394391 2.871510522353112 9.68538706195145
Sn 8.64124375714852 5.1401510402067245 8.62141374725068
Sn 7.277175309588392 2.3380531144018284 8.827354767380287
Sn 4.7744084837096965 8.614071238295887 9.144149122260258
Sn 3.4330195013552998 5.615451360304 9.375582708279595
Sn 4.763659729740657 3.216842151736473 10.850076093317274
Sn 6.212079177785077 6.0588058377226774 10.411660696175225
