49
Energy = -173.70126991 eV
Sn 1.0119530906036225 4.833401925633936 10.770857555962325
Sn 4.1118318671628185 4.075731069137481 11.416031752536782
Sn 3.023078290041763 7.058943039587621 11.418194218064421
Sn 1.7253854022015347 2.2783127580744105 12.533408748709203
Sn 5.671878306229008 6.401870361886853 0.437199858510049
Sn 5.67930682740503 3.4634472499529085 1.8477070433659184
Sn 11.84796759677762 4.152689204653116 0.6904088067192065
Sn 4.20326956324847 0.45731172646292884 1.840484352539713
Sn 0.10744647528556323 7.158695787201662 0.07095072510149837
Sn 8.609067842914447 5.54931961456911 1.6725748464613184
Sn 2.3484988644794536 4.946743558733542 1.2574943726093244
Sn 2.6414710713141476 7.921194504626814 2.0001362046901026
Sn 1.2327442272136313 0.679825142065392 2.9515395995310745
Sn 7.25358052441256 8.186434348126664 2.6056313258448967
Sn 4.788990751892818 5.95212176992104 3.3439951703910413
Sn 0.042964801280599554 3.4674233111536434 3.670005875307908
Sn 8.128604519563995 2.6717189447803578 3.7540079863621227
Sn 10.171037748977037 7.743417118807793 3.2781227989283077
Sn 3.4150494126364794 11.611411908230325 4.499020773923819
Sn 6.164918087162789 0.2998687034054198 4.316867989674059
Sn 12.151010152390036 6.5344478853715895 3.0624615203969903
Sn 10.57275955904466 4.725525335195881 4.036587606329945
Sn 3.5847607184851356 2.3234904125285634 4.241628527440454
Sn 1.2039146880832037 8.263290002077062 5.0516942116303785
Sn 10.661143491588973 7.008823404749793 6.389688187996232
Sn 4.584361463312089 0.591062468145021 6.935661022977406
Sn 7.748955110577644 5.93305853086081 4.71066872569719
Sn 0.14656908759897705 6.378296953653804 7.22170372855818
Sn 8.251766247728574 8.83496397627244 5.649855563942782
Sn 2.8719565197768677 8.852434721183668 7.87012830909184
Sn 2.0853701049700106 5.358197728066776 4.777498200954723
Sn 4.347689445615124 8.489253833470224 5.1117679665066555
Sn 1.6086453001554402 1.0054678757569062 6.224467126278493
Sn 6.020403066450456 3.2723677180345496 5.988315110529935
Sn 5.948754962986242 9.410538949262198 7.820229541146559
Sn 4.892029879150391 6.321578801312161 7.252904952552632
Sn 11.13920128989134 3.8339531243543337 7.072727141519919
Sn 8.800369355324904 1.8337582390556855 6.833662215874269
Sn 8.21889303303147 4.829896295422524 7.731004836739237
Sn 12.140694917475876 3.5044839040194637 6.642516035279544
Sn 8.459979282234613 7.722161557633867 8.847280313156633
Sn 2.129151267881625 6.43645991630154 9.45533198136897
Sn 2.554867670096627 4.037913636963047 7.43458961120488
Sn 5.129801433958623 7.514564162994119 10.089504762039104
Sn 6.87296201602835 2.3233623556617684 9.29209881075164
Sn 10.831041392808924 5.72993594846989 9.546748219203714
Sn 9.843555055884242 2.852131495355867 9.843945709473472
Sn 4.6880881848169595 4.486008350344541 9.87500329206853
Sn 7.910560478464834 5.107250126510747 10.770857555962328
