52
Energy = -184.39484637 eV
Sn 6.495362202814075 2.316624606680495 11.669742862919945
Sn 5.4273289445319834 12.046784446992639 0.27106042656042323
Sn 3.598383253878643 2.2602018492373355 0.6079463122789718
Sn 2.4722200551806117 6.317668937625715 0.7760440527332445
Sn 7.364524027952593 7.581671174579187 1.0236596342826436
Sn 5.282766033307743 5.185113004143958 0.28890836052512836
Sn 4.584122717681693 8.593748906336772 12.43363684617668
Sn 0.9735063621239337 3.7000443454108582 1.8948752242323887
Sn 3.654450582774364 12.100694420609397 2.8987159753892087
Sn 8.733495418251382 3.4270938616514015 1.1629599799376635
Sn 8.520283112842161 0.27875238139402003 0.6629184929689753
Sn 2.1087633815286675 6.788522626207081 4.154429347230499
Sn 6.182883347636749 1.9311333362903753 2.3535812225138937
Sn 6.857590783538818 11.31053656961297 3.0146606818611787
Sn 7.528629595166193 9.917894207849919 3.2957974689890257
Sn 11.800664547998437 4.682297761550633 4.407365915675512
Sn 7.348638776857032 11.240160224832236 6.149118615103867
Sn 5.037721734117078 7.8634548603607275 3.0853543760913906
Sn 4.938148709069769 10.945011112741946 1.9521627890154363
Sn 9.447704266062631 7.0929788190541245 3.3399103329892204
Sn 3.769886370135564 4.388117635064802 2.9906885419800133
Sn 1.1724716655637892 1.5387392496958625 3.984496339482133
Sn 6.964973489636455 5.160344842079034 3.09793385068506
Sn 2.3743059820121877 9.164955684899745 2.1384200646841873
Sn 9.918496903626524 4.153155162833432 4.189617416881519
Sn 4.086245664772187 1.8391112083898753 4.97787581341371
Sn 5.068757333637157 11.240160224832236 5.670695851943691
Sn 7.097378755640093 2.9188427387168305 5.249487065469094
Sn 2.0228939666484522 9.461214676941752 6.2551721824159054
Sn 1.6432353090725145 4.10225170665077 6.556551097431517
Sn 4.709505899352173 10.379681464726783 4.931193677231512
Sn 6.931636845514279 6.794500488232367 5.787620781894104
Sn 3.9643657730735855 7.142631708230253 6.654128670590089
Sn 9.211005288532936 8.800995044839995 5.830010396033572
Sn 9.32877383960954 1.1516057624911593 3.551161225214855
Sn 11.34022290085375 1.9743733253364906 6.027368487776167
Sn 7.473332722268808 2.4294404649129775 8.537149463984454
Sn 5.039874660307279 4.156523676149758 7.32180976313607
Sn 8.819615088102077 4.7529485384901955 7.10778333597245
Sn 7.80184603926822 0.044497624217967116 6.034313324730418
Sn 0.08688715390283165 6.954682100290795 6.643618134726773
Sn 10.594256477014726 4.652825343449305 7.297444181814204
Sn 1.7603023190389144 0.7968182843322756 7.00907786765213
Sn 8.4342593549169 7.412887970170729 8.58165094987344
Sn 3.3543276883757702 9.07272806516399 8.989866846923253
Sn 6.687457817012842 5.165065499369788 9.829059375311722
Sn 6.0969267849542295 9.148609142044455 7.896605084232652
Sn 4.796966748964728 0.9012857259505138 7.885702851534226
Sn 0.7148193767086386 5.59632401975541 9.267195283892303
Sn 3.8078557599682243 6.140398283886837 9.620883807842226
Sn 12.333939801497047 2.6145406316247333 8.978469641211708
Sn 2.888368554733483 3.0217364410992187 9.426748223418908
