52
Energy = -184.5605014 eV
Sn 7.088112917435828 2.0506940167211325 12.312128113917296
Sn 5.802829391318107 4.902064214689381 12.40305006709587
Sn 8.887632384974426 4.675629924650988 0.18170949438896267
Sn 5.909470861984919 7.558934987478731 1.5768085485691665
Sn 2.939291352536645 8.402822438466208 1.4017224829809312
Sn 2.88851623513501 5.2389570837157695 1.9056708285327613
Sn 9.129027764174856 6.832997855974819 2.3991641404326534
Sn 4.416654471981704 2.4380120981779143 1.0888447127947871
Sn 9.366449473401001 2.213971700601199 1.9746675320600375
Sn 0.35710501950603346 7.47868501031801 2.728062773627473
Sn 6.70242029625519 0.6718879261337029 2.3370226800904264
Sn 0.2429186112760124 4.448155922998192 3.1372943086831246
Sn 6.897160290184938 3.9128534164821684 2.4587828739513515
Sn 8.095221752499922 9.54833497887114 1.3843712540431496
Sn 10.735934561729914 4.600403362578681 4.195685699636137
Sn 6.841161138968045 6.56863693642594 4.377076789465255
Sn 2.2642137614024063 10.995799347827809 3.541808719066111
Sn 5.081242453785 10.658272456782914 1.9145594651010627
Sn 1.7563732127432858 1.8771798327232536 4.349724482346128
Sn 4.244673986839118 4.957235446040762 4.523631953774801
Sn 4.008101926521403 8.52200405223052 4.416135999367267
Sn 10.113968177677677 8.535464083270751 4.748813181109446
Sn 9.464764251689454 1.869889726067344 5.328622922429975
Sn 0.5381265299350791 9.067541312371072 5.268577690331282
Sn 4.808680740913617 1.9950095995991544 4.443083038380234
Sn 1.5358339606658928 6.070829903704938 5.4237041463358535
Sn 5.054366134119665 11.752853119442007 4.955730144756086
Sn 8.51990620669215 4.635414960746233 6.368739079123197
Sn 11.095114066055332 6.402407742710469 6.668712365950309
Sn 12.363977125482693 3.4311792232253056 6.134887550282272
Sn 2.74293326728744 10.605361108208157 6.721884694350554
Sn 11.64383050160648 3.3323278709045736 6.9872214723622
Sn 7.2228561872656005 9.777983866096008 4.249356641790974
Sn 2.775923989122164 3.2996003715430677 7.054470143715096
Sn 6.737148168507058 1.4452278370938216 6.829391088683515
Sn 3.239637263287249 0.16511037456578148 6.8213764164410895
Sn 4.652422860472129 7.034989782191082 7.211507284703938
Sn 5.594211606062088 11.752853119442008 8.222227902425358
Sn 7.936101239753664 7.9112345990388935 6.884847309937411
Sn 1.6955780014957427 7.802785163492108 7.962390227473018
Sn 5.663452132448896 4.069898527814964 7.889064783769434
Sn 0.3142788903159091 0.41069159387356724 6.842747999546988
Sn 5.641472647383267 9.871407449762478 7.644822281046366
Sn 9.793581235674644 5.293646449824153 9.198216186949322
Sn 0.6101941150089338 4.380628784663375 8.975092648091428
Sn 9.152726092641696 2.4374761829778455 8.512521013136835
Sn 4.66945021479181 8.220533830457486 10.211465786926144
Sn 4.494318765689314 1.2982581779574056 9.782987718558605
Sn 1.5626762787670236 1.5478813155988729 9.366516395404544
Sn 3.2650484496801084 5.563466772510947 9.702703377600754
Sn 6.923795815708754 6.421932522253985 9.540136964957771
Sn 5.3496856664174715 3.8731540659738255 10.92801618362483
