53
Energy = -188.0316946 eV
Sn 7.035506625700915 2.8996028020446647 12.575249929817506
Sn 5.37945576047393 7.288605377662663 12.4982192155598
Sn 8.38846163406099 5.775368674837659 13.045444460093448
Sn 4.321567993924465 4.505547218379763 11.656872470640891
Sn 4.061993986772232 2.540457219214009 0.5834932818341999
Sn 2.7026225931732566 5.883624006888932 0.3593796421742425
Sn 9.119232884400818 3.2830577147501416 1.526805797659262
Sn 6.644951707600115 1.4235253972419672 1.994668623917119
Sn 9.16154268344907 6.100602594621957 2.824154297244235
Sn 5.896450744673827 4.98617971322419 1.3656303288405611
Sn 7.177125187692163 8.143435429088667 1.6277486987255716
Sn 4.065384987196259 8.22197547201013 1.8073772806495463
Sn 1.4777194737713981 2.691614601355492 2.380543411563898
Sn 0.4559020939062279 5.507218409170652 2.610221254882773
Sn 7.349669050927231 1.150484426775127 5.88717235176128
Sn 3.475648832040229 5.286218020638661 3.449499406091612
Sn 9.733650774545536 1.726657773876485 4.186899927511434
Sn 10.410570163099862 4.173717445795904 5.781296241705322
Sn 1.8484240692278573 7.7928508956550155 4.195405127280731
Sn 11.48953475644007 6.74247061110636 4.7921546603270455
Sn 4.531432168252095 2.4540062686297235 4.031466651742311
Sn 7.498111013658017 9.97140805133745 4.6445372104642795
Sn 7.368838166543378 3.8672012297617018 4.145488986435057
Sn 6.100092584765841 7.066723829885651 4.363864931722601
Sn 8.933254237861593 7.643177696174041 6.019833800896482
Sn 4.374367229537103 9.8280748862993 4.7084948187001565
Sn 4.575809930883718 13.355561150561195 6.0639498555749185
Sn 7.57632146645211 2.3463236668002034 8.61929081477755
Sn 1.917253525387315 0.6167871074529556 4.561958094620312
Sn 12.261597069367832 5.9890147743916335 7.721723537657018
Sn 1.3229962492448073 3.4426598349562996 5.596578806917507
Sn 4.721503423044971 2.988445932654233 7.1670086508490805
Sn 9.711676463971223 7.102819818609294 8.912168404279482
Sn 5.659781734231152 8.513327719132313 7.333437829722467
Sn 7.651854829974163 5.0937397379265335 7.182397487961451
Sn 10.387072163711032 3.905377166298822 8.738582656786004
Sn 0.8896891949506393 8.198145946388275 6.991062719082079
Sn 12.66398212231063 5.734462166956384 5.642060486380221
Sn 8.25050186118544 10.090583035112914 8.139186182548917
Sn 3.1291923879804147 10.449450104068347 7.58441310752042
Sn 5.130520060454117 2.8507244780439076 10.265512190336635
Sn 2.8662238052384814 5.8211861342161555 6.713048198105207
Sn 5.980184198194772 11.733784284542157 6.709440994091204
Sn 6.824371150554995 8.275231942183353 10.435712050177814
Sn 3.446939918370473 0.621149191411061 8.80204151847468
Sn 0.6720743926489392 0.9064194398934082 7.369751658184934
Sn 12.261597069367832 3.3894379134350645 7.631896119262342
Sn 5.407514568171424 10.92550656513613 9.676481612471557
Sn 7.864164186570974 5.195075508784172 10.396718916242582
Sn 3.657879971622179 8.382700564883026 9.889904583981865
Sn 1.9272752059784353 3.3113935018106035 9.020099015388372
Sn 5.1088377898562465 5.777797226333264 8.919969595174814
Sn 0.32745180206286145 5.897005718287821 8.782629140255255
