51
Energy = -180.44383875 eV
Sn 8.68037063337439 6.67967532394238 10.366616328516796
Sn 4.990235064389369 0.7542917637367311 10.075877037650386
Sn 7.060156939700024 3.1826036018422013 10.139957155509077
Sn 2.677900328227425 2.722193674215582 9.962559984336602
Sn 5.980476702555391 8.028023681802551 9.893654791753482
Sn 2.4626805768886935 12.896863726950393 8.141681768079458
Sn 9.42836051911938 4.307975024746675 8.627749535642037
Sn 4.367797267231989 5.351413703762055 9.907944640791392
Sn 7.3674785633280475 1.1023169778536803 7.760461924289417
Sn 9.581988818054993 7.679947104629924 7.739742638068753
Sn 6.442455172941826 10.647965973151052 8.232400363303968
Sn 1.5056208969979665 6.145609036052394 8.926172407650258
Sn 3.061585728447444 8.791696197322183 9.44016194283011
Sn 4.6829309297332316 2.6123361057063286 7.534710515190212
Sn 5.447534038336882 11.60777871848743 8.010091259742055
Sn 1.2840768893609549 2.7685084137104057 7.2503640355904695
Sn 6.696230740048805 5.564705689711276 7.978317151068176
Sn 10.575689470264779 5.3120125509172675 5.753570604649072
Sn 4.950888654904082 8.23757479643456 6.834724786509404
Sn 7.7600849389626685 3.6251791849544177 5.684756764998115
Sn 3.3732106087661315 11.213188239176446 5.780680738585922
Sn 3.4939599893055466 5.374278149614261 6.6430902170994335
Sn 8.796109040533953 10.128541886396679 6.1565664136241365
Sn 5.7341963730739245 0.14416416008822971 5.219421960061419
Sn 1.7654321287545773 8.576802288493948 6.676863100941957
Sn 2.7284630193564956 1.0237447338342525 5.052761099629968
Sn 9.880514003396591 3.9517874586311104 2.7551733303875108
Sn 11.287121224870159 8.269080497583253 5.32076906818123
Sn 7.883098984097148 7.034603520471746 5.217710379866792
Sn 3.376047336204666 11.213188239176446 7.4977354595110475
Sn 0.3855970641841338 5.468736140075833 6.11148153752792
Sn 0.7811521232487545 2.9978760503400235 4.085218520793623
Sn 5.197685672950438 7.600845797612987 3.3188867947865868
Sn 5.6355383230072285 10.858081437983385 5.335728644565947
Sn 6.967096751310899 4.925607127351651 2.3105598654350312
Sn 5.0408211585451 3.1819644063845614 4.2205083388092275
Sn 0.5929219957587138 8.995367924198233 3.9331491466359045
Sn 7.742481992510596 1.6543268683701475 3.157542320878431
Sn 8.106535309075229 9.508572045056027 3.2554302045027117
Sn 8.992800181414829 5.851372121848172 0.08180146106272439
Sn 10.004634570916343 7.1090337817006715 2.8359763274990026
Sn 2.4098796042035904 6.547765800757123 3.8752716334139152
Sn 2.693433014328625 11.18073624066689 4.34291132233237
Sn 3.705171048933885 6.376855301552768 0.41376730806262113
Sn 2.766322473016891 8.990249922476377 1.789447147139155
Sn 6.497791431831774 7.610002833964139 0.5505740804960952
Sn 2.950211097684367 4.076116921483575 2.2470481801176643
Sn 5.233437970527791 10.628037650396681 2.353270229451494
Sn 6.177659209569883 4.67792659883439 12.206741587297056
Sn 5.490462600680784 2.357096590429608 1.136144754910005
Sn 8.560777667548368 2.773432268048161 0.21381690752038066
