50
Energy = -177.10412557 eV
Sn 11.816574132182486 2.9232510279598025 3.3144425099138934
Sn 9.948592901508807 4.791877562514357 1.7714840920548076
Sn 9.075587186685182 1.7270636170250842 2.0831424755358934
Sn 10.949943249724528 5.604322570682053 4.756110797499814
Sn 10.301448928950562 0.6539387693772443 4.705709568933797
Sn 7.170008524225693 7.168268353388486 1.0686568286487645
Sn 3.9388280789446553 2.8633844353189475 1.2616316292708152
Sn 6.857791291488426 4.0505235535710336 1.794137796579622
Sn 9.337272793062043 7.790598174736294 3.1093405571320907
Sn 8.68229082449822 3.5124586052308997 4.566816699680004
Sn 11.23164275215022 3.06238671476073 6.490214627548282
Sn 5.809666243307254 1.1864729895233042 3.089610729346594
Sn 7.715280109407261 10.533631605062306 2.089886020935
Sn 2.655545321460772 5.463684866653541 2.2404496984113984
Sn 9.20361935709781 10.360991079038438 4.87361855651259
Sn 8.371066480657003 1.3149941412889636 6.985786094377608
Sn 0.8542172068270939 3.01118614490793 2.103399782827346
Sn 4.246778563249189 7.832699999288196 1.5299307666706323
Sn 9.833772995274785 5.926522856468742 7.933450962327366
Sn 6.234069860511902 6.430990466670316 3.8555412765289625
Sn 2.728579478723033 0.9302684568107538 3.470940677392414
Sn 5.038654110546976 12.004922512191602 2.3600807507656105
Sn 7.123248992871625 12.633603481909388 4.482654187560718
Sn 4.465616280542954 3.815633904918864 4.316337813136699
Sn 8.117890587208207 7.591404688072167 6.062258904542478
Sn 9.396587925277698 3.1104591686173806 9.101766346346922
Sn 2.779262773534517 10.050406434814331 3.0387875894450844
Sn 5.8223942824530734 9.572813917906737 4.220584958443388
Sn 7.352992707751808 6.476321965384581 9.845238141153677
Sn 3.2674330987558893 7.2295333024647945 4.637364250690586
Sn 6.807801345657547 10.628143804749289 6.989840213994707
Sn 7.058561474801937 4.3983376630567586 7.304871643528504
Sn 4.150515944331698 11.911409682724717 5.491464984394612
Sn 5.4807043834472875 1.3855824198482611 6.11838060815384
Sn 1.3299237100542955 3.5291174544948385 5.0088434537771365
Sn 2.1022052163740166 0.9635682270334616 6.562149202091739
Sn 5.430796462354294 7.5031477000732565 7.671862477465517
Sn 6.539079871349081 3.3651622888536497 10.28320342323067
Sn 1.843328268403387 9.552915178151848 5.990103469257214
Sn 3.497128163764553 5.223234457054646 7.144624014845788
Sn 4.982577412806296 8.35664561490621 10.7105592321749
Sn 3.924185652779007 10.155737513519774 8.213595095359862
Sn 5.9671595591013915 5.570629612423809 12.315251123265023
Sn 0.5704237510232832 5.851574440293168 6.932039847145895
Sn 3.81051129477317 5.417720040528805 10.311617974102049
Sn 4.125783827093602 2.6508422618092324 8.55113207025779
Sn 11.816574132182486 2.5993123952499646 7.360880681550498
Sn 1.518707564067072 1.438771999801087 9.527354897987625
Sn 2.23478379690182 7.665094865477784 8.946270577070196
Sn 0.8849093567110181 4.395184681454614 9.58526461453246
