50
Energy = -176.95304048 eV
Sn 1.1035771508917547 7.613781019507668 2.376751980059061
Sn 2.03181777832759 10.102422426994721 4.437938343974405
Sn 3.883895865498387 12.329589970674565 3.2650554752212027
Sn 3.498188480224581 9.683526433868412 1.6863121134037393
Sn 0.2969250628594929 6.09845805437457 4.924336949842149
Sn 2.1915408037997097 7.2508524645883154 6.988136446486055
Sn 1.2099314367233749 4.534755275731158 2.287033366702398
Sn 2.332310855665723 3.964390654156706 7.220300176601501
Sn 4.023114233621036 11.69146574870809 6.313471748985868
Sn 6.401630642526967 10.951247669060928 1.9373516256501213
Sn 3.746676072941726 6.3383247885476015 1.0579525164764492
Sn 3.4088620920661254 6.380305156060371 4.1259619591626056
Sn 0.983867629431734 1.554433831539626 2.833658754903583
Sn 12.354457114051371 3.017777113003225 5.339803337172425
Sn 4.980833014890708 9.265428230628888 4.440158239568355
Sn 2.3929180649178505 5.878557096653831 9.751929494126196
Sn 6.717086799791008 11.96942864018189 4.865906011386336
Sn 3.3501402966750202 3.283224268354082 4.1885837800736745
Sn 6.515798567115996 7.78070250407936 2.061409336452156
Sn 5.294825516306522 6.668805967313785 7.159984723912129
Sn 2.0475584628892656 2.881115383932067 10.211813745504095
Sn 3.895399331044564 9.32523508371295 8.298351998784307
Sn 4.984049123484795 3.572323974519417 1.494129928315413
Sn 0.5997549654045579 1.4214487191618779 7.93686668667793
Sn 5.423330977439275 3.336483396415663 6.696707627646666
Sn 7.571687844785486 6.633539384362336 4.844367602102197
Sn 5.1547064397814655 7.1816093882423075 10.242447393854004
Sn 6.7924128769703245 9.437984958142843 6.937892391399205
Sn 8.578474848916645 9.474177933594259 4.080819538854664
Sn 6.914845595746266 3.5551339322675894 3.8691894392430077
Sn 4.061831128946999 0.8520280720341135 2.4158882516858875
Sn 8.72265890949976 5.5259826144994975 2.008140239408536
Sn 7.8731287554824405 2.9001226449940436 0.9171907280072374
Sn 3.722638619305676 1.0227597621539815 8.247989257188172
Sn 2.2422993225465064 0.4395813166093457 5.473474766325381
Sn 4.93571599691869 3.9525773554313957 9.604019291076531
Sn 8.31185335685473 4.656872045958856 7.45907591268264
Sn 10.014919814427955 4.1232900838909075 4.570138981147107
Sn 7.572248594940192 4.936272667610987 10.705042592414046
Sn 8.087824926485805 7.506723839761775 9.10740893835647
Sn 9.994175346764528 7.9515678394447376 6.576108720599578
Sn 5.389942584230276 0.42171937855160474 5.511529846484354
Sn 10.861218949713223 6.904554702532624 3.6919306609698963
Sn 7.180432462950077 0.5820813263333127 2.7344748221446005
Sn 7.747223847876421 1.4889710601190105 7.692667737480807
Sn 9.635168010990741 2.8708475441354033 9.81694989398045
Sn 10.860631093019261 5.942773934412243 8.994768011891637
Sn 11.154268580712266 3.309112489028767 7.3182000147157265
Sn 12.35445711405137 5.984971388610476 6.234020458504388
Sn 8.948006369253042 1.3412820839425466 4.978079042404535
