5
Energy = -13.10619035 eV
Sn 10.84036012966001 9.889412881229454 8.324064728351681
Sn 8.299394899427957 9.079483784845696 8.880862417675868
Sn 8.203802602895816 5.25504329515598 5.661187635801417
Sn 6.882235413912973 6.918033585577416 7.363443286908381
Sn 5.553479082060728 8.49763134754735 9.307260059614835
