54
Energy = -191.116866 eV
Sn 2.4833458088378086 5.29360719492 10.605371093217355
Sn 6.855499533610494 6.410934367767343 11.30517700570478
Sn 6.494089294541567 3.3905153594592456 11.556268461188994
Sn 4.224245059732155 6.924263674388083 0.42190417892392695
Sn 0.5357737000066143 0.48852550674533995 12.030936013923046
Sn 3.471024563448542 0.5087238167839976 0.3725706994967805
Sn 8.320003409906683 7.99698875520439 1.379668270623147
Sn 0.5157130367629501 3.5756703609175493 12.084374380867525
Sn 1.1718213709244636 6.627259397615251 0.9740448126231595
Sn 3.7563137468632273 3.5783522755543125 0.545498686574997
Sn 3.441840725340702 9.73525561113744 1.0408781421785072
Sn 7.943829350810959 0.8445663633156686 12.179980648166719
Sn 9.158727986818606 3.0046150559377973 1.6159610205154122
Sn 5.911066424414388 11.306797943191492 1.4037940452681799
Sn 7.066541488907607 5.266428874779769 1.978304601464441
Sn 6.064217629826925 9.680945709883535 2.3819320790876626
Sn 1.5603996448678175 11.293515894709516 2.3317362639944617
Sn 10.300495331936299 3.655117974932815 1.6689172967760988
Sn 2.972944465364505 7.985437467604587 3.377412236251248
Sn 11.931938628698386 1.4196784844593608 2.872297406627947
Sn 6.170701234330276 2.1114798930439966 2.356096180742976
Sn 1.16385824025462 4.228896148249782 2.9006721483553557
Sn 0.22987204701375796 7.956557834521241 4.6552729390726535
Sn 2.9531393545690654 1.7194786035839695 3.2621932963807416
Sn 9.509648625372042 6.580096279321621 3.8688059010884057
Sn 8.813834316924758 1.5355745595150454 4.20492545296476
Sn 4.247322678080614 5.1721773016572445 3.2092409889629905
Sn 6.491667157876875 11.778238328859944 4.402936841888701
Sn 3.580457156579109 11.889101602730975 5.594883620350005
Sn 10.863924336453257 5.4662648835701795 4.002518022252914
Sn 6.432584638150052 7.4107182352690115 4.320457551194588
Sn 7.774174288084969 4.4130808343857355 5.123661323494021
Sn 0.34905063545754034 0.6283186050326415 5.779463087225235
Sn 11.549224046064037 3.517280879659574 6.128504145150105
Sn 10.300495331936299 3.069171490569542 6.2836522164238495
Sn 1.693625263842454 5.8847139318888075 6.203535730193851
Sn 5.530599887025143 2.2880689638687253 6.102262602230867
Sn 6.451872190425974 10.335176702028578 5.371554426836308
Sn 8.62507264514724 8.235081745211117 6.296842964989025
Sn 2.4831181485989493 2.7544792857757217 6.5207224358051805
Sn 3.8687059141611466 8.871298674935026 6.161219802396189
Sn 8.257434529176331 1.413547212474245 7.515935594604225
Sn 4.76856062130978 5.659446908219447 6.525153479399064
Sn 1.194409327418545 8.792082175831116 7.457598758461727
Sn 6.432732976472825 11.273146845058827 7.380238440131503
Sn 12.133432637343063 4.97071987552381 8.720450121288227
Sn 3.8513781135430127 0.4902105493949227 8.519527797081254
Sn 8.057758879149052 5.481037360189562 7.858964721247644
Sn 6.114170091564007 8.167301906716737 8.060617352142033
Sn 0.12841714429581266 1.8714686947241577 8.664360272286528
Sn 2.5214340721230806 6.591758778681053 9.163917564248147
Sn 6.106423959446664 2.482241072697497 9.195968722928642
Sn 2.658324165186657 3.427170390239165 9.542928046912701
Sn 5.374010510352616 5.408679722613992 9.577757815501402
