54
Energy = -191.9222914 eV
Sn 1.7374967391768181 4.11251757274909 7.06607553844679
Sn 2.8135486067000683 1.3726363802226134 6.249546658967949
Sn 11.789961789383378 4.960414524311646 7.127792105907809
Sn 5.2142729451904986 0.8800874891023862 4.054028894731559
Sn 6.445108491508462 12.70195021303606 6.568244077836267
Sn 0.3107933608710696 5.330661195534282 9.842287740181812
Sn 1.9332892353045656 2.521380253694592 9.726518200802222
Sn 2.973412937180589 3.8031947605616674 4.041170010016116
Sn 1.1029077267727527 5.662409442146317 1.4356231960254549
Sn 2.597663306921089 4.826797354904002 11.808131680317562
Sn 4.364117909435084 0.6709438015572515 8.796019056197016
Sn 0.0678281574795348 4.907697247051102 4.145815126973309
Sn 11.927112501033099 7.538795160055303 5.443489225237806
Sn 3.7627586883364783 6.1853734547288015 5.762144594510017
Sn 5.404334100065274 2.8626567951878177 6.551156642102274
Sn 8.560536937413023 0.45996053156855676 3.956079968379954
Sn 1.791010516286999 8.675566391353568 1.103902464698977
Sn 1.2141401887443422 7.19754241765083 7.451609556351522
Sn 4.927915221653611 2.9706986228287375 10.836765110678808
Sn 3.640639495133723 4.036753293476905 0.8003540353056854
Sn 2.585644013223426 7.479764785673259 10.223326332398363
Sn 9.468824771513004 0.3225976344474642 6.948426018441595
Sn 6.879443358190467 3.215043197136938 3.3800258555817604
Sn 4.109602231959773 5.146999664446236 8.959433226980236
Sn 1.7218457408266683 7.656570671846972 4.045069687107511
Sn 2.794707780105497 6.518095017095601 11.975919896008111
Sn 7.36912653925297 1.9778091513921852 8.70652679963534
Sn 3.822073548295298 11.054145087344779 6.192612805816733
Sn 6.806646220323882 6.086597420702345 10.346126205095457
Sn 4.446459141340744 8.419897728633288 7.763624732896059
Sn 9.337064444826478 4.210236344667814 9.977766519753153
Sn 4.289075618212739 6.695227590976052 2.1668686889677766
Sn 11.409131576632053 2.6860496581176823 7.610764840538154
Sn 5.753867641309752 5.9298340625113095 12.357311781393253
Sn 11.645424409764802 1.1813112851800356 4.748438703178295
Sn 7.81604106254315 5.345377163939892 7.531128303886126
Sn 9.024524503910431 3.142097359126921 5.630037974988777
Sn 10.28537736091964 2.7765951979849035 2.5822367393889545
Sn 6.931437734498655 6.177554707598461 4.147867366874211
Sn 8.162160665988988 4.523339201883625 1.0196351973988067
Sn 5.985281162212489 9.192820629507635 4.8007019640251265
Sn 5.938093746746192 12.575486996663505 4.42756298306564
Sn 3.8687286831789676 10.637128489308129 3.099721025697863
Sn 6.801632951084151 11.241077689742472 7.117538328627906
Sn 9.584190716969921 7.345764479172943 9.9175755394044
Sn 11.021510341501402 5.864707982614744 7.701677327615272
Sn 11.789961789383378 4.291850642540091 4.864994910197584
Sn 4.700889706203672 8.925520999482535 0.04841342377448693
Sn 6.837509456092398 10.664019177716423 2.145803832533291
Sn 9.878065557761321 6.118667701420278 3.084367382092191
Sn 7.421221668668081 8.394239450047959 8.190144084624992
Sn 7.508396106773641 7.584386677819678 1.436777571641875
Sn 9.266136709134082 7.598003573754971 5.809255160861685
Sn 8.575630746018863 10.839611147429732 4.696016626908775
