52
Energy = -184.15291752 eV
Sn 3.365084431632196 4.051697750110934 9.180742159784081
Sn 4.285769164399512 0.05847313128334909 2.506144821030694
Sn 7.255499297351044 4.035280149085005 4.243049538102148
Sn 5.8501575542881366 7.401384356285621 9.627795567551942
Sn 9.101968675662826 12.275830118312191 6.241257804719774
Sn 6.584207526819308 4.396322001102441 9.674996151776849
Sn 7.9665379504485845 5.663949957264782 1.686206209361135
Sn 0.062519005287 1.0148203557583535 5.802878942014588
Sn 2.7027075593539585 8.003449299165332 2.845410071700297
Sn 2.844293168657615 7.020936420338719 8.668933059226458
Sn 12.287033529552193 10.072085029764146 2.81352008029561
Sn 10.3837135396868 4.56245229887271 3.665148685322699
Sn 5.390829812327775 1.211527096131349 9.64291791939477
Sn 11.724131223696542 7.205194250693794 3.973162504075525
Sn 1.8003652064692974 10.125589291136892 0.2942036872223672
Sn 1.0698039736403078 1.441776561871875 2.9060580090475754
Sn 9.088989721663436 7.0289131299153205 8.79611317214391
Sn 5.186166893586916 4.908201440241113 0.8060329984795918
Sn 0.6680261450021049 3.787501662514655 7.125007233829628
Sn 3.6225387178990713 3.0787520125233576 5.866082104694943
Sn 0.28045138015413046 6.911364643253634 6.985352899345701
Sn 0.19913369893819038 7.464022737645904 0.8870798675345252
Sn 7.477853910759693 9.458926334233196 7.756710975899635
Sn 2.07366898341668 5.535304962311867 4.918689944514893
Sn 7.655594417958356 11.642442503556039 8.840724945503943
Sn 3.7396801643118835 3.1158260462647367 2.847319667801234
Sn 11.245359405655694 5.977392828421219 6.583945161329991
Sn 10.782264765772101 2.7770778261870186 6.324405499393631
Sn 5.15343788312244 5.394162947682099 7.070413926485382
Sn 5.524079586049802 6.489778220360764 3.477111762235425
Sn 6.559102776343685 1.968665525609944 2.140866575765006
Sn 8.795593230860643 2.129651430345948 8.821618057774314
Sn 7.750611639557795 8.608974635201001 2.1919750644629175
Sn 1.6366005546961597 9.306757683435036 5.333540816969494
Sn 1.1299035016703316 4.655777804101413 2.1494851512852517
Sn 3.245560100043866 7.245012973278919 12.289762895768787
Sn 6.468338437388546 11.789943310903158 4.679150208481196
Sn 4.854564728345569 9.634841632762852 1.0791261702648356
Sn 10.627185932655967 7.696470583935845 4.012815799280947
Sn 9.337545428313645 1.712226880103428 3.6786342167725463
Sn 10.552218077287561 9.018829923876885 6.7884743321778105
Sn 8.319612560646425 4.599860180815733 6.996510150697369
Sn 2.899679528169407 11.244075352473097 2.9957841484533683
Sn 2.916731848402237 12.279918824291123 5.172762995300759
Sn 5.545967456227671 9.85604764203641 4.250665342968124
Sn 4.723955531140913 8.34326141669888 6.773966918511661
Sn 2.6225966892833 1.155265604370895 8.057669613720392
Sn 11.66191306072193 3.6909161089444154 4.359214561358211
Sn 8.615219559905123 10.280674759715934 4.645164080062162
Sn 4.911744632759894 11.244075352473097 7.4599485077015775
Sn 6.3656407731041 1.6133514009507246 6.765292352468673
Sn 7.936424886467707 7.314245222960613 5.498033513472672
