53
Energy = -188.16500707 eV
Sn 4.8639501388809485 2.0032016336524476 0.4341067617812164
Sn 2.461361085576646 3.203270216501997 11.073104425552515
Sn 4.899815460590015 4.965574921474706 12.367099051271849
Sn 2.1343124543056335 6.154795221709544 11.629518958557757
Sn 0.3913923024531308 1.1977633426612628 12.444493180878293
Sn 4.7073130726276196 8.073974455475994 0.06601558348047276
Sn 5.278144496799249 12.336402632688724 3.573769170057349
Sn 7.720013627325177 6.562108657893358 0.056444810850908904
Sn 7.733186129267114 9.368493319013195 1.3595979338668713
Sn 12.515332257308353 4.225927691519913 0.22265131007822342
Sn 2.433331450174826 9.210279470819174 1.833518349806786
Sn 5.226719693546788 3.396340672367722 3.827009569941215
Sn 2.255281064603665 3.0152014218690626 1.8650205492631295
Sn 4.141500219352386 6.160966800624309 2.5664239005184
Sn 7.221019979726444 1.7606393428428184 2.308733400753413
Sn 0.1095917830305261 0.7874436074864939 2.906890650296313
Sn 5.166369088351834 9.077050403980541 3.262348334811292
Sn 2.806343322266584 12.390001130752086 0.8379769314976186
Sn 10.411318044525807 7.466458137323663 1.5215971002581934
Sn 2.797042633712314 1.3523044793272139 4.4867077865343665
Sn 7.463108633760368 6.825271454614297 3.158997059784968
Sn 11.280176262207997 6.457880071029004 3.8563171506660607
Sn 6.04457896156363 11.28530837125548 6.357584354224162
Sn 9.198160631787685 4.597947171872183 2.020204106419588
Sn 1.207932571015508 6.468211875714561 2.0712813452043073
Sn 9.53367350063346 9.200332830771725 3.9067285637352787
Sn 11.01090153885697 3.381985226419993 3.4016467844180793
Sn 10.318178549511886 6.245374682849447 4.416313034208957
Sn 2.691993914193245 10.947108527001857 3.470297912639197
Sn 0.584705053001879 7.578587805982364 5.924725968902634
Sn 8.482592345779786 3.2698828940212064 5.0206574893366165
Sn 3.6133789061971493 6.975848367362837 5.616875315807976
Sn 8.756813075016538 0.15765442719035305 6.07326897305156
Sn 0.8606848033777417 4.347097431457085 5.128588942612884
Sn 10.411318044525807 4.671642833765089 6.21342268782471
Sn 6.412973653602313 5.417556939692401 5.803529668175185
Sn 2.3332191651876464 9.75477250162839 4.766772367361568
Sn 5.108862598366936 9.628727217817206 6.322064029879895
Sn 6.130478947112349 1.7482608297414792 6.815981092006114
Sn 11.377626284175909 1.787280400803558 6.040830185083133
Sn 7.781588173729682 8.112121294902629 6.1436758540921685
Sn 0.6542610560261302 11.880313516726808 5.629262797399723
Sn 3.811172081778 4.049108226103228 7.008966407573262
Sn 8.97589272051295 5.473347755122385 7.4673147156319715
Sn 4.46658661015729 0.008537826182517642 8.719093321084564
Sn 8.842627584084244 2.270770962936066 8.335760477525477
Sn 12.529330534856047 3.735875988386213 8.222692450637165
Sn 7.612222842429326 12.018720456835084 8.86930979646564
Sn 4.477014369302958 7.62015540864146 8.637577924242128
Sn 1.9694651083458918 1.4895818921929467 7.3725406368582895
Sn 6.142446493541086 5.084379376811625 8.770722076337
Sn 6.266724716443078 2.137746507839573 9.968513112719613
Sn 1.9154024620291001 6.203841863880574 8.221880015275802
