50
Energy = -177.57901149 eV
Sn 3.320963879658513 3.625287927655891 11.969146741672345
Sn 4.316861471500247 0.624317037347737 12.605353775963609
Sn 6.376312408385336 2.938231772110053 12.164865775392503
Sn 4.457590659276733 6.502447753572548 13.452995758805594
Sn 6.681209346362686 5.8108173852025296 1.4321460278679015
Sn 13.29763583692632 3.582893797230786 0.872794739765368
Sn 2.008002814443041 1.8904505162020644 0.29857768678668994
Sn 2.660001044576235 8.882967043555974 0.5709953735644258
Sn 4.820015166568901 3.3020246415670615 0.823009068529838
Sn 1.947376606844321 5.130378764078213 0.527911260613179
Sn 8.523076034851577 3.4896515908348897 0.7321080852001328
Sn 6.980626493904964 0.7506565017761947 0.34037449313655677
Sn 5.802987495694831 9.08711879901439 1.0461286848517415
Sn 1.3722398120557475 8.91797666985285 3.391907639033033
Sn 12.865137422042126 1.7141711702958649 3.4004218654243283
Sn 7.118859232952301 2.4632780387468967 3.258606550532778
Sn 9.627092082638574 4.36520719389217 3.753928386357431
Sn 1.8945689611833931 3.6662155243230536 3.242952937391468
Sn 4.375602113484146 0.4370192742356843 1.895484437485301
Sn 3.8322691366088293 10.83642908978274 2.697700861798482
Sn 12.600925675561841 4.8867086215547095 3.4713184643705493
Sn 1.732402485579789 0.6539049567096694 3.7641238116063014
Sn 4.017468680762071 7.477767791641881 3.0040286931874753
Sn 5.875415072238124 0.12085683794101126 4.915585139863403
Sn 9.372499242652685 1.5802459539218199 5.381925174124044
Sn 8.066147380944257 4.280566313450292 6.617034618358142
Sn 13.793733305244627 1.299060574180937 6.420164623027487
Sn 1.0786850168196251 6.1856468870263175 4.770161221994384
Sn 11.26878660753805 3.1395175819518286 5.603216379635789
Sn 7.380059410108201 6.5945250640693605 4.287979440764216
Sn 11.268786607538054 4.008207471812486 6.332796309172749
Sn 6.264858932916055 9.49117801281103 4.094327796982772
Sn 4.907359573284676 4.5359200304273175 3.9556042716514446
Sn 12.175646701058936 6.064451533619998 6.323898057033252
Sn 3.5295840334633244 9.358963570641135 5.533072993612402
Sn 9.928526878674559 6.73598709827902 5.956361428503575
Sn 13.103941559573789 3.722379220496704 8.167132918547809
Sn 4.85557278309141 6.635976079091219 6.239623879268104
Sn 3.1700613955360515 0.37133656197278586 6.37523751536961
Sn 1.9729286406365443 3.5712021124343685 6.6547439051882
Sn 5.293574395010185 2.6754422814790004 6.599477775622902
Sn 7.817135153463231 4.7611360531853455 9.735446182227241
Sn 9.593152174715591 2.435914785127441 8.496356306635208
Sn 3.202344778962918 1.7544471227785206 9.087420116873865
Sn 0.8689879535009492 6.453910917508227 7.753226247114269
Sn 7.475147709807058 7.124833161608652 7.784279945924064
Sn 7.4655439771751775 0.3381096680385899 7.531222578055289
Sn 1.9311448465144208 4.418235161676022 9.768579242004698
Sn 4.789695822609976 4.854783692315536 8.739635744608501
Sn 6.1993316950774355 2.127436149076089 9.607192113411847
