55
Energy = -194.41020449 eV
Sn 7.155766672036329 8.142021275897841 7.5678630758084875
Sn 1.3059369119355453 2.6307940680716015 5.027607250792452
Sn 6.17993612106439 1.7517018059460443 9.972267352805872
Sn 1.0764621002616386 7.120187577244994 8.840640599317032
Sn 6.822393844284981 5.84829512697325 3.7413749951967805
Sn 7.460689033682103 4.464751699836076 9.112142911008135
Sn 7.046367267466356 11.166591129069104 6.3827079117916
Sn 6.747300893993151 8.814798154799163 4.370183052840126
Sn 9.24237305570156 10.686008380605386 8.325948198251593
Sn 6.569810360235901 3.827362699589497 6.023248311595575
Sn 6.758145912762101 1.4340721679917396 3.9924768798742045
Sn 3.6804532995092423 7.59840876527936 10.921704757250714
Sn 1.6515919512971031 3.847712881282028 8.477851389539062
Sn 9.785285818194959 6.434023875257356 3.3619022629204816
Sn 1.6567420496554073 5.325279945052728 11.25199026437594
Sn 6.816964133505869 0.6410991839424851 7.026773861926671
Sn 9.062166698593012 3.4258996314825274 3.1470172083443724
Sn 10.5954772931653 3.6965656460057588 8.852287595977803
Sn 4.09512237885364 6.102251889017447 7.710333478736827
Sn 1.0397649419841883 6.8966120923122585 2.7286551159428094
Sn 9.272604620543692 0.6997394428693554 8.846524015544095
Sn 3.340103314363776 9.102485247682818 8.36215409993365
Sn 0.5420827436735841 3.897889610946377 2.2997487592697032
Sn 6.035171292515289 10.547706989958202 9.215613111497984
Sn 4.103449269175496 2.4679952401629377 7.118458576076531
Sn 3.5009842449289157 5.344032156676776 1.2889255816312715
Sn 10.188718635322452 7.68968542403895 8.411398358500133
Sn 9.25905355593431 5.321179861399777 6.427101632855227
Sn 9.672811708572228 4.969600598027206 0.48082390058501867
Sn 2.2651550241362997 5.572742114993382 12.486915717486312
Sn 9.593791507910211 9.204400396883056 5.691865312750091
Sn 4.668470549200875 8.100593753722373 1.8122872085352295
Sn 1.8504253533348074 8.08044640606755 0.09838467623054842
Sn 9.435182687837505 2.2641955128486697 6.2285088435935005
Sn 2.335454826701788 9.795399384619897 2.782144217672465
Sn 2.262174181903934 2.787158383598892 13.950333942367886
Sn 3.7222544967271527 6.846194668026322 4.63547951536701
Sn 4.897400666398775 1.5490791784486448 1.4614963094649518
Sn 4.777272975472476 7.379817172671967 12.856185199081203
Sn 3.938132043444528 9.77568606949756 5.467054451003811
Sn 1.9990004593196702 1.0559134160359545 2.4626638606544926
Sn 4.968322077485357 4.031051166948761 12.760225769258783
Sn 4.061699704015413 3.455148540332311 3.8356769748727704
Sn 7.81364124945138 7.4863649262882515 1.1401296657231657
Sn 7.508129281014983 5.870392665065963 12.655086504445505
Sn 3.853582687698253 0.3750209118636395 4.735672222315965
Sn 6.749854250558216 4.219869466267326 1.2286994530623174
Sn 9.484003796502307 5.749552112381103 11.098924592292487
Sn 1.240015373205999 5.597661023327473 6.074281184883812
Sn 4.3227456170435685 4.337904691761308 10.230789019139898
Sn 8.233388138653579 8.85990470361307 10.599039210288915
Sn 0.9565203830660118 8.525917485042608 5.356140042917528
Sn 6.491615124208314 6.473339272174986 11.289723898743397
Sn 8.987430657827021 2.54847894046654 11.252173619081994
Sn 6.468550028517226 3.7109583344818184 12.486915717486312
