50
Energy = -176.39119155 eV
Sn 4.407319820057167 5.9421927291170835 11.095765108769681
Sn 7.813206361446109 0.9969240568600648 12.461130378122272
Sn 1.6797885308573037 2.064634044848319 12.115556439866022
Sn 1.5809556685806665 5.067303561498903 11.753074054587303
Sn 4.683346425683546 1.0678236220174009 11.53118690697782
Sn 5.337507771552893 8.13762368981853 0.23524935788374252
Sn 6.471367394032727 3.743801032788782 11.67084036193746
Sn 12.321435158146418 4.751275925247262 1.504931455312358
Sn 11.747301093686426 1.6892373508900211 1.2985705409768569
Sn 5.97069605024707 11.219536264832861 12.67326512531644
Sn 3.145260153411029 12.200037568010528 1.185081208090689
Sn 3.8797334470537144 4.082745520347273 0.7808106565720998
Sn 0.08051084383837197 7.873278521118436 2.711139258417336
Sn 2.9712889244990452 8.74762532973574 2.0294858731977707
Sn 8.051325834897455 12.479774465320926 2.595868459728618
Sn 7.418759506805601 8.574074506565402 4.460189377659005
Sn 10.45269747567423 4.311932298618116 2.462618730797127
Sn 7.997504445243441 7.60363043883651 1.6101354133050163
Sn 1.8331069206080883 2.477141593749589 2.553808736614721
Sn 2.2004549479280398 5.666329823043394 2.957561601642187
Sn 5.565784479239849 1.3317903437176042 1.8559844779398695
Sn 5.415129398703312 6.6176221590930515 2.884149089663411
Sn 7.602312645131791 4.502407093970886 1.7077279928202844
Sn 11.618845523193896 5.7418434203528514 4.507895274836484
Sn 12.500872319617171 0.5197446739958521 4.0983505488232845
Sn 8.923466989070036 5.916214423680197 4.480430618831096
Sn 5.2569307821002385 3.7004129752341965 3.923055089913443
Sn 10.45269747567423 3.0458666084788395 3.776499831466062
Sn 6.336240549960727 1.0867206227872406 5.486884083054661
Sn 3.378598240831807 0.5089910910050472 4.277465745371459
Sn 7.217274166123382 12.541567142408642 8.033769265049104
Sn 5.44612657393485 11.005947205754984 3.075965496489931
Sn 1.2815852097350329 8.853120238135855 5.483301230913294
Sn 0.812245552613105 3.4751882812842902 5.326261066326281
Sn 5.91727402587905 6.968227424290017 6.819977028274038
Sn 7.191104832469255 4.216230395227373 6.265761447815083
Sn 4.293227848197817 9.002236466391798 4.738114293010173
Sn 8.73907894853456 2.5498171150620026 4.074981492745031
Sn 11.216924582508206 1.6946614749504947 6.621988909797722
Sn 3.0986569918289026 6.2240760798325265 5.909737100808058
Sn 3.6204110722753797 3.0378538768391055 6.607574602167787
Sn 11.577334758516296 4.80953632900897 7.463850020487437
Sn 4.408999762578033 0.5995696193413257 8.349004306799687
Sn 1.5551839087405757 0.34728003492612075 6.918630165639991
Sn 1.070472305573101 7.09334124923505 7.966106829788403
Sn 3.6060298216182534 9.14875565425217 7.659997504353282
Sn 6.912835240408107 2.706466757857053 8.818990768068598
Sn 1.0246737998367472 2.9488759902192063 8.465619332460026
Sn 3.812879272573811 6.33253820278385 9.009494965427862
Sn 4.036146725325238 3.3409290062390467 9.639072952126268
