55
Energy = -195.18309578 eV
Sn 1.9759655487264178 5.484130334405131 3.004659212646887
Sn 11.797654812139085 7.4121829670308195 6.333863244282828
Sn 8.987194138096376 4.358657630395796 8.176421100941011
Sn 5.020787488447499 0.6898145648828987 5.333208226536635
Sn 9.069580329990877 7.585728218435751 7.73956415916992
Sn 5.258975126803576 4.13448589921695 11.725581736780075
Sn 6.895031522077584 7.142261409746294 3.5341743439337896
Sn 6.506467647167041 9.20081986744826 12.503500339242715
Sn 9.953243403785663 1.9719885573790605 5.668550616100028
Sn 3.5032673460347215 5.804824599176829 5.7929056081881205
Sn 4.820487612500462 5.318064045926674 2.548410151056509
Sn 5.309475350297641 4.276900856755977 8.59213488812472
Sn 0.6710531000729675 9.063507114181647 8.937096604256077
Sn 0.8682120529019456 7.109829765728184 6.593775872216891
Sn 2.7128988443153803 4.936109883088007 10.102680720170206
Sn 7.267708806366672 11.91846504440858 3.819023089301248
Sn 4.355939788339886 11.738962413426359 3.343237515224411
Sn 11.394303707829899 9.49500583506946 4.000825395148066
Sn 4.257774535678126 11.833711325335013 6.395484953173306
Sn 7.621525152006926 0.7388024554596024 7.075479290024669
Sn 8.579133836795618 9.572905511966752 5.338589434068246
Sn 7.217702932663283 2.246611247538802 9.952054258172778
Sn 4.748921051319029 1.185664344857979 8.392885432960574
Sn 5.741455581129594 8.972153570470473 7.5384168475782225
Sn 12.068217994269864 4.346547852234855 7.399970002721146
Sn 9.981824180121025 5.138410532979454 5.258861844532611
Sn 3.2856475047566933 10.556455112030228 9.132520207201125
Sn 6.954280373077609 6.8419159933279445 10.230333697107637
Sn 6.574020843414769 6.0591995577704525 6.397132200605895
Sn 8.676649437979725 4.682781529194695 11.625398958014655
Sn 4.315673923560701 7.298481064355484 11.657487352053954
Sn 3.2767715053631314 7.515621863603574 8.616692856773462
Sn 13.595464241839721 6.818804797904615 8.611871675327574
Sn 11.042842078642469 11.10584092380946 6.556315965862931
Sn 10.236696458068817 12.494054918310338 3.8286964574784723
Sn 9.221256878773422 7.730391133638005 12.356473691116998
Sn 8.476643679396231 9.627797378979121 9.923440758712587
Sn 8.367499839231213 12.450755241747286 6.5466995587919
Sn 5.962843457430137 9.527446650551221 1.9214856148017292
Sn 6.961364832124296 3.199535408126716 5.274328040001212
Sn 6.190584956520826 11.628873492515346 8.817854217552412
Sn 5.876175954991111 2.2501599214643626 2.427227861947305
Sn 2.6432471919801004 3.1833263220664105 7.504392759380013
Sn 10.902971679261643 6.100024278333404 9.828046807127475
Sn 8.978156243727009 2.887036709715064 2.86807386865737
Sn 9.048964363135036 10.054800761185946 2.1419394074541076
Sn 6.72002193847973 6.325982766796425 13.558045727354973
Sn 7.29882455994999 4.644676971259702 0.9874346406743276
Sn 4.592399472552706 9.063438039297326 4.795375653340254
Sn 11.520617277001545 9.15612202828913 9.069535254871143
Sn 9.50042242754011 6.217713685202711 2.452229216906978
Sn 1.5042924447253203 10.383160346066735 6.343886837151137
Sn 3.0829780547286014 2.9907492287114934 4.4099731250456395
Sn 7.771468653702264 0.15669117800203566 3.990055437518033
Sn 1.844735551892047 8.379934563923362 4.034014978342721
