53
Energy = -187.9531942 eV
Sn 11.767752465049808 10.05975075478277 4.112769861765251
Sn 11.745668452442091 9.074311504667625 7.089857502817429
Sn 11.006268594784267 7.197610932113473 4.809999519615061
Sn 10.181064784594135 11.599650975662467 6.208637383377962
Sn 9.073474984590776 9.99882828251972 8.734410128425028
Sn 9.895613325182007 8.390142362161145 2.203022499790197
Sn 9.856820582574407 4.409555114306733 7.615469278215949
Sn 8.297587389209692 6.872933342598818 9.757566215035586
Sn 10.806629731623852 4.228026849296846 4.7459283471489035
Sn 8.807706037065225 7.669912965141015 6.827691474536714
Sn 8.769632403700083 10.965649176431416 3.550799600149373
Sn 7.316944375062352 10.284522071848395 6.19753889039814
Sn 9.114173995887706 5.26587633312952 2.4576750841740664
Sn 5.910324069934966 9.471444368528797 9.97098767968969
Sn 7.377918208966972 5.146856148737232 12.134989543213315
Sn 10.108824633168815 1.372412480606506 8.702182998106766
Sn 9.215854488370686 3.8572835490851873 10.478059957918935
Sn 5.696546964115871 6.805816200142017 11.552155724284496
Sn 7.666010511087986 5.093170212833974 5.213542330757115
Sn 5.566119871474537 6.433918437021783 8.393966596141532
Sn 7.245766062862396 2.5746058186338696 3.2646917499576658
Sn 8.70783868313219 1.740838452962753 5.994089549071195
Sn 7.291679041505317 8.070018326335271 3.862518289069095
Sn 4.091025657170557 9.223887040011453 4.115193379927297
Sn 6.158121956322476 7.8287133635416195 0.7428488781858203
Sn 4.618045717499389 9.13222712913885 7.188437210516881
Sn 7.057177616913533 3.1020776036009283 8.324748765513087
Sn 4.371367451225294 6.411958471022909 5.240726560110225
Sn 3.3299121778001495 8.775497883295095 11.612402712355259
Sn 4.180911352720327 5.521867227574058 11.838412209521513
Sn 3.2625971848216397 5.527278931324563 10.516126298908572
Sn 5.501619543399084 2.8689555529139623 0.6949104819738372
Sn 6.085460805462913 0.09288170555865097 5.005449301008525
Sn 7.131305463105203 12.184451811542123 7.99297146640101
Sn 3.3228816616713104 7.540182433172389 1.792376295417454
Sn 5.672397505448111 5.35749757502237 2.4696200372135
Sn 3.023358452246808 10.645850442993726 9.22171702542756
Sn 7.825419882955412 1.1229645646645996 10.739893953737404
Sn 2.253693163353277 7.682348856786857 8.772155747449272
Sn 4.898734516547757 2.9181991117107837 5.240506842238189
Sn 1.3101301190207923 8.385785192451161 4.903402258066969
Sn 4.8994887017762645 1.2613052477347804 9.767108942510779
Sn 3.0107081099377284 1.5997639294536525 3.2759039676575212
Sn 3.834228885951864 0.5202931976987025 7.001639100172146
Sn 0.4585189512448061 9.736666333992298 7.4067915628498
Sn 3.9488465213289743 3.635191837081796 8.001844648114364
Sn 0.9745758244577872 5.883303876769909 1.0313372752490482
Sn 2.417818975504125 3.089392289012872 0.6550811325534619
Sn 1.7487258694954197 5.331658501266424 6.364920309526274
Sn 12.052799832249958 6.143172647947839 3.9439066953275868
Sn 2.456380115299442 4.633801619116596 3.412230827186148
Sn 11.767752465049808 6.949127736436256 7.177137380494608
Sn 1.4997405997130797 2.2923219906318266 5.789030676464093
