55
Energy = -194.80719968 eV
Sn 7.874045813962023 8.37001917894635 7.647174387043378
Sn 3.044366201987647 3.8175031310676966 6.877103806502871
Sn 8.431833744234318 3.546889134497189 11.207038500257847
Sn 2.0589776976618426 8.694597312271236 9.340332986948274
Sn 8.991490966394291 7.576627927282577 4.607501065187803
Sn 8.91585870701366 6.670740325319952 10.694272230297205
Sn 8.652035184065772 12.670309876477855 8.394108736038145
Sn 8.062737632163673 11.222973196012697 5.70147067595547
Sn 10.992199721950977 11.314685862447472 9.876444320318821
Sn 7.92900908603463 5.181864097143122 7.904218097297074
Sn 8.210856092441658 3.335422623011513 5.377444921423124
Sn 4.759223801678037 9.77439815675878 10.732081528752751
Sn 2.472975099304858 5.489221397055405 9.498578886605994
Sn 11.899437947234969 8.922005613997706 4.522601695489546
Sn 3.441409477823801 7.22759954098741 11.816502600726214
Sn 7.868538803798016 2.0241502869859835 8.643459109543828
Sn 11.613769730656003 5.763861352720164 4.181124647050168
Sn 11.511015569427583 4.823269975474977 10.540328593553346
Sn 5.135645324253087 7.310845044619544 9.126534724622955
Sn 1.8818415856569886 7.629344668477317 3.8590773445149096
Sn 10.729705583992935 1.80470389004445 10.217782435907706
Sn 5.909334990574362 11.389688498957023 8.31058107284688
Sn 2.650799996080561 4.719265172756548 3.9202915081917427
Sn 8.240332840525816 10.040653077858005 10.261520609593338
Sn 5.397226500540989 4.2173409435930855 9.406104022256887
Sn 4.936649374619264 6.983816337820159 3.180399520197991
Sn 11.481843765659143 8.204593104349682 9.790011289897553
Sn 10.784291656083482 6.720785326661322 7.092871877927263
Sn 10.994287653109321 7.61104831103106 1.850767747374801
Sn 2.357582423984069 6.259146029532226 0.9742490630628048
Sn 10.497223227328 10.029311228558765 7.2259895246978845
Sn 5.744406986954691 10.557609325582211 2.9704039960932507
Sn 3.0804675279536835 9.453744133580532 1.683511570600109
Sn 10.490775656511955 3.5263305685773725 7.63472979135279
Sn 2.8954694336842466 11.068643010297619 4.224506976430252
Sn 2.7626476250370158 3.211814131964489 1.250572373072827
Sn 5.5590552744514765 9.224802478229929 5.708752488269344
Sn 5.8310314966244405 3.5720390269584956 3.143685182944265
Sn 5.275354424042725 8.001050183566 0.13484369371001295
Sn 5.350534504070305 12.5904661330896 5.448949303498001
Sn 3.427960069952286 1.8234880479565028 3.8754314715949807
Sn 5.177113728487504 5.064779468656794 0.5615255130137785
Sn 5.679369327031381 5.306103822331002 5.843973862538539
Sn 9.519722649733955 10.207103449375776 3.0453417954265105
Sn 7.95109135361634 7.8191143043248985 1.7094036041932177
Sn 5.513302195856993 2.1247406423117896 6.180336779783
Sn 9.011494461936634 5.127900631250018 2.704121707740956
Sn 10.762691322233 6.06710828721387 13.387175426863832
Sn 3.1695600350088675 7.216977750787301 6.785190964276827
Sn 6.082289877908632 5.6474305854545825 12.023141473531673
Sn 10.32857227024937 9.179902330136358 12.435119469333959
Sn 3.170027761099083 10.560977688415448 7.149431015128039
Sn 7.991106127630848 7.449322331483439 13.55559736768374
Sn 10.785741446380232 2.9677076840675882 13.093729206248392
Sn 8.194719009746285 4.3652141281143475 14.153608203031624
