54
Energy = -191.52057888 eV
Sn 3.197792050243739 6.427229991274812 10.8203827188453
Sn 4.188833147800182 3.4517137974421424 10.738838032723612
Sn 1.1383121121703306 4.148256456085277 11.152090182049044
Sn 6.143937510068647 5.68490332666272 11.919965270453092
Sn 2.4151344633202454 1.551689802986829 12.575363180739934
Sn 7.439197245431916 3.5607371609300373 1.267048250102448
Sn 1.1510124999704294 6.562215242074358 0.6219585019404473
Sn 8.965488054661005 6.757382714332219 1.2919110423618012
Sn 4.1922242098098845 7.935649509022886 0.6597286263319074
Sn 3.4018373882743473 4.450807827669241 0.9273115828152366
Sn 5.151994841129162 1.2793204779981755 1.4731932780567398
Sn 7.449670506309723 8.753798487861209 3.11508077611934
Sn 0.3492382097685419 3.4000044736774133 1.4350965745772664
Sn 6.091876273997522 6.14583902156087 2.3705034405461194
Sn 10.31499091502059 4.385848895608141 2.802028003452943
Sn 2.051117975700885 9.18779046867674 2.6518294128172197
Sn 2.3671485388849294 1.7406802296357244 3.1838748099701246
Sn 7.75604866262157 1.4969029180006994 3.5153752966637617
Sn 1.261841792577635 4.71571282401473 4.090490845539732
Sn 3.4628954406276993 6.766691036744763 3.794669032895444
Sn 4.977046349433408 3.510656978019506 3.5907613013765443
Sn 4.625163994533392 9.694617941608023 4.276865010252283
Sn 10.4749006730911 7.3961762377341875 3.930044657564971
Sn 5.070240218469818 12.51213918826238 4.269701986300982
Sn 0.8369255471182593 2.6231059027901686 6.2797858116377885
Sn 8.139386409937924 8.897109363233467 6.062408173500633
Sn 10.195656190581115 0.10846875262867473 6.9129790222349685
Sn 10.629210884492977 7.272410967730273 7.101206236752676
Sn 5.520164048397968 7.120250623891669 6.0680279831252
Sn 12.077551640381007 5.830070636460281 7.199774561157813
Sn 9.820350439152765 2.618855706396843 5.389588879780358
Sn 6.088194471406609 2.3520469961555692 6.144037200149434
Sn 11.88823077567278 4.982013093529492 5.433100194140228
Sn 1.836416127679202 10.15696936831503 5.814169915699367
Sn 8.360217484363913 5.451777813853271 5.349370664059793
Sn 3.382996898318366 0.8410561334718406 6.724341437048911
Sn 12.517232320075184 7.7440919824255285 4.749201874613112
Sn 2.2381681608492525 7.1635364770314505 6.813713423115594
Sn 5.097214714831596 10.120662925826117 7.214650634208495
Sn 0.9465467906513029 3.739511958885687 9.1389319990693
Sn 7.949028078878516 6.856252617163252 8.510931581692711
Sn 3.438747256353991 4.0370828721949685 7.110684981151028
Sn 5.557648304003738 12.238883311229229 8.816090671718175
Sn 7.357208954672094 12.018261898413513 6.2790176912981055
Sn 9.929253053052744 4.289688319105194 7.969325485591374
Sn 8.140304900500338 1.487408104497862 8.616215954010444
Sn 12.201893518042496 8.91471954979316 7.6671771334215215
Sn 2.2984069224914223 9.815384075669002 8.865843084333827
Sn 6.017119628838501 2.1465371055181386 10.738838032723613
Sn 3.275922358754706 1.5202872239022074 9.713622018060885
Sn 4.573251763956231 7.595031551626955 8.9379782811395
Sn 6.474248471661186 4.205754896836387 8.507374393859156
Sn 1.1301886832429449 6.917994497962855 9.706471980337527
Sn 3.66757700225846 4.6412151401124655 10.160333684537816
