53
Energy = -187.39607284 eV
Sn 4.06569845295577 0.794818951965545 2.0120206549004847
Sn 2.3953117019804058 2.8603358251709343 0.42447511288239925
Sn 0.7362504379476615 3.0834886170700506 3.0702072729247316
Sn 5.368092132904321 3.1817802888615923 0.4321303550725761
Sn 6.243790884922608 11.677717518855347 5.541715334734972
Sn 6.711958488317698 1.9093404432871073 3.1763102099984226
Sn 2.6294680860141932 1.2244079186136743 4.593063630321462
Sn 9.077769419367643 3.388801490817061 1.8490065998891785
Sn 8.841386436231165 1.549241965487741 5.541531360011002
Sn 7.175564201469984 1.0495696415262146 8.19917535513822
Sn 3.8371202118561953 3.8057510914905435 3.241410623608859
Sn 4.824745122094018 7.4338361123743155 0.4057637949531149
Sn 2.2970130091884395 5.816234192731904 1.230264181591057
Sn 3.9016353943817763 1.096350323119289 7.300993438793525
Sn 11.276591704321499 5.377512646382577 4.59995329346547
Sn 7.384241779382452 5.379001442330251 0.01147128513862752
Sn 0.37259354501905617 2.7792967242821756 6.24539560782179
Sn 8.26062643971014 4.598779226911595 4.664088383890039
Sn 9.184059610776261 6.733296060102096 2.031962311011451
Sn 6.121746713024666 5.938632647030604 2.807504599077122
Sn 8.019552057237139 4.086131635364912 8.051226172195364
Sn 5.739666949562967 3.0525976942878166 5.955844271494143
Sn 10.247354056970407 1.7979569599515601 8.329345595345377
Sn 2.3285528489621017 5.243446861556699 5.984096828314285
Sn 11.160027662295045 4.985660744135459 3.498494887172153
Sn 1.685508259532832 3.641808682894689 8.77072744539233
Sn 10.85779833607747 4.210027937638065 6.624494483336297
Sn 6.32350052563568 10.025153959659212 1.2247883911121533
Sn 0.2947366231704827 7.82228405279965 2.835366570546485
Sn 11.39479485124492 5.635735412844403 7.855635813937163
Sn 5.075113196639903 3.2186425500025786 9.778419970949999
Sn 10.506558229228455 7.498438078890941 5.2660558569561
Sn 3.3419238568969036 7.887193355858816 3.2501674527552247
Sn 7.324326480229632 8.747770794512434 3.7458395229273407
Sn 5.1057941442783195 7.490610282237822 5.593553792077321
Sn 3.2868473643851974 10.224820808585081 1.2999978738993727
Sn 7.8334700490914875 3.835677218307557 11.178289693641497
Sn 10.65742902583589 4.411222646010689 10.095127314984987
Sn 3.0448395046884587 5.182004276050873 11.068172880102054
Sn 4.732439851568595 5.765848858480739 8.308751522502865
Sn 7.9818809524086465 7.025151937158512 6.844881598241861
Sn 0.673069468975845 7.910022345400531 5.971496730337638
Sn 11.276591704321499 6.806285023575575 8.195820030833852
Sn 1.6592429212695896 10.458012731855408 4.012097267689798
Sn 4.828328811029142 10.756658899069931 3.9565489597719132
Sn 9.10809926695814 10.218937771323633 5.657454256652594
Sn 6.263653598075513 10.170408476333934 6.900568110387525
Sn 2.085880983225442 7.164985710043284 8.798224374087924
Sn 5.876995173447873 6.181734624773481 11.483216688159144
Sn 8.870568228620938 6.843713578070448 10.710710610212656
Sn 3.11414431327989 9.714852598173604 6.716026916979291
Sn 6.355416469185268 8.28323066012384 9.352008788881792
Sn 9.28417969163804 9.214992282016146 8.644614454328623
