52
Energy = -184.72456181 eV
Sn 5.429210465468083 5.39165459025352 10.335699842171904
Sn 3.5517043288585097 3.2708210209372006 11.455442543230294
Sn 2.971995194311427 6.554089937835609 11.949929334364288
Sn 7.651477365653206 5.384438731329802 0.11385782813927833
Sn 5.78563492768413 7.750741309730731 12.332571609776874
Sn 6.324925822131564 2.6840523726191745 0.13662818695105455
Sn 3.5294942817044745 1.908457810332198 1.9621270362540324
Sn 3.3739008982924354 9.121727984565219 1.5171471144164979
Sn 10.010378488253213 5.941100012515984 1.7053519539539106
Sn 4.8477582137857755 5.033105085147405 1.7069282024018422
Sn 1.7497822948641488 4.3970777505010865 1.6141720406320743
Sn 1.4107443714560737 7.3262530780576345 2.991204254593042
Sn 8.361657850899167 7.9187031510085 3.1498486079684547
Sn 8.65867894599673 3.567196652987891 3.1118012434923292
Sn 6.366296042717142 1.328105798327636 3.0098901523584516
Sn 6.2332054339802205 9.86909978506839 2.3685734341814593
Sn 4.978454173513952 3.357421532278552 4.733384726906573
Sn 4.445372230865532 0.2693208861309579 5.451555870037607
Sn 1.9887802563252368 2.2596079147067907 4.74693101024847
Sn 4.591224678063227 7.464939946693228 3.9414129011113364
Sn 0.0026943694518480957 4.7639456009607475 4.4484596821915625
Sn 8.49594395650173 12.103441865143543 4.689673945021484
Sn 2.2902235492238603 9.810087849620622 4.692757046997759
Sn 9.579432464787876 7.956939865763128 5.867917849043199
Sn 7.422824388579158 5.7003488540812155 4.990179525329497
Sn 10.665001672898214 5.172407288586219 5.003936615565739
Sn 3.2965627020050663 8.121959334268816 7.359942397123744
Sn 10.864826747072943 1.8653646725398532 4.698187124357051
Sn 6.961228815240906 8.447749671908756 7.2920603970884805
Sn 5.39034840876626 10.064105989293259 5.29933425073277
Sn 2.739171737884466 5.2743746461223004 5.72013463775772
Sn 0.23055187816597897 3.2633878892165273 7.103113304777168
Sn 0.8697252901212252 10.408359602775468 7.366286994578327
Sn 8.162991821761517 2.5026663781393097 6.217842335616045
Sn 5.49295961353034 5.724039424566583 7.5362013227944304
Sn 0.23321543389961594 7.657607934379446 5.917784703785038
Sn 5.31389242387318 2.2701466126511414 7.617835318047657
Sn 7.154689983490832 12.00942575232317 7.449413729128907
Sn 3.7941079484084317 11.242735968230408 7.737835709848622
Sn 10.965803744056785 3.1915451861768847 7.610828607842118
Sn 10.267815964101512 0.20074841916605843 7.3002605966583785
Sn 8.797148392962363 5.465179911834175 7.807446861769549
Sn 2.2674547195929318 1.1121061270205712 7.725031830370654
Sn 0.735598002484648 7.153895134031953 8.954294898331169
Sn 5.31146929181172 9.744685481769439 9.96546122323153
Sn 7.103840446390525 7.237965844270838 10.032055066659689
Sn 2.2039032294036014 9.583720422178875 10.079763309006468
Sn 8.605606917475097 1.8483931804636116 9.329742486288996
Sn 2.38356383848911 4.533590484922421 8.745287711065941
Sn 3.7944947853430597 2.4654771293887316 10.223208082840927
Sn 6.450067808811966 4.100711542025957 9.930211740845966
Sn 3.866082168122961 6.883253494948761 10.335699842171902
