54
Energy = -191.49852773 eV
Sn 5.858332281126561 9.685853950038899 4.908252408637216
Sn 7.334441943759819 9.769349364120899 7.662318268499938
Sn 5.128048361506152 9.413945734836394 1.7621436437319642
Sn 1.720506220114082 5.490699850200169 8.105009088440442
Sn 2.1697883221947736 7.61092633634561 10.274401202852756
Sn 3.483544270327336 7.451449905208199 3.488843842851489
Sn 7.076193699917872 0.7416716828222513 12.51410558227437
Sn 1.6203345781279221 5.855852237385056 1.4186259739724087
Sn 1.9807392798718073 4.460932540899023 4.4960815489379256
Sn 3.8138432248192426 6.708324508507625 6.321399645824365
Sn 1.9996227671851636 12.227677113831838 0.8765019460979065
Sn 3.797184617587634 4.399303475091447 9.949547946520928
Sn 0.8134799418581801 2.4728866290371347 0.12303924676617187
Sn 5.442316655243266 1.3976651767767774 4.252292921114366
Sn 4.872044688377876 12.143096252357033 1.7949378644542522
Sn 11.529366866384706 5.280041617647562 5.080642323715535
Sn 9.486848736421859 0.33339784368091596 6.055075256688827
Sn 7.41362051529499 2.835249288860646 2.1697530337411584
Sn 9.465651721488584 5.107197431312561 2.708984375999505
Sn 8.848991431876126 7.16804803379733 8.512096669801952
Sn 6.084404715402696 5.013238193290745 3.8139678906800225
Sn 5.015446761204231 3.869555331164994 6.886507818141884
Sn 6.753590362783725 2.242177114116773 10.147235276604189
Sn 4.5655287737648695 8.74748625252874 8.416687305384517
Sn 12.031564364323984 3.8320639770738194 2.5119799371867715
Sn 6.672142816722791 1.216576137210307 7.248641997884516
Sn 8.446474112153036 3.4893892187226156 5.786812515588431
Sn 6.8696935705878515 11.345179769494045 5.469118759998588
Sn 2.711716685841168 8.506946244676332 12.4803825326169
Sn 3.5208809831619305 2.565446328466777 1.9918162747996533
Sn 0.4139093310144151 8.148847065642185 7.5184097529784335
Sn 6.914515745950909 7.060854317771664 6.134872655850699
Sn 2.701825270869912 1.7060844958460717 5.86484211488329
Sn 7.980956518088013 12.414299845170698 2.869977576859821
Sn 3.861263712342987 1.6006734625319596 8.798089695016468
Sn 0.26667942059694316 3.2747216025623205 6.888770479164467
Sn 6.8167408181894835 5.005856895512782 9.03420625651892
Sn 2.0387329241972676 10.365093859410106 8.760454584397507
Sn 0.05174426362578282 8.456524012577184 1.433950006058671
Sn 10.18322685155701 2.0563413428376034 3.5919928814898605
Sn 0.6314660788456238 7.8468178067316625 4.403489132181476
Sn 9.388288651743462 1.8196793927441959 8.7199272528533
Sn 11.529366866384706 4.477187286121241 5.022924965928577
Sn 2.284015161630079 10.281953162155109 2.536605524265459
Sn 2.7878482187590037 9.80408107944097 5.870332178586003
Sn 5.172670158866821 6.96583774285813 10.756741391347006
Sn 3.158043015121656 4.252909219597658 11.783860859422767
Sn 4.755454589370277 6.257595892705778 1.0473195601720835
Sn 9.046027505383432 9.746727837881773 4.996847687235475
Sn 10.388267942754915 4.539271188338683 7.873397367691227
Sn 7.740822315371404 7.692197109394888 3.127217024660186
Sn 9.9717824793848 6.981896353790841 5.513028403595443
Sn 4.137343201056657 1.3061510353525494 11.751402697861248
Sn 0.9883731964429227 1.3333243769745187 3.2506907746270244
