54
Energy = -191.51004762 eV
Sn 10.41368524488978 4.612192963539434 9.35744467124581
Sn 12.146545277746673 2.751454822883693 7.445348901961604
Sn 11.450393618888814 3.647102565557212 4.650681518831382
Sn 11.289501899574992 5.897133045554286 6.74092501265285
Sn 9.747250037341685 8.808627650903663 6.903358953826266
Sn 7.742631541940059 6.255678496954473 10.193101464140527
Sn 9.354125659363675 1.7735096314011742 8.809994837288539
Sn 5.8472430299734635 8.170334897944626 11.534400282192598
Sn 7.785753050282083 9.193720519039488 9.300130536147067
Sn 9.469086143683276 9.320608834114617 3.8010734192680897
Sn 9.005050409083799 6.590243521937204 2.7067697477506916
Sn 6.513382263161088 4.020578027909185 8.445484801481257
Sn 8.62771555582301 4.156754984948102 0.9443954093344717
Sn 9.023948769316087 3.900208785850492 6.590116704517912
Sn 10.136786771024369 1.044023795131796 5.933390423248858
Sn 7.294675122388068 10.30447023071605 5.861018622812482
Sn 9.652174061285908 1.928885329534673 2.788914753356971
Sn 8.07837131596193 9.003971330203502 0.918068608962852
Sn 7.261081359036624 3.795988274149452 3.743786688944761
Sn 7.846803576536232 6.883439195357365 5.510478462236284
Sn 5.438943146210393 7.403254491906988 8.186907485689204
Sn 3.004475670700979 8.082210393145441 10.125650152505306
Sn 4.5765354681938035 5.460918057834207 10.698130494083621
Sn 6.770535873646357 12.633375962143205 7.279067544700092
Sn 4.952480294135789 10.331328218414843 9.280521923095307
Sn 7.118822497668229 11.111833478351816 2.806814899767822
Sn 4.2237718427930275 4.418435033005982 6.391087971708287
Sn 6.066071852242272 1.8268946551926815 5.95108509274385
Sn 5.552261595597753 8.367458124606902 4.208446724115142
Sn 6.130065036882768 1.1963460486555477 9.563369623517211
Sn 6.940172959836451 0.6639571156251267 3.188468958015219
Sn 5.951823528498943 2.57827269574083 1.0375699038800499
Sn 3.4408711456469767 2.971850266900006 9.11432979889389
Sn 4.975200386238121 9.189954351340962 1.3865151931742865
Sn 3.8387313721342937 11.22153329216053 3.484960434185648
Sn 4.1493498621821105 10.342351470159315 6.34194331519155
Sn 4.153158002024191 4.628725025977797 3.2070752221578154
Sn 6.0752496135686815 6.257181461362869 1.4465013345734192
Sn 4.9082425009447705 12.536988196935994 4.810345329461633
Sn 1.6622402264908753 6.1702135514950465 7.870512674195235
Sn 3.822004956235134 0.11258839369232286 7.654341326249059
Sn 3.0051741207647518 7.382944378837396 5.460842487954632
Sn 2.1925124858343312 7.19226964255458 2.4699809758790643
Sn 3.048404331698149 2.0815816205036755 1.848605052679169
Sn 3.1430855256071655 1.6067254476130963 4.896562994982331
Sn 3.87371265423189 4.580505335488455 13.392375423758242
Sn 1.3379743785017268 2.960178446299792 6.853587220403271
Sn 1.3018662210696816 9.625606216882394 4.01579312199989
Sn 1.203448402390902 9.21700794487146 7.2220225465649515
Sn 0.8185087314451344 5.063277405761972 4.604762870304624
Sn 1.158463527890001 4.416150766973707 1.5658297656305837
Sn 12.40525950703325 6.73296595663266 6.478668909210274
Sn 12.553832155013321 7.283572897620913 3.3469979591717656
Sn 12.146545277746673 9.51805669244647 5.431034679189382
