54
Energy = -191.32912416 eV
Sn 2.917342988960662 9.700203089606784 4.468358232829104
Sn 2.013303897291279 8.530526114996642 8.168460928311458
Sn 2.1467780840426567 2.83711224796276 6.32419954004846
Sn 10.994268209263696 4.563624531355916 6.472453850352034
Sn 7.921880599679673 8.893411100442139 4.3097823079164375
Sn 5.070693125994231 1.1017394069910544 6.486353116307108
Sn 7.489697620863383 11.150951161648933 7.2820370440919655
Sn 10.139111251812672 7.0878927432540895 5.044477435438137
Sn 7.699983797869257 0.69662022436948 4.475687734137299
Sn 8.623645621416081 6.636172353169753 2.017697796769509
Sn 8.564991019506177 9.675901488114796 1.512073282525914
Sn 1.4254583756722736 6.506100908175663 5.608392741874066
Sn 4.8127395225187355 9.159270571810826 6.938582407212166
Sn 4.179749500958743 3.0384381747753855 8.895859977606348
Sn 3.3148289960379294 11.137152129083649 1.11149472980352
Sn 10.085376209942613 4.937229991459588 1.3836670007131835
Sn 1.5032022321249465 5.396125931651819 8.542572471159925
Sn 4.642975886350192 9.869713638341002 7.212030452354463
Sn 6.822607745056263 7.843890050643141 11.699012068181064
Sn 6.15398693924557 3.688563777497796 11.076779334430725
Sn 4.162351273382572 4.184048685879119 4.230657301867817
Sn 11.745486423415697 6.773136110116108 11.183464060238418
Sn 1.8836241766030035 8.4552705506062 1.2920011951366903
Sn 0.6282772708269644 3.7543645074915855 11.579235775520964
Sn 5.510210422586807 9.083463395852272 2.298491438313089
Sn 2.6468807848121934 0.327561057584086 8.312971578345929
Sn 3.278260781637088 2.8337529693008245 1.2823313403744363
Sn 8.927898384428106 5.865377017901484 4.900851410882151
Sn 0.764776918323227 0.945301320068948 2.071976042704209
Sn 8.673050643850678 3.3290563514475084 1.0452325556210178
Sn 5.395330345674774 0.017324847215963935 9.66772637581269
Sn 1.4569744742194868 9.675901488114796 7.06381370667861
Sn 0.143180319844807 9.433629163654357 5.8792849433762395
Sn 6.184619074271942 1.5413318450845959 1.6312201045982682
Sn 9.030041168384253 0.17966795530525462 1.5996590424049977
Sn 10.794398103690252 7.885163535241158 2.0738398038466177
Sn 4.4716434149307975 6.480461603509457 8.480915568872996
Sn 6.326500319651301 4.753863727402107 6.773855160924382
Sn 1.339430664742177 5.703072231289385 2.241348283417687
Sn 2.950237070004444 6.000615422807993 11.459678740333414
Sn 7.879720153060422 1.1082842443750496 10.692246173636068
Sn 0.808954390582256 0.23884914856108796 5.133289199259993
Sn 11.729399892706212 3.484173727892074 3.562584310246117
Sn 4.764893622519785 0.8949705167215329 10.608779737652869
Sn 7.152744195178412 2.1967914951409213 8.406360026762247
Sn 5.559754043251848 10.587457933081748 3.466101750431002
Sn 7.116454340548556 3.587033144417789 3.992650469731461
Sn 6.522575947300814 10.47138182723589 0.38734962327876327
Sn 5.516735848332749 5.707100366178324 1.6442765256458582
Sn 3.4233271788019795 1.0011834718465986 3.8297181312749053
Sn 7.552443646878408 7.7055273423246415 7.058078028922302
Sn 5.37018338373263 7.089503800003692 4.7025536716430185
Sn 2.868879450642809 8.970561840557329 4.443621240011082
Sn 10.975639209282043 7.361676683145161 8.051363192876568
