55
Energy = -194.27639948 eV
Sn 1.047668889377792 3.52114897262277 5.70328629319167
Sn 7.860203613941319 8.91264156637146 10.07962179950477
Sn 10.591028937809728 8.861172536525787 6.161790408338548
Sn 4.525026874461867 9.780242251400592 10.94227410134838
Sn 4.5676289496318025 11.269896907764778 3.8774730900050143
Sn 3.584116512478282 10.343812273427545 7.996992416181946
Sn 11.417523646986425 9.643700742137572 3.2341250882637116
Sn 7.998297123277498 3.994451541254775 8.325928749435418
Sn 4.432482706814531 6.4467555870572495 11.589585245993185
Sn 13.37587435372228 7.220049496810005 2.20832799989944
Sn 5.296644177027299 2.6197946699616157 3.3514307764250475
Sn 1.4412013144244202 5.251516648025862 11.082792787959578
Sn 3.258835913343514 5.061199737667342 4.465999288180244
Sn 12.651204803588826 3.059775655025176 5.088177080232825
Sn 5.7862649062653855 3.2070134880894123 11.428295357333878
Sn 5.982848961094922 4.780192193511917 5.553353659762481
Sn 10.156109903319933 6.644496921770012 11.74415124700061
Sn 2.1478812319657314 7.1832196453377755 6.773318272876112
Sn 4.9836318308179335 3.2037331970235448 8.46706395610155
Sn 2.103385518864442 4.2913794722967795 8.32069240439467
Sn 10.202535880618397 3.8578488757826737 10.407966868491789
Sn 10.213588182397107 7.03435687138186 2.0962161071929453
Sn 2.807514572318935 2.264676075239383 10.523510489049412
Sn 7.319000027396956 10.25328426922522 3.08304380609062
Sn 6.321536872121455 7.479996030956483 3.5752824859518553
Sn 7.368107112616952 5.8212475461809685 10.769405069685149
Sn 7.34038631123872 6.990724557772182 7.722022694808048
Sn 7.828371225138271 4.280067409867448 2.985602900132421
Sn 9.649777883691197 3.9482618174323942 5.745816039299368
Sn 3.3108860082906193 3.9594229283839835 12.988944100483668
Sn 11.946037918223812 4.079967740402863 7.936218354278385
Sn 4.4518873417356195 6.257874806100986 8.565439123300854
Sn 2.056207932119287 8.127762338163034 9.759677128608807
Sn 13.543499321847865 6.6783562197022235 7.862370485468368
Sn 9.008864711676742 6.742926693080066 4.862874669198441
Sn 12.088036653909544 5.8872044027948265 4.556045554161184
Sn 13.52339359354002 8.540485720671821 5.298418968108864
Sn 9.399014761822576 11.426109538920487 4.929286912876027
Sn 6.762105326572121 10.165590203325365 6.15096089816018
Sn 10.645617352814842 10.117262591352555 10.720427011313857
Sn 9.536711928093995 10.997684110648832 8.07771248306687
Sn 10.385627617658052 6.617181550551559 8.644740490767296
Sn 4.8483609694146725 5.329958141074382 2.0162339027404372
Sn 10.387492632071664 2.5042418950060332 3.1726878012576645
Sn 3.7248403954442653 2.191275400155684 5.909071391794164
Sn 12.689988859158985 7.8856825268399175 10.494976202181917
Sn 4.062670683735947 12.839540922473756 10.947636503597181
Sn 1.6219003495756934 11.181264858406205 10.312552721574477
Sn 2.4175774445779794 13.296420257933612 8.278324385318182
Sn 5.285513661365039 14.539457983978203 8.782953639591405
Sn 12.01384289303832 4.6272874999124864 1.6613846785177242
Sn 6.359321094667741 11.566621398130257 8.988114357259185
Sn 4.308860900699255 8.719364876174238 5.349834401582842
Sn 12.634029662401117 9.934464964986109 8.165801611533256
Sn 4.912053287008247 12.742955011127009 6.4467872783451075
