52
Energy = -184.11742424 eV
Sn 5.2190304765916915 4.393680624222012 11.271389700341144
Sn 6.037692598271117 7.141359709267851 12.34867320718152
Sn 10.811828716557294 2.786585666132895 7.746560013530588
Sn 7.216924785133305 6.3634444647804775 9.647166419623824
Sn 5.871192261396569 12.907196004480621 8.332167303851943
Sn 6.371627556792614 2.4650961695644376 8.900813767461647
Sn 10.133640386174102 5.615322257831573 8.745522697517224
Sn 2.448732623024311 3.7578913832022063 10.364697199983013
Sn 3.229606902100064 6.952126346221018 11.121966704232811
Sn 3.398054391899482 1.615874633365666 8.211549399547327
Sn 8.48075798254849 0.8142836840584852 7.030228570592302
Sn 6.424065919956674 8.048596209016857 7.319173857768352
Sn 6.484745890400944 11.812469463902572 5.454441016393058
Sn 5.796553756147694 9.151870234311508 10.181535472958707
Sn 3.5476680533838327 12.395050521529038 6.344782029414983
Sn 9.550017164031239 8.241172901616958 7.138840897299028
Sn 8.098421516917549 4.158820423422069 6.888182824251879
Sn 5.587139032817271 1.4868465552699957 5.7896800000904545
Sn 0.6057353049492128 5.988913063393167 9.417489706351937
Sn 1.6118602400810804 4.276964718665386 7.0964462611062595
Sn 10.922517247040847 5.604393056008522 5.745393270521138
Sn 10.17170715934855 2.656290311101191 4.843505773168061
Sn 4.550784107438343 4.879343271633278 8.176230311354086
Sn 3.3219312780649624 7.763040555638426 8.138232204420293
Sn 2.4327123054750888 1.606052265338335 5.2075804022157035
Sn 7.818964630966587 0.5381389139096676 3.8050597162683943
Sn 4.730815733883021 4.453956204377853 4.901047313552758
Sn 9.853390339518603 5.894755036571196 2.5922935661621573
Sn 1.696056257565314 5.813445172729674 4.341396915764851
Sn 7.316659223605312 10.87228475178268 6.6720903300749725
Sn 4.523890440547469 13.143607674526184 3.4389802527303157
Sn 4.1027702851984404 7.651265676571289 5.030798404973052
Sn 7.79504158062054 7.263582871365912 4.570129998037383
Sn 4.51457619768947 10.825213585240487 7.952858087538246
Sn 7.715245967586553 4.157911907699194 3.8438615466028563
Sn 10.674413217735832 8.371979287078023 4.287615960462644
Sn 0.5099360351988622 7.389067849932862 6.835113219109516
Sn 5.746656550777967 2.3694163461786584 2.2973902038888903
Sn 2.9188016167660487 3.436798824414195 2.734162792217782
Sn 4.962414751018166 10.515062427525667 4.684406767115394
Sn 5.244348070534403 6.289405922857357 2.279075825212715
Sn 8.121447585281725 10.21815651916194 3.8262943078856604
Sn 2.103360345983413 10.006688683088427 6.119101445434105
Sn 6.3453712250934995 4.533124954490323 13.506998448985884
Sn 3.337517785637264 5.124647515329476 0.05974427185223649
Sn 1.2293768354226386 8.686436299155067 3.426691916700107
Sn 7.859244862820981 7.035919242750446 0.6138771591969565
Sn 3.0902652395860777 10.797846193521265 2.31462063094615
Sn 6.087592617814598 9.255306302528622 1.7283719652266576
Sn 5.260624856493673 7.393322879168211 12.34867320718152
Sn 2.861687653978848 7.951934826933519 0.9074262104496151
Sn 4.364061532334416 10.282813373007121 13.072426025016036
