5
Energy = -15.18272274 eV
Sn 7.852198256674742 5.658406580681036 6.3809773112159744
Sn 5.481148293131183 4.120343378922057 6.443585321508713
Sn 6.301223556151681 5.888550058952694 3.855861090085237
Sn 5.479610036963355 7.349682535618657 6.902942283210418
Sn 3.6359662533185313 5.830902367304553 5.160909936121304
