50
Energy = -176.63065811 eV
Sn 9.949551336999223 9.195896958178656 3.596649136266044
Sn 5.133949670668925 10.864361058287596 2.9830212170402945
Sn 7.413998915047488 10.25085843755458 4.804433940578645
Sn 5.338604872309893 11.222105617982978 7.071520642223029
Sn 5.011150617186423 8.480948321856507 0.9041693913353159
Sn 8.41519604509669 9.930880177314593 7.606607368508444
Sn 7.889346432051482 7.824066056673208 1.7288285885705845
Sn 2.94648772374779 11.109754695084575 5.1353970561030815
Sn 11.239057485895378 8.440768250874555 6.335883372658353
Sn 2.796896606323751 8.632740216094954 3.1971340449232235
Sn 10.916047190579334 6.3134881832335505 3.064075633313515
Sn 5.645946467703987 7.762884998960773 4.086155526460452
Sn 6.116326855737492 5.572040883013947 11.980765855280946
Sn 9.080283829564511 5.304541613640286 0.704550811415796
Sn 9.862198041146517 6.892826787582951 8.52831026211707
Sn 3.8876271905170428 8.51478854433988 6.729262193524383
Sn 3.4415426589668194 10.441030929944834 9.367836356529784
Sn 6.604057501410569 7.418539421976755 8.066799311265052
Sn 11.59000067902858 5.401068678045799 6.253130777320315
Sn 8.58546329817659 6.890678662765455 5.4030624037580655
Sn 3.732250253617503 5.7672235926324555 1.677154615985578
Sn 9.635853118912175 3.9479275226391963 4.250212939919199
Sn 6.508446580142904 10.052326497338958 9.967691202084092
Sn 7.718925443810329 2.8639931202241518 12.107529545072106
Sn 6.512054891765312 4.993702099593358 2.7081328463841126
Sn 7.248082388685685 7.206185802616007 11.19050872480724
Sn 4.703554500016546 2.8824145540791135 0.6624248355794589
Sn 7.1958096513472 3.721302325965064 6.33397615571071
Sn 0.9622151761334394 8.842726498619927 5.679919234179046
Sn 7.719759154479458 2.1835850273892756 2.6070894947718797
Sn 4.329502486579265 4.790858902284739 5.2028096521489235
Sn 4.201370515862925 7.864046804583671 10.69996428059392
Sn 10.69652780145575 3.9085130085161777 8.891633442762938
Sn 1.4844106903036627 8.208982130756059 8.623143765892383
Sn 1.5608842211837002 5.883033898282036 4.5298339878058576
Sn 10.05841770888133 2.034915052577911 6.498216405671108
Sn 7.198405848376427 0.8063528494577428 5.410803128547793
Sn 7.697314932398501 4.685303884240519 9.264717822253758
Sn 4.409053522184087 4.704284791919766 8.368703440007195
Sn 2.0887254461467366 3.4142163186068664 2.7023522812133614
Sn 1.2832296139449004 4.819863497791693 7.4969846622321175
Sn 5.06652309581814 5.055057549943293 11.523642873390068
Sn 4.734011082933411 2.0228233742643273 3.7073337659267294
Sn 8.132878358405328 1.6439868439936285 8.77538587139731
Sn 1.9720054218492096 5.635475567327571 10.418409706346099
Sn 2.255109324584229 2.3674527910482195 5.746263591953572
Sn 5.2739594067395705 2.1750863883065734 10.165988328150345
Sn 4.847821782518657 1.6335162033035937 7.187271216461076
Sn 2.2351008331963245 2.3915741541303954 9.086038991424259
Sn 2.8013498023345957 3.1492478146508964 11.980765855280946
