51
Energy = -180.44961434 eV
Sn 3.1145280979431034 3.7937539728962957 10.193571273638119
Sn 2.324162122170933 7.358789048070359 8.609377681971289
Sn 5.6409447150291125 4.7268802211844285 11.651136747591435
Sn 2.274014977328514 10.141072483884907 6.978159307567579
Sn 1.4864572164974303 4.119353674294372 7.480976055939429
Sn 4.968970932485626 7.57684344274661 10.79690178403847
Sn 0.5372823079493987 9.287291353217553 4.469838796462845
Sn 8.839924449076776 4.256367421978333 10.879856423612987
Sn 0.46719734491732384 6.827259446440396 6.233495767308272
Sn 6.884979115805542 10.079280523255585 11.336111957170283
Sn 4.727989166942972 10.192260922808623 8.931227050194519
Sn 4.087130866798093 2.0610511848066744 7.851077371188091
Sn 6.6511462428091015 2.4164409222979453 9.825206222844779
Sn 4.862940141899204 5.405282169417385 8.342411162117124
Sn 8.06290660432294 7.2242539337047775 11.414187671955661
Sn 4.97597324419498 11.846160865863867 6.282314863447847
Sn 3.724211531485913 7.543962296190869 5.888374194309174
Sn 9.85266701690692 2.0278164149107436 8.754462216471078
Sn 0.1787361706654919 4.227600793389515 4.534128326438606
Sn 7.850893876977138 4.341308476139918 7.701883194974852
Sn 3.397846367743147 10.401691380487604 4.04714685736216
Sn 7.643631726749805 11.192999657619596 8.374121128357276
Sn 6.999457156880287 8.073658875745018 8.418730644626702
Sn 1.8375838316916537 8.973855341561539 1.8008258071309566
Sn 1.6666370496323895 1.6491871627530217 5.740843019795101
Sn 9.763655203619328 9.650788423759959 10.157274088022744
Sn 4.0278879152797415 4.165398032232886 5.520081085325694
Sn 6.806131856985692 7.090365131873334 5.457968534386342
Sn 7.217581972224241 10.081340735757603 5.243739017148721
Sn 10.92385353670778 4.442753543691828 7.23488349946792
Sn 9.829150019873063 6.7949475150552665 8.949299864063864
Sn 2.13860375035449 6.417121166158987 3.5679224829057166
Sn 7.759589374567197 3.4536956278869653 4.656860068265846
Sn 5.4824676184781085 8.525104575162626 3.022748205990264
Sn 7.411639517719672 1.17489125178291 6.8014764332608255
Sn 2.6724469646601583 3.0485584323594153 3.0827012031270455
Sn 4.722373037715791 1.1562501830287402 4.992248921131729
Sn 9.684436380627872 9.178151786594 6.889215693886599
Sn 6.169637368506184 5.384418428429683 2.662139715350156
Sn 3.9490724625882447 6.8737836477397325 0.8111418656162482
Sn 10.652690362482474 4.471286660329834 4.121835908191637
Sn 9.688339857307746 7.333747543109326 4.384389451807973
Sn 6.363447013269313 1.9269984983102584 2.2751074897908676
Sn 8.455395268733128 9.43413205839839 2.4190807846704856
Sn 10.429844306409782 1.7626219730573416 5.634640373867846
Sn 4.491875114051137 3.815510310374864 0.6325915186034098
Sn 6.807987608606787 7.960670449173826 0.3024000199806549
Sn 7.544377555383721 3.8696358084639972 0.0421199380987001
Sn 8.43456360421015 0.32750791950495156 3.913503763262131
Sn 8.880483449331045 6.207742623559524 1.5443405107073946
Sn 9.488217324905534 2.5656358964718655 1.9901818942474592
