54
Energy = -191.56226879 eV
Sn 11.015665552600392 5.724916417852343 8.377145941663452
Sn 7.5741290067510505 9.696826595015803 1.5153290401488129
Sn 6.676845016944599 1.3802177302406422 1.8920095486586428
Sn 4.463542421604235 10.10547690399614 1.8308276801967673
Sn 0.34843816633840263 2.595070990593988 3.197354640967169
Sn 5.603499860799254 7.4595258462704805 0.6103777052973011
Sn 4.897497909615427 3.415560990091296 7.450350371330986
Sn 8.453631166118447 9.832255362700446 9.037203075924578
Sn 6.164207677626219 0.6305665167330757 7.274534498574607
Sn 12.253051827573119 3.7520858956135803 6.058767015288654
Sn 0.29101552923722357 1.5169655271628173 8.096294655515377
Sn 11.950291887354997 0.6030485021438786 5.245279747135752
Sn 9.583854296122968 9.124248131877959 3.9579890126495925
Sn 1.388385322013788 9.524299229891529 3.9203497089625574
Sn 3.744291396424684 11.486134304943459 4.527068019802248
Sn 1.8140040634930201 11.85091841358991 6.463750193749657
Sn 3.254148605061914 2.356792570850494 1.823939147208452
Sn 9.731307382594624 2.898858418904396 7.735403872470053
Sn 6.084252069063173 7.601872747011951 10.175234487715692
Sn 2.3843220533485487 5.676511910283026 6.5415769336875575
Sn 7.2161144827594335 7.130141903602852 4.178706658477815
Sn 0.09435168101254571 6.06487765835612 3.772873564925123
Sn 1.9677016232223725 12.520303765414148 3.466305949764688
Sn 3.281167010083601 7.054102113732213 9.132895938082466
Sn 4.969026491787496 0.7830401667863843 4.352489709620197
Sn 5.59376230925824 6.468253206043414 7.13684181490293
Sn 5.002220366372793 4.526091707922185 10.459941072039564
Sn 11.53028238961318 8.753175378573955 9.1048366628698
Sn 8.173051335017064 1.401231814477336 4.728526747252369
Sn 10.940497131574881 2.85163618721794 4.878726145661165
Sn 5.828801662281433 3.7144400694542736 3.898087762017493
Sn 9.391590441463613 7.2898646463827035 10.62971868688257
Sn 10.53691064822294 10.344284862574805 6.675462688043964
Sn 3.3713480190792064 0.8231998482048998 8.584641640601733
Sn 6.554242455142162 4.299262748104068 0.9148828510261426
Sn 11.950291887354997 7.623116588524817 6.1380430579277805
Sn 4.238436918551398 8.147007557346583 4.598448388703834
Sn 0.5540080515555628 4.670659256671151 1.119301004116042
Sn 2.2985194947868055 3.856384597476111 9.154653687381803
Sn 3.555346390305128 5.054385615855331 0.2080506093675702
Sn 6.580336786854236 10.361897492181196 4.366969335366934
Sn 2.601493244194196 7.5562249271686195 1.7844557136459203
Sn 10.486667409628836 5.869679781937861 3.848205696784344
Sn 2.727350660912037 9.780353720965783 6.859156945336006
Sn 5.750635676844928 9.513819839805416 7.273221606291029
Sn 7.81475869368376 5.247377136240883 8.924453356539015
Sn 2.4290394532335737 2.277621995268773 5.762807082676551
Sn 9.203693912641018 3.278444103805796 2.3753310916176793
Sn 0.32902038431674735 7.8473677674113 6.2523330012294105
Sn 8.946857129120433 7.675247328837744 6.897795022123454
Sn 2.935263429255451 4.959209075849029 3.441207725894967
Sn 7.085228546508603 2.4114836648730327 9.606451260571204
Sn 8.335411084752657 4.464583039901848 5.557220143705206
Sn 8.577581353841815 6.676467193183818 1.480675887479136
