53
Energy = -187.99201167 eV
Sn 6.062179026133621 4.793315673770453 0.7093629283151953
Sn 8.119116329300814 2.316754765197516 0.5930397949973486
Sn 4.964182747038826 1.8682292618580822 1.0442032422466594
Sn 2.942963352966002 7.054948851682282 2.3021633758247786
Sn 1.6540266918583333 4.472529983315475 1.2784018118901985
Sn 6.822662813689724 13.053203047364574 1.4514494214111975
Sn 9.050356663523244 5.3429691070346115 1.2692938952487485
Sn 9.792640540463943 0.06938470484632754 2.0095122270156454
Sn 6.216138694146421 8.177103446218055 2.120248034794288
Sn 10.628836920668233 3.117097760441944 2.6663956050020516
Sn 1.7368017162980582 9.857959376530287 3.258229627302114
Sn 4.801780385901439 10.875494928326546 2.926431517445059
Sn 9.148374655744918 7.75872145548842 3.1790439675074817
Sn 4.327013040080084 4.36319860404188 3.049333738248046
Sn 0.2533609681906421 6.187917870676708 3.5571688200771154
Sn 4.85361199601192 13.490381843134653 3.8171951843576
Sn 7.331847043990511 1.8298104679777125 3.6270320316109266
Sn 2.333843991247404 1.8561145355983903 3.059116839211222
Sn 7.882672874310039 10.508835608739727 3.721337431745056
Sn 13.18991265704358 3.1898837639757334 3.1469827073763565
Sn 2.938516794599388 6.253759925444082 5.2199317145679585
Sn 8.03560476545539 12.57715358731558 4.513494935169896
Sn 7.80617866418059 4.8743347348679595 4.0660631492842985
Sn 10.370415279909574 0.9924044052481095 4.974079879318664
Sn 10.611085351998097 4.336595094702265 5.451254262066826
Sn 2.7156578564694964 12.577153587315582 4.634999078112425
Sn 0.8259001859049165 10.367304012449065 6.1081754876429635
Sn 1.2027946151709763 3.8371480269163607 5.551332851621351
Sn 6.453716171577522 7.57191072009664 4.975249914978489
Sn 3.756236130594231 9.468391409265976 5.506652078093677
Sn 5.677413726970499 11.953636183973051 5.752378665733384
Sn 0.5640323280234226 7.141699770662262 6.923982915550632
Sn 7.426140487919663 2.8224391165155285 7.13942631283003
Sn 4.172119782182609 2.608305659768134 5.401913449811945
Sn 3.151959853504479 11.805829076344933 7.569274144268605
Sn 7.755097064182316 9.682268641126742 6.659846583766352
Sn 5.466966218684322 5.259316209245536 6.95369116285201
Sn 0.397620782625088 4.406024601068816 8.357327402035004
Sn 9.257712225897556 6.982300125061067 6.259661903109659
Sn 4.690719949670627 8.132135489903684 8.09598374182023
Sn 8.722537936291035 13.546955233035387 7.397111625470034
Sn 10.389662774996898 2.47935258213792 7.862330561637927
Sn 5.700477985732285 0.2442412391374489 6.944334852543372
Sn 1.6978799555443913 9.255347284923303 9.126760002851059
Sn 4.336771169247023 10.432606147506412 10.18653730826459
Sn 3.4567371501040323 3.2045163781607684 8.316222343669889
Sn 7.090891318328704 9.147452946736779 9.619492834213858
Sn 7.754139036725206 6.247701996059408 8.845080470013569
Sn 2.5826307915172366 6.276647182351503 9.252515272249921
Sn 5.931732640255687 1.7922432809238913 9.734605098372874
Sn 8.44502574580392 3.4861469625213664 10.035140596183227
Sn 5.436228127152291 4.838176442905622 10.187995996852361
Sn 4.417515682188204 7.4589827074391115 11.310354808318941
