51
Energy = -181.23065288 eV
Sn 6.9354919959721775 4.227451111275721 1.9656886059043581
Sn 5.913133329912989 4.819385835033657 10.020463423384879
Sn 2.470908400623423 11.670636017748489 8.213320994488141
Sn 4.682577331195808 0.5248100360898925 6.156023109880937
Sn 0.6960989207979901 5.4826287865362415 6.582952276609039
Sn 8.787379823483935 6.223110107835768 9.857733236189098
Sn 10.212397238385648 3.14160495680461 4.592126892393254
Sn 2.140321326599339 4.506224056878814 9.137135440567562
Sn 4.534678838930766 4.748647338324144 7.114620967985141
Sn 1.7618836545826118 2.1610822194457877 6.380850558088673
Sn 11.609562231441675 4.279622316164916 4.074509751694574
Sn 4.969070392214606 7.792294329759563 11.421695219209898
Sn 10.218341109786493 7.730681773795559 7.356841107948107
Sn 0.6212981297651277 1.7483862674684636 9.394775506811914
Sn 4.340731491069303 9.172119882606962 2.056415730285552
Sn 10.008082530689707 5.197883599651334 2.357623317269489
Sn 7.119365518541498 2.7735842665373713 8.021547272027728
Sn 6.870692975889628 7.155079370702066 7.566079245047285
Sn 6.109061184438143 4.812891422359287 10.76152429941307
Sn 4.154008335907461 2.1391753494105767 8.885369456658275
Sn 6.218072793707182 7.959170090221744 10.76152429941307
Sn 9.312505270091178 2.2105732476251028 1.6034288039665383
Sn 7.121715778795047 1.912689308702664 11.428347146200782
Sn 1.8794719066979662 7.718905101152022 3.0147021063768467
Sn 9.347697739098244 4.744342047184723 7.121023135121628
Sn 6.33751977742572 1.2370950015022995 2.2896077559202213
Sn 5.136387131529547 10.454805568230991 4.944423828545178
Sn 7.578501971797152 6.944017792269872 0.6228262424898154
Sn 8.90417753305239 7.089163603208474 4.665845200286925
Sn 11.708575558774436 11.963378778910558 7.307132784501149
Sn 4.207814595011717 2.7922533799709495 0.2080633082022525
Sn 0.6773634109722163 8.311445366981392 5.667862248356502
Sn 4.333023004581095 5.8754502558708035 1.6039228412423232
Sn 7.713327379895538 1.5481235323345854 5.086346221152629
Sn 1.766444994751894 11.446194876847214 5.153511425127401
Sn 7.082734038379274 4.501183387142603 5.1056478604211035
Sn 5.641357107303751 9.979760996393274 8.300424193141211
Sn 7.287071374957592 9.149912225462186 3.127850006480176
Sn 2.6113679931974976 4.911041948123926 4.280974979684644
Sn 8.070853898094489 9.987575474971958 6.288287363163252
Sn 1.363788937353707 2.4379272138502657 2.364086024075073
Sn 1.0531760646234778 5.352782588567983 1.3543026400339477
Sn 11.468826262297895 1.1324947031971557 4.402758574162084
Sn 5.324590696243726 7.151387726762511 4.35547867474956
Sn 8.60654558751607 9.382697136201097 9.406091290384804
Sn 9.114538458667255 4.450517326110807 11.549199719592188
Sn 3.966409595504843 2.2203377188676514 3.8174185826350495
Sn 3.4866055798371294 8.394201121452681 6.430645679504689
Sn 10.921670737188833 2.953749157313102 7.004848970327818
Sn 3.054941765375994 5.350922913041431 11.013692211515494
Sn 3.7578663620721664 7.183008986214016 9.168077982301208
