52
Energy = -184.31677002 eV
Sn 0.8717182140487522 5.690318155435012 7.8403408464259
Sn 6.838075122385244 3.6863513023195456 5.1571587975572095
Sn 10.673761859258919 7.667766284898134 2.6262855394266684
Sn 5.937010931792709 8.508485566708751 0.5452568733908594
Sn 3.817973010301256 4.7594773212362345 4.714388263496734
Sn 1.8312306387176955 0.2674798833957012 2.263381018799058
Sn 4.622115145795584 11.434509511444809 2.290507131171508
Sn 5.720533310784519 7.429723136388509 8.099455706406548
Sn 9.267076419021311 7.157905156912964 4.434544595733436
Sn 4.5061770678344075 6.212696592812788 2.1405790449048534
Sn 8.325957957106045 2.8195294480014157 2.690762966941567
Sn 6.87358440164383 0.6248375236804103 0.9117641490002122
Sn 3.016556381617037 7.4669107671504 6.262186939736771
Sn 8.487888211382046 7.185729996930894 11.640856725272636
Sn 7.516899398193416 0.5164084796725501 4.912864980364146
Sn 6.032691836564024 5.62192115893705 11.117380246432964
Sn 12.082651558163134 5.65579792433037 0.7787830772328429
Sn 1.0865463860378168 8.40168669118782 1.4156599613995757
Sn 3.8937538641519702 8.932572740326073 3.4850826738970633
Sn 1.3605726073648665 0.5078243725794688 8.339449871953263
Sn 11.308849021359036 6.654124444904272 5.544741070348766
Sn 3.2373848873926443 6.779741519808447 11.758342375217042
Sn 0.5875011835800613 3.297515525970705 9.679629775633503
Sn 4.21128328471838 11.46821536559335 8.74776041364337
Sn 2.6502139432557583 3.284580043168273 7.152088177878531
Sn 8.377059371119863 1.916434680221427 7.649188115504003
Sn 6.510836728128605 0.8370912866271529 10.066497445653946
Sn 7.586844910170976 6.264917090240302 2.0366028369823703
Sn 4.273904675660188 1.5384085797102613 3.982473845205883
Sn 1.1702888175041983 6.171027135505254 3.4948215705154184
Sn 7.2352855566944525 11.407058293976982 7.538818549649335
Sn 7.337534932158592 9.519829488833953 3.5971219170482858
Sn 6.130629813655225 7.0381219030949 5.066185309191755
Sn 8.586901696613618 4.1569564334601266 12.203750500431243
Sn 1.8779937716367618 0.08323281645079479 5.319714266341634
Sn 3.8935018558470316 1.3704776130888228 12.214020134893456
Sn 3.714582713402241 3.822779069511431 10.239597925073147
Sn 2.4830441612668994 4.070064806678276 0.8758929819996514
Sn 5.340443072544734 9.940262916082352 6.0937795183343235
Sn 8.153303787038551 8.977372980576305 6.6781673137004045
Sn 0.6178186320988857 9.03533750545695 4.422760174655227
Sn 3.415984233300491 5.100250013369178 9.508412089401615
Sn 12.090408458865777 2.714622631287631 6.613129116504184
Sn 3.469849596927243 2.038150366661261 10.239597925073147
Sn 10.895212153866797 4.510571691827697 3.4025704843580877
Sn 4.779546875446494 11.146591149080027 5.538050446256466
Sn 5.681085704277611 3.4283998406027525 1.3513098915486008
Sn 5.238323815303602 1.6067726648505538 7.177130860012273
Sn 8.221926166090432 5.732164015811848 7.055351248289938
Sn 6.482599024653889 2.3202993153609976 10.681525120719497
Sn 6.200259992232136 3.8367829895184693 9.165676255850686
Sn 1.3417138866282028 2.8887781013455447 3.82354748529875
