55
Energy = -194.81477096 eV
Sn 7.177768755689749 7.659298457605663 7.6510183219982455
Sn 4.771284494173828 8.507507394252004 5.548899113392715
Sn 2.988073546658063 5.061490164262468 10.610163883394371
Sn 3.477079580741459 2.855411911489223 8.344031746789348
Sn 5.546144374101215 3.5978266430243906 11.052783716458428
Sn 1.6375994824953128 8.782185857218511 4.681556364189465
Sn 8.62421667287093 9.22620368212318 10.187367201246577
Sn 5.575057210638264 11.68749603163605 6.429511816943654
Sn 8.604116955961883 3.1428875185951655 9.530736651150562
Sn 11.468514416294676 3.7441340531887946 4.824783705348747
Sn 3.4676848371225564 5.969659966718513 3.742725481810859
Sn 2.759811278854768 10.210288688528252 7.252264673336357
Sn 12.452383338940248 3.2190149367897245 2.6039906308850505
Sn 5.7254105236172705 9.856333307961606 9.166503984032762
Sn 6.205734001942849 4.686453844078828 8.228929358835206
Sn 5.2231519175586945 5.283442365193508 1.0473085944803278
Sn 8.839186213653498 3.048687197958366 3.3760017418992696
Sn 9.25754836674587 6.254636202373872 9.437049422158639
Sn 3.3589650512910323 5.944295604236161 7.183083134220872
Sn 3.224901006824881 11.276506568302068 4.144421769284222
Sn 10.725976096326454 10.342547181557935 5.377725653972296
Sn 8.575570211071264 7.762358518164882 4.8265284239687976
Sn 10.879030251550013 8.568696744582834 7.914494190197315
Sn 11.753399122669215 5.487689958846228 7.776986769681433
Sn 0.6403153484290057 6.714717157180119 2.5093777573395943
Sn 0.6452990407797012 5.768553572009392 5.445696218928329
Sn 2.1158090866564003 1.5019125201276196 1.1370772137987355
Sn 0.483871590234024 0.2237379951639125 3.471911596907974
Sn 6.1699795827810355 1.2728805862001091 8.836328891432359
Sn 5.018891442730296 2.4443765944602975 2.2085347508948256
Sn 2.137814061433077 4.707808882274306 0.9306013623752489
Sn 5.178806395920987 12.474506684071986 6.183118527194936
Sn 11.56063880920964 6.943776787961376 5.014188130240304
Sn 2.08606733321969 0.48170399231244204 6.212900860155028
Sn 9.097084161527789 10.017595642332456 2.8431135178363727
Sn 5.883460746515339 2.9616698684923883 5.5275953176152495
Sn 8.919915434714811 4.649494846827087 6.470432308848333
Sn 8.344112467883582 1.4336604517901683 6.667918274348718
Sn 6.867208305740658 5.423133383291331 3.608787770334332
Sn 3.5167338684881497 12.33687765882853 3.4775928316973586
Sn 8.283990397867058 12.336877658828532 5.032553504422827
Sn 7.609509813434215 7.548218877844256 1.4900663100155493
Sn 3.8844818289840495 8.759385888236489 2.3462177945080573
Sn 0.6715106370474653 7.768545486986947 7.755764588127066
Sn 8.135623398118518 4.405994834639513 0.7492980170634009
Sn 6.89483497675375 0.5968239104765669 3.619621968571125
Sn 5.855984097159569 6.709062473772463 10.665419810401643
Sn 10.135514610007666 5.947626917895849 2.460802017289918
Sn 10.971449168573498 2.46241360468618 7.652847382361204
Sn 0.8052822944156526 4.7130422055433066 8.531010149583464
Sn 2.6858430095714514 2.8416425205338234 4.19533396071665
Sn 3.264577548831057 7.981361248951018 9.541912359296498
Sn 12.510829711398276 2.7261710435561985 5.699762353007089
Sn 6.160098317324417 10.413530642382995 3.5890451319604293
Sn 8.476648158793953 10.588636615993373 7.494503142692113
