5
Energy = -11.99795961 eV
Sn 9.312318358533492 9.12138022811724 10.341311469864326
Sn 7.398091891241167 7.934580279123964 8.93156178049074
Sn 5.430877893903526 6.782300137273171 7.630215557798916
Sn 11.225514624668218 10.18935282764907 11.835476228118344
Sn 13.07319293083617 11.259120384957946 13.36920942210802
