54
Energy = -191.51731731 eV
Sn 11.508049100669119 9.176776858100158 4.552557811602624
Sn 10.270085055163937 8.25793836932341 1.6134301866890317
Sn 5.254384229715897 10.426845289755912 2.6680834917316965
Sn 8.090401792207613 11.722908547567007 8.616042928647396
Sn 3.6320221370645744 7.896577419032772 2.6939432623259694
Sn 8.84118473892919 10.434830758549198 3.4430196496951146
Sn 7.056428459254146 11.756221522669382 5.593105683459011
Sn 9.274205214915042 9.763745238527955 6.6785058010794955
Sn 11.591872999473429 6.228324357578942 3.5918346206285667
Sn 11.402597212577435 7.758242464308351 7.612547039149222
Sn 7.123985418799329 7.814006281636682 1.9761971773764588
Sn 5.150748744146318 10.909570913528187 8.038218304186616
Sn 8.823623349659227 7.259537484171322 4.457901995725093
Sn 0.9107998336253847 7.803186430826912 4.042920265984721
Sn 3.6025362519064763 6.247942770931301 5.301286511363514
Sn 1.0886022502038748 5.860201088090778 1.5700228439799582
Sn 9.24083770142992 5.378855721401867 1.6352240581603574
Sn 3.990593611120914 11.59076600078719 5.170528539717056
Sn 3.771684515925308 6.072141279311227 0.3743971286550504
Sn 7.537610516356848 9.035630618449302 9.848185819086629
Sn 5.7474169897991185 8.88961528580267 5.395094736005498
Sn 2.5343048783874695 9.2413495728122 6.411047284646493
Sn 8.036525109640262 7.114726073997235 7.474663048540504
Sn 9.442474984805425 4.050520862477291 4.571087865978957
Sn 2.623720525516115 9.766858415948331 9.467182051601778
Sn 6.298475110608141 4.250510461234514 0.7662708974390637
Sn 6.569052612907419 5.012897352800629 3.7267304102927405
Sn 10.173629637740989 5.039671053949119 7.535102614819134
Sn 9.886528681164302 7.182375314299217 10.173868834197608
Sn 3.396539650557745 3.97684003839223 2.7846787210168484
Sn 8.028047305772978 2.333327147528105 2.4343082050419405
Sn 7.739848835177515 2.585012340727327 7.416931992063515
Sn 6.83101031756209 5.581576202567797 10.676386094840424
Sn 4.951331720239996 8.921925428783979 11.317983436260032
Sn 4.836706348929227 7.753661705265878 8.252625169700885
Sn 5.398076625225357 2.3203147890043554 5.189511215134746
Sn 0.8596246582512587 6.537701756443303 6.845445683568216
Sn 0.1231744584456946 3.1799093355134005 2.3322838246137905
Sn 4.97451819645431 1.5368854890543595 1.5512597810783813
Sn 1.0098390380822009 4.31879526960298 4.873016489475871
Sn 5.629244222400153 4.582885815495011 8.116411027218323
Sn 9.53258179320462 4.085208565932115 10.360170363403142
Sn 4.7150414066795605 6.2291608889168995 12.739709212875072
Sn 2.4972555860033814 1.9001231428671161 6.123651127262405
Sn 2.147752371544891 1.0183350998881533 3.0965125474380146
Sn 2.6640770878377666 4.324031112897371 8.28229517012984
Sn 6.74656920174438 12.753162133064173 3.5271887104008215
Sn 6.816936936948259 12.701754803448999 6.570409826565355
Sn 2.749535876103129 6.732190684061347 10.420070260490382
Sn 4.154366098050815 3.807865675573935 10.908362544643479
Sn 4.056560274483074 11.756221522669385 2.2224134531348194
Sn 3.990662681963835 12.316411248798167 5.280035243267917
Sn 6.878034930551321 2.366408239636013 10.375686830980266
Sn 4.744678971099889 1.2348881153996403 8.297617295552305
