5
Energy = -14.49725911 eV
Sn 9.625993991855722 9.264185301698035 6.315257656207997
Sn 8.371078879845674 7.252291580892672 8.044707812273689
Sn 6.747020566223358 5.291833316188249 9.501874430302395
Sn 6.941812169801028 8.677989835714653 5.895015401140333
Sn 5.528349229629123 6.727954802861418 7.457399537430718
