54
Energy = -191.459566 eV
Sn 11.613338396234758 7.834796316243356 4.052336626120825
Sn 12.059960186376381 7.717291061871435 7.089932635874969
Sn 12.781290868767384 5.07202657163855 5.097517143458721
Sn 8.588580952200575 7.968910782566402 2.5716033077121043
Sn 11.357090190505748 4.85173210214542 7.817243022890926
Sn 9.339793986955769 8.930589208753911 8.174811715639391
Sn 9.361638448490414 10.324480814351821 4.4754167492537285
Sn 10.591390298587436 5.074293702414029 2.8769982088584882
Sn 8.951523892493922 6.817824782801515 10.30115902166305
Sn 10.4874378311322 3.07768288399324 5.439248222523159
Sn 7.689410443559516 10.763295362962303 1.79957358781837
Sn 9.578289158456196 6.330672468208877 5.769972217183352
Sn 8.076450209988057 11.576663489153022 7.406243047764257
Sn 9.521039967552596 3.754943899790011 10.062988060379983
Sn 7.751325020906158 10.22356936678184 10.525298388272772
Sn 6.341505379347222 11.167973544307685 4.604892174513218
Sn 6.207651187604861 6.519550985031764 3.68967203198987
Sn 6.587128172684676 7.661166480395866 12.02454660191614
Sn 7.717478032699675 5.3130966930702215 1.1346802403188503
Sn 6.811296766888562 8.257555212217977 0.020659882581079463
Sn 6.332027596138643 7.575974801953223 8.82633950505745
Sn 7.7184351593629295 4.672589236383305 7.72788262491126
Sn 5.903371579956574 12.316944297883671 9.471904024703852
Sn 7.196432161637009 8.54720136919755 5.996612526220692
Sn 7.829610717234889 4.06726844569144 4.204015752984933
Sn 6.562015840955531 4.221200101917371 11.159496309720264
Sn 8.574952953624027 1.6880636130968287 7.956360637958055
Sn 4.563216955210418 9.592193651077771 10.377773420291593
Sn 6.489728705422966 13.044850062466498 4.6908287689974
Sn 6.6982146068879995 1.8780556327390017 2.566095734893245
Sn 5.010354779848161 10.28906097582187 7.371730960457031
Sn 6.032354249022677 1.4819331058394674 9.742490092973858
Sn 4.657356809416542 6.1669743969671975 1.0246012772350852
Sn 4.772526357112027 4.789367133157904 8.645166404883167
Sn 3.9590102071875326 6.669783985616218 5.826300283184224
Sn 5.098760909684113 9.168373332100979 2.4873585342204176
Sn 2.924093786895116 9.498277534092992 4.988898397155121
Sn 4.399083120491159 3.6589412167164173 4.307783612877198
Sn 5.875998058547003 2.1015999956481877 6.531597889065851
Sn 4.004146444239213 5.873854761160424 11.592681818684714
Sn 2.7502129358393055 7.73950999290814 8.33675515057627
Sn 3.7661144094939742 2.754178208646209 11.297730602010867
Sn 3.8711367296786756 0.596419373342922 3.6172961012264744
Sn 4.475519913927319 3.062304107187809 1.0493769560375676
Sn 3.2469754701915106 2.003229354883551 8.288841126181103
Sn 2.4366822685519716 6.798599665197721 3.1508884987610632
Sn 0.2159028268619085 8.775342586128717 3.45688659321254
Sn 0.4897596470228144 7.9650221670716945 6.349162037454497
Sn 1.8679366551016887 4.696202018059644 9.502223966529876
Sn 1.4862989921405307 4.982699074034935 6.407665911454264
Sn 1.9006096753615598 1.9816111273430626 5.372606323165329
Sn 2.0972530163768126 1.3693505407492383 1.357022994017471
Sn 1.600964410197885 3.8597689363244423 2.98143519357756
Sn 12.781290868767384 5.8559341527764825 4.166168686850262
