52
Energy = -184.49585901 eV
Sn 6.4174791083262495 6.315703713410001 11.867078368818326
Sn 8.748117600747474 4.980330270155148 1.6262606529532007
Sn 4.703477074243981 8.494260884294533 1.2573343006010942
Sn 2.46996953965639 4.159228802048672 0.6304012331880967
Sn 8.775586248865565 8.001208016452354 0.9634531074021343
Sn 2.274566270702933 6.862985451324778 2.1649634458563747
Sn 5.426958110384438 3.565896211061677 0.508874403902206
Sn 5.473664377157709 0.7123922073673021 1.898353595154042
Sn 11.137989127086215 6.396815565708631 3.155946835251845
Sn 10.450072483003076 9.601174424715666 3.0093238138202216
Sn 2.128889784408765 1.3809602019121274 1.7985718108861404
Sn 7.341307004944181 9.965154757005948 2.96344287995724
Sn 5.47423014872077 5.94164325551133 2.7584725622252066
Sn 0.6033521036071557 4.036195261423511 3.0879126355466
Sn 8.14450973993522 7.143246679417159 3.973683074197566
Sn 10.395589528385502 8.11399012536862 5.820359937119203
Sn 3.9970364222125006 9.446625971522751 4.052334088390634
Sn 3.746379628866752 3.5459899392376064 3.5042466851147065
Sn 10.542529949795622 3.302967604426022 4.095134622693122
Sn 0.940538198333158 8.660762676622266 4.1653038599640215
Sn 1.6405158444709993 3.826062348261137 6.07502724580196
Sn 8.317447077944776 0.28640443204593663 2.684657557233104
Sn 6.204469663543688 11.037390942401027 4.557990593308142
Sn 9.188343153049697 11.037390942401027 5.38686551432751
Sn 7.206742984123111 3.108646660192098 3.531920374037604
Sn 0.9401380527778679 1.1805671302160095 4.617328743092516
Sn 8.427639303065352 1.1275293443262322 5.591598923761298
Sn 11.747860205848063 5.23900211273357 6.24843508572368
Sn 8.63222936061769 4.67033051996247 6.133470306455297
Sn 12.021542120792487 6.447058862041168 6.1208890070347755
Sn 3.889619830455727 0.7514393421112393 4.6428227844941725
Sn 3.0512916250567113 6.446638092077006 5.196778702017507
Sn 5.754804821781967 7.687296916258001 5.938277236040873
Sn 10.730890370183353 2.371019098459194 7.134294688206897
Sn 5.492155139708369 3.8206324678816044 6.460437461388874
Sn 5.59016894249808 0.7702397684925081 7.251964514171053
Sn 6.086655796306199 10.796493991216016 5.92046956800077
Sn 8.324995060848346 9.385905826845672 7.85365189012832
Sn 2.0698290052378097 8.962819166930805 7.088397259837091
Sn 3.159787149960124 2.5449366811166394 8.399225806226863
Sn 11.851430127957032 7.579495009880512 8.93844203130157
Sn 9.607546737753433 6.548599620434089 8.368417526050276
Sn 0.30591408508391155 4.428821310631417 9.160111863484707
Sn 7.87534878275975 2.576913740903306 8.338249824734891
Sn 2.8637866948676693 6.067503810935988 8.697809713838048
Sn 6.527812346226722 6.723704276080774 8.688815693338036
Sn 4.967537797746064 9.342551366185607 8.553723028279652
Sn 5.425465434020201 4.117158176429921 9.830581911587315
Sn 2.3352927162369603 8.897286912205539 10.256255878275493
Sn 2.5591289872464253 3.808967899959823 11.25532698652372
Sn 1.072870568072028 6.438847143104781 11.567747488784708
Sn 4.2368886622061925 6.574631082242813 11.438379893421146
