50
Energy = -176.90839696 eV
Sn 4.943458221265695 7.487709210725785 1.142634649404446
Sn 6.157435157037204 3.43108049308151 0.06534014837401096
Sn 3.4337641277021325 4.7512408153652785 0.45476744051328893
Sn 3.381799884768633 11.70902953833048 0.758861087728974
Sn 7.607850699206724 6.410793003378572 0.06093517905587489
Sn 1.5784569916633053 2.230744849358496 0.5140148310845521
Sn 1.9449154977512224 8.29897827647081 1.780267617144099
Sn 7.602523905864598 8.9298232383498 2.0517299455555573
Sn 0.32473752860499255 5.495369135751332 1.5035158192462514
Sn 6.237986083779875 0.5634305661727594 1.2044759331355668
Sn 8.018298995015302 4.225649126120705 2.3059874440306243
Sn 4.1074013269438465 2.4589108122734467 2.3925721848235253
Sn 11.303823977238297 2.6649615304559213 2.5713322648231216
Sn 9.752125587808441 6.793822278501244 2.3834110376662268
Sn 6.395384849936914 6.4046505308804935 3.5825556006684023
Sn 4.319300049994365 11.35603467633197 3.651998751522935
Sn 4.357810629238127 9.773943546272966 3.4506161188895215
Sn 11.22370689007035 4.3905905940337915 3.3807973499652286
Sn 1.4608103324678892 8.888946882685339 4.646655035716285
Sn 11.851292661476673 5.064667776736199 4.449504456104237
Sn 9.592132084601028 1.7699774014044 3.149908592693633
Sn 1.3122315093859709 0.36236198177117845 3.161585810180345
Sn 2.7638179145623885 5.730655020943081 3.27820194996628
Sn 7.423075551607039 11.611009321431496 3.867978814831582
Sn 8.309437823279689 8.337790820472717 5.011683459440264
Sn 7.706817388791064 5.289235695288539 6.620523197782504
Sn 0.2917327152207236 2.2488617344534614 5.544068673874461
Sn 10.490745027523255 6.0876532132914685 5.827271036771968
Sn 3.260061075576071 1.9299715497879346 5.2227354985910495
Sn 6.168591244167074 10.975515370758757 5.689791220259672
Sn 4.70493070065201 4.696192598924944 5.810199908763171
Sn 4.671605073106224 8.104615480189555 5.979905761383974
Sn 6.987281733902306 2.619319391951241 4.783971989296589
Sn 2.063205218124552 6.22921861471754 6.314738416870842
Sn 9.962379211683466 3.012199262115794 5.923691691946128
Sn 1.7589624478160053 9.045854329050819 7.757237698118301
Sn 5.601891880852198 0.40148650238362377 6.4564476068938035
Sn 3.083520227964739 11.32512542054704 5.938201909795953
Sn 7.126235758557316 8.551217257542929 7.887400051994509
Sn 1.7907972917638357 3.970451363856116 8.42233425316657
Sn 5.036101442072396 6.091063030848097 8.82644924928826
Sn 9.109620154170559 4.782948377667991 9.288487220479354
Sn 4.676122240242755 2.9361950343068273 8.445230653249382
Sn 2.358195618818936 6.771496263859881 9.886815763923115
Sn 7.84074030134698 2.2884795844418346 8.06596386671753
Sn 4.586214639939141 10.232235526945926 8.339386850699212
Sn 7.375596976539699 7.032926716016263 10.584339406419273
Sn 3.2957800903776002 3.9978984969202442 11.116023501903902
Sn 6.3828546310904315 4.052891087651113 10.829387029503389
Sn 4.6517918001592315 6.550957845048274 12.041763183193973
