54
Energy = -191.00055083 eV
Sn 0.7949466667929737 8.37467953486939 8.239972496582482
Sn 0.9990059377957925 5.8052818739607694 9.91666528207905
Sn 0.036974248123895055 8.138955658630861 5.283924651525222
Sn 4.302740590290085 10.45313769380149 5.852752096792672
Sn 3.995688589847785 4.4288483863251065 3.8094385914320705
Sn 1.4615398447664452 8.54071338316311 11.278261031943911
Sn 1.0514405891897596 5.513412710886233 6.513173742588404
Sn 4.3213107194804135 7.840502045660364 2.2462655691993048
Sn 4.094091067152333 12.26566637914652 4.161863002935396
Sn 3.038410769643013 1.8763075150847748 5.670914297750444
Sn 6.511621996004766 12.188898260942942 6.013847698681183
Sn 6.1690508260058765 10.016480779295403 8.521115389630776
Sn 7.296097361659205 10.301497731535651 5.520106677630826
Sn 4.9418839164778845 2.969010797301864 12.590804765308405
Sn 4.331688178856105 3.652539427425021 9.765971759600593
Sn 4.9537841946927585 1.2471709996883489 7.9510721245747
Sn 3.422494999807197 6.1814216465227245 11.883134327029094
Sn 5.8128452510656246 6.009877946627269 12.284455478718868
Sn 6.276634924156582 7.574519756023091 4.791856314959958
Sn 5.98032162882409 1.8869110279014747 4.13318346861444
Sn 4.491158369334755 9.162076436306362 11.394624887715045
Sn 7.694876051685177 2.2572226323957203 6.710307181817862
Sn 1.760446071779204 3.2354712135304324 8.284500003729597
Sn 10.762065182166277 2.887649960051216 5.649203723488267
Sn 7.65692607901793 9.273885456997649 11.188718918714393
Sn 6.556299313561298 6.505769670074095 11.683316697210204
Sn 7.361940069249697 4.432302924856439 9.536105586713015
Sn 3.732789772101605 7.225582973189067 8.928753268984133
Sn 5.146776085601065 4.236021906434496 6.84488805713708
Sn 12.754752137845694 5.553830067195428 6.125370120425465
Sn 7.025601417471542 5.639714366837069 2.3695942354588317
Sn 12.056460312010527 7.186567436220869 8.671790109950859
Sn 7.099699613934013 1.2013819847424134 1.3399062628836544
Sn 10.34645744392133 4.749536360646552 8.024344165052584
Sn 9.575234290689055 6.731737962639556 10.518545094578556
Sn 3.341580622082247 7.284746000220707 5.641186849667115
Sn 8.73496530484412 3.2072091159560383 3.1509858214886566
Sn 2.4138729960805967 2.8264366866633495 1.6275663641365499
Sn 0.948297945816217 3.353786007808008 4.183319919076753
Sn 8.219253067992783 5.221281559962877 5.720309820300164
Sn 9.52754007796165 9.214441694861533 8.56838718257047
Sn 4.099320654715141 0.3139684189364816 1.235799022999124
Sn 7.162975830265451 7.213986585336474 8.480326141643165
Sn 10.907739118647234 5.442893249291476 3.7589113307040987
Sn 3.0321437671179035 10.360324421150276 8.842684483321506
Sn 10.248309091828283 7.498983963439024 6.137383362454241
Sn 1.4856022927704666 6.3047926373750185 3.1309232114619796
Sn 2.885179257474916 5.6537047463756975 0.4480244729393641
Sn 7.964444329267149 3.754976884039875 12.523126362109412
Sn 8.943608413544517 8.189724730952493 3.191513452479934
Sn 9.840146194546364 6.074592339113809 0.9378345557021585
Sn 2.3047375647705897 9.554235751495018 3.814952725907018
Sn 7.646316146155994 8.286975283463198 0.3843225687853238
Sn 6.3601115999451325 10.036381692652652 2.5558316576910833
