51
Energy = -180.62052193 eV
Sn 3.0359785696212915 5.703964141610774 11.542866852696365
Sn 6.049859165907342 5.717304513827828 11.34974737292261
Sn 4.191523356714064 1.4644651172685825 11.55194394369302
Sn 1.0053375522483525 7.926880892465268 0.04006578100180919
Sn 9.799126834549414 6.402923021063237 2.4738390173628524
Sn 6.940525347618813 2.8633865395311457 12.161521794761377
Sn 4.270315556543437 8.537374061128046 12.127210315351228
Sn 6.286688268624458 10.16741278644592 2.2728230326746406
Sn 1.7204967836253406 3.0408644134459952 0.09988605726077329
Sn 7.373367212104711 7.994055162535065 0.9083481428232667
Sn 1.2159068451772492 4.411404305019986 3.20416500223975
Sn 4.363661672385875 3.8280611510650817 1.4942414049847712
Sn 3.7274418679857573 11.44173937033679 1.2037889593632278
Sn 2.4077488086760135 10.16741278644592 1.7267904229038504
Sn 6.788489173818239 5.424009268404733 2.2902793183018066
Sn 6.116188798936085 0.9453339770878149 2.207646166811943
Sn 0.6842992979271763 8.172016428250615 3.221206131071842
Sn 0.5833555731119511 1.3719892926227246 2.4877306502955583
Sn 8.561204045670385 8.299995229851202 4.520014573358815
Sn 3.3596315508183636 6.943896806587017 2.475277943666134
Sn 10.683780793102489 3.0646737436930906 3.849445253268334
Sn 3.4747040630606834 1.364786270231498 3.6924265998414327
Sn 11.415717394128945 6.007496175534152 1.5996023173674667
Sn 4.5732543012204125 10.670270384108534 4.626354458357391
Sn 5.322285407588673 9.36115785017322 2.8182011418742463
Sn 9.065583702819547 3.432127917675993 2.4070281088351506
Sn 4.408853161492031 1.3495028916415193 6.652386913491049
Sn 11.18705523329967 0.47717839922600863 5.637400169008357
Sn 7.703089044720081 11.662859534195489 4.76665814034923
Sn 1.6947964069672332 11.016348956097948 3.564843767548511
Sn 6.320260788417943 9.705031498983637 6.127597414391196
Sn 5.922439165423158 6.7360347420478 4.987456825958508
Sn 9.184686251188456 5.202186467239599 5.36160826556034
Sn 1.1036428690610414 2.6878882712955634 6.184991045391042
Sn 10.35072934917613 3.3248274153798985 6.951125062450809
Sn 1.6830519256367618 11.913166639031722 6.988693497676798
Sn 3.380662351988913 8.82023906677516 5.3276304891629085
Sn 3.7913330042464852 4.379658993368329 4.92595450569378
Sn 11.291237598416854 6.042922186762551 4.798983819200739
Sn 6.6810729115915555 2.940389737816277 4.593822316879312
Sn 9.559578434554894 1.9139194748260895 5.1069915947518565
Sn 8.15000986917837 7.5145388643124775 7.576128519569324
Sn 6.080990474364955 10.934323960326383 7.215132204553091
Sn 11.710501732045534 1.1540340289344542 8.672595402023699
Sn 4.98559542285038 7.443187565123799 7.804895651710187
Sn 6.78438848250697 4.719935207167269 7.306792597327232
Sn 0.44036003987023886 4.261315505820995 8.776637047581112
Sn 2.410850014644536 1.8592195000290885 9.213302683214469
Sn 1.7670220740045186 6.4047338201574116 6.341464807610824
Sn 3.717739248893144 4.416046243959223 8.006382600500277
Sn 7.450638116322373 1.4083618503116881 7.299333297762303
