53
Energy = -188.65843192 eV
Sn 3.5400173328941666 9.599258441062773 0.4209902249863833
Sn 6.625701537340209 4.096456248583539 11.637749472655694
Sn 5.121503977757653 7.014134639536058 0.444695763330589
Sn 3.472721374196237 4.435846835698807 0.21886012904625993
Sn 9.587447020320257 3.314888423839418 11.700451007535001
Sn 2.083351847909448 7.108271542183616 1.2989174932939185
Sn 8.638111022914291 6.294941584187587 0.23017282287151083
Sn 1.8621343555309537 9.75788819785461 3.10782154948427
Sn 6.744813465382917 7.886677435114745 2.828942135109423
Sn 0.970943537965707 3.42706268135524 2.141651532738429
Sn 11.015795949474978 4.844413029893535 1.5842999527253674
Sn 2.346901920923997 0.5906547804976338 2.632464295149723
Sn 7.568910444598884 1.3175019480106336 0.5933212336837633
Sn 4.815211828751516 2.5239683316380117 2.1884612001493373
Sn 2.307001921765713 2.791588379792293 4.781552757104237
Sn 7.812902892135325 4.076036564217096 2.259841916158871
Sn 11.821341739107597 1.1710399330479697 3.744660643608226
Sn 4.418825786568174 5.5557273135191805 3.1820550795824714
Sn 9.485305062032767 6.478245696860242 3.662799108633106
Sn 1.6294780108880613 6.455072085767277 4.312830683986035
Sn 5.008940892489872 10.4886491762987 2.970938405133572
Sn 10.018768820649324 1.9916564021397356 2.3500453476019407
Sn 1.738256245675321 11.981277435307451 5.553201990942288
Sn 8.474290257990656 9.14814921846617 5.072183574405869
Sn 3.1941318176826243 5.097580227078202 6.804525875925903
Sn 2.735793761093915 11.803039213668043 5.166376770785038
Sn 9.078753043339274 4.551538054908576 5.957757094890236
Sn 11.639627932684414 4.1638804800838525 4.688467155556778
Sn 8.701591372395349 1.6513263106521427 5.273193273771779
Sn 0.06142336634515517 2.002278327534438 6.837253559365913
Sn 4.86537190672256 12.05654936706067 5.9543534102578795
Sn 5.7055300916225855 2.79212689099482 5.4155284496175335
Sn 6.585850976665137 0.4037793748853535 3.569835484978152
Sn 6.751951469760498 6.527554124125301 5.689056715379608
Sn 4.087786370443345 8.619273783347907 5.227069616427183
Sn 9.466567395895176 7.3249228152094945 7.328655837820353
Sn 5.724687510778924 11.311973267239686 5.8247315842164555
Sn 6.94175316445635 9.151191182656323 7.849202199062377
Sn 9.248393631281251 4.339952040010776 9.091649317801702
Sn 3.5157758502980028 10.396375545444702 7.814368342970727
Sn 6.312230743246048 3.9019429489930753 8.386482297875318
Sn 1.1183183468768045 9.160801203861654 6.201524960755203
Sn 0.34794028439956426 6.069393772543987 7.370342139410092
Sn 7.148143607895579 0.6816318998697987 7.650890726086988
Sn 8.10505350019407 1.7526156985684027 10.286680720255717
Sn 3.3138156974852992 1.7783720631039348 7.767796920214408
Sn 5.042310961984106 6.8880268755340985 8.351874083563981
Sn 7.7234693894728474 6.824249872360851 10.007471138971187
Sn 2.2944669561038227 7.762124333768728 8.959214265686393
Sn 6.839580007013239 4.219996615610676 11.637749472655694
Sn 5.013075503520812 1.9224484798416368 10.409757665170478
Sn 1.4571109460884326 3.8297410856732332 9.108027732439064
Sn 4.020679642607137 4.815770314111933 10.601117361786713
