54
Energy = -191.27162187 eV
Sn 7.535032144521687 4.632086714974942 9.349829462924996
Sn 11.042600190957737 2.446470380582396 7.120762024695507
Sn 0.9547153547826545 4.838381407501871 3.386546269067375
Sn 6.903646250437429 7.382677308287363 10.549773028090373
Sn 11.089520648178873 7.954398327432355 7.14243162602764
Sn 8.95167224604274 0.6370731275482675 5.7611543970030885
Sn 5.458442490582351 3.6760851300881336 7.090248154451172
Sn 8.068528841819324 1.7377638978676881 8.521719316040734
Sn 2.0236956072939845 7.96664075455013 6.28631896101773
Sn 8.662585426885512 7.67416832182646 2.6210007879038137
Sn 10.35559867532424 5.114190112828427 2.454148842052283
Sn 5.9094932357240415 9.415783354175424 1.3863865398940294
Sn 7.532370551471304 1.9187367599211684 3.4646720272477216
Sn 6.063841611103734 3.8852520640053347 0.18416382400994316
Sn 7.986385326050512 7.218924537717269 7.508547658331493
Sn 1.3597909201954677 9.164343128273673 3.5232273213493865
Sn 4.112314883757037 1.560630247683481 1.1108957768669563
Sn 4.064573506429756 10.571584230122317 3.5837526476743315
Sn 8.330768328793033 3.8311740681149784 5.966175046516944
Sn 4.297341287704427 8.33125889104427 9.147244881902473
Sn 4.187164416137549 4.069840438173327 3.4815950328562946
Sn 5.3982477027943725 0.5749130709299395 7.1169280795809335
Sn 11.479817339462683 2.867180846014924 5.560604464977433
Sn 9.652289494301485 9.588911255209227 4.889144139049686
Sn 4.73515735472395 2.067172511151461 9.792889158502428
Sn 3.9020650175118385 7.4222684189475325 2.9862929547532713
Sn 8.798172281049023 2.912189770714309 1.0379244542554955
Sn 7.0921091846609645 6.672227689546774 0.11893241976646876
Sn 4.269658153337563 5.0974342588347445 9.656086498759716
Sn 2.6602764100102863 1.0592695405670503E-4 8.670090445096905
Sn 4.756807133692705 6.8015800055004885 6.561603435595443
Sn 7.177505719831127 5.007140434207555 2.894181672550599
Sn 7.378209602497065 11.43268949013474 5.947352603561433
Sn 6.59691837359587 8.573711592835275 4.842523814795784
Sn 9.79269055256195 10.864209161639574 7.728489651327667
Sn 10.861935793644433 2.2728595014135125 3.9653046276554353
Sn 2.1726377568966706 1.5037456859689688 6.131349452263822
Sn 1.704209712056254 1.8842999155164732 3.078176624119669
Sn 2.3569831107309382 4.547176631844526 6.20942115004116
Sn 1.720988847910208 2.927029456155094 9.64584752125087
Sn 11.089520648178873 4.090047707423765 8.430220648481763
Sn 4.706085069038919 1.1188063770873615 4.075751694475044
Sn 10.402355629059048 5.2080743029170025 8.463005340037972
Sn 1.3857171856864448 6.1388340473626934 8.747354500747345
Sn 4.07934664938585 7.242234746626274 11.87047421460168
Sn 6.981186172265247 10.155782664497949 8.88545821439899
Sn 1.2741933142319708 7.207017278320866 1.1936526238835388
Sn 4.5795856577228715 10.23449005111964 6.680926658902549
Sn 9.650169243164186 8.634322197229864 9.807098839469669
Sn 11.058677173335113 5.149102518181705 5.390611025765605
Sn 11.606243363536635 6.000765417960644 6.0310674318369575
Sn 11.789657442831416 1.0736758763140286 8.042312628179976
Sn 2.908324867628172 9.912748809831816 0.7905190861998491
Sn 2.866819074390236 4.302253288193586 0.6958191251477192
