55
Energy = -190.48301584 eV
Sn 6.820885719658043 6.820885719658043 6.820885719658043
Sn 6.820885719658043 8.497646955859569 9.627570567701504
Sn 6.820885719658043 8.497646955859569 4.014200871614581
Sn 6.820885719658043 5.144124483456516 9.627570567701504
Sn 6.820885719658043 5.144124483456516 4.014200871614581
Sn 8.497646955859569 9.627570567701504 6.820885719658043
Sn 5.144124483456516 9.627570567701504 6.820885719658043
Sn 8.497646955859569 4.014200871614581 6.820885719658043
Sn 5.144124483456516 4.014200871614581 6.820885719658043
Sn 9.627570567701504 6.820885719658043 8.497646955859569
Sn 9.627570567701504 6.820885719658043 5.144124483456516
Sn 4.014200871614581 6.820885719658043 8.497646955859569
Sn 4.014200871614581 6.820885719658043 5.144124483456516
Sn 1.5262227245680513 6.820885719658043 3.3466969053212012
Sn 6.820885719658043 10.295073718068323 12.115548714748023
Sn 6.820885719658043 10.295073718068323 1.5262227245680513
Sn 6.820885719658043 3.3466969053212012 12.115548714748023
Sn 6.820885719658043 3.3466969053212012 1.5262227245680513
Sn 10.295073718068323 12.115548714748023 6.820885719658043
Sn 3.3466969053212012 12.115548714748023 6.820885719658043
Sn 10.295073718068323 1.5262227245680513 6.820885719658043
Sn 3.3466969053212012 1.5262227245680513 6.820885719658043
Sn 12.115548714748023 6.820885719658043 10.295073718068323
Sn 12.115548714748023 6.820885719658043 3.3466969053212012
Sn 1.5262227245680513 6.820885719658043 10.295073718068323
Sn 6.820885719658043 12.303672195882138 6.820885719658043
Sn 6.820885719658043 1.338098427507752 6.820885719658043
Sn 1.338098427507752 6.820885719658043 6.820885719658043
Sn 12.303672195882138 6.820885719658043 6.820885719658043
Sn 6.820885719658043 6.820885719658043 1.338098427507752
Sn 6.820885719658043 6.820885719658043 12.303672195882138
Sn 8.562014508567842 2.3739958182095564 9.572523707087452
Sn 5.079756114822035 2.3739958182095564 9.572523707087452
Sn 8.562014508567842 2.3739958182095564 4.069247732228645
Sn 5.079756114822035 2.3739958182095564 4.069247732228645
Sn 11.267775621106352 4.069247732228645 5.079756114822035
Sn 11.267775621106352 4.069247732228645 8.562014508567842
Sn 2.3739958182095564 4.069247732228645 5.079756114822035
Sn 2.3739958182095564 4.069247732228645 8.562014508567842
Sn 8.562014508567842 11.267775621106352 4.069247732228645
Sn 8.562014508567842 11.267775621106352 9.572523707087452
Sn 5.079756114822035 11.267775621106352 4.069247732228645
Sn 5.079756114822035 11.267775621106352 9.572523707087452
Sn 4.069247732228645 8.562014508567842 2.3739958182095564
Sn 9.572523707087452 8.562014508567842 2.3739958182095564
Sn 4.069247732228645 5.079756114822035 2.3739958182095564
Sn 9.572523707087452 5.079756114822035 2.3739958182095564
Sn 2.3739958182095564 9.572523707087452 8.562014508567842
Sn 2.3739958182095564 9.572523707087452 5.079756114822035
Sn 4.069247732228645 5.079756114822035 11.267775621106352
Sn 9.572523707087452 5.079756114822035 11.267775621106352
Sn 9.572523707087452 8.562014508567842 11.267775621106352
Sn 4.069247732228645 8.562014508567842 11.267775621106352
Sn 11.267775621106352 9.572523707087452 5.079756114822035
Sn 11.267775621106352 9.572523707087452 8.562014508567842
