51
Energy = -180.17312088 eV
Sn 9.718705364522169 2.5741100875783545 3.568394196021272
Sn 11.819327379410993 2.538210203788004 6.221088385134046
Sn 7.621893081485305 8.080800309611165 1.9887713407873595
Sn 8.24826982132958 4.724685159981079 1.4384561516104957
Sn 11.731945670703537 4.810937029025936 4.137888131578343
Sn 5.976114342507348 3.365735194423958 12.137967954801441
Sn 10.458232523647188 7.450963359223279 2.8576721595615204
Sn 5.746231593501992 6.367146816502489 0.2632312308689242
Sn 6.731219876331402 1.5566555338375345 2.440999526098135
Sn 9.232605257216077 1.0322807909354648 6.265002255956523
Sn 8.666488771607757 5.453776285862125 4.467797418696597
Sn 5.384896365457048 10.137125514199555 1.8911168913029235
Sn 10.414422162024282 4.966125518609759 7.062984838805248
Sn 3.8248698061068658 1.8034183275124458 1.5164710013968579
Sn 5.698418294849449 7.565322451739949 4.247344460080275
Sn 11.729282246692927 7.655819179665752 6.101259576567815
Sn 3.1389894035281154 4.7647774957909395 0.5962272018196787
Sn 5.425880248586965 4.473666392557211 2.8740049170737643
Sn 6.641332386379639 12.218210392147618 5.21971659068451
Sn 9.934050156339145 9.816234297766679 4.741046009667171
Sn 3.50921689864979 7.765263228848494 2.140659618560414
Sn 3.7829254466078037 0.8878978461645347 4.535535439285037
Sn 6.873745530362741 3.0126256097299255 5.316523671623907
Sn 6.833937476084785 10.327065658801757 4.617795725197775
Sn 8.324401763216606 7.721271371046236 6.729613724650988
Sn 2.418930416636657 3.583592018478621 3.6141038824027674
Sn 6.605131120644939 1.262570420091957 7.986405699738257
Sn 3.3668474985439105 5.9382661746550625 5.562965741736734
Sn 8.492785828933306 3.509229041398213 8.784110732251419
Sn 6.069820815487347 4.977518898888373 7.711170043093458
Sn 10.340962284705622 10.05786900652301 7.785005336510777
Sn 7.232315029095447 10.485833694715712 8.054810243790257
Sn 10.510302202284263 7.228951599057542 9.0366851504322
Sn 3.6606879173281093 2.9809021158268885 6.648304139126882
Sn 1.1561668384121564 6.327767742959113 3.4734084246651458
Sn 3.743677120347653 9.869776263922459 4.80757903555371
Sn 5.246990145251681 12.135507147050394 6.393760227353592
Sn 5.390763437267128 7.973982480207447 7.992309057409582
Sn 4.697566855982391 3.1878708031525167 9.717051299437594
Sn 0.7901463356426986 3.9978978245442174 7.230962048880631
Sn 2.6059027270356157 6.291336809821828 8.515185817780509
Sn 6.875661923702807 4.894672095489232 10.995751562310554
Sn 7.742034035566174 7.803776015657888 10.28231096936618
Sn 0.1983063979199708 6.974563858093574 6.4344799483414095
Sn 4.711557566511783 7.082889236172335 10.946542734781781
Sn 5.443762138768305 9.998254721478183 10.502358784449582
Sn 3.520817412183462 10.23840204104363 8.039481153380171
Sn 1.5950903590360475 4.020017565335452 10.280002071141983
Sn 0.7999744995466664 8.813473445246624 8.852381985435223
Sn 1.5989724323507555 7.0996252381627265 11.304127001404234
Sn 11.819327379410996 5.97056607607688 9.305390955728193
