5
Energy = -15.18977435 eV
Sn 8.077407261925785 8.100291098034868 9.258770335322918
Sn 8.362777356078155 7.54099547085749 6.494645237111123
Sn 6.261135127286714 4.8621286804773645 6.050338757701753
Sn 6.141279459200841 7.452310892666789 4.750872047761672
Sn 5.857150457478706 6.746213619375846 8.122343870950994
