50
Energy = -177.11603766 eV
Sn 2.8195619213903216 3.2110234061201215 0.43190404372955277
Sn 4.693133297091129 5.495977980329104 11.171823870819198
Sn 7.451714811940127 4.197663364067358 11.122074729437426
Sn 2.360261740002148 7.383419280125806 0.7307962572084648
Sn 0.4441918241395771 4.922838307288702 1.6535057833738822
Sn 8.474059597046852 8.930493624722523 2.7941899425753647
Sn 5.30044141499086 8.538685964266438 1.1407989275353547
Sn 5.745748223255309 2.2826963352773544 1.3268369740271746
Sn 2.0916740676448793 2.6701392672424134 3.2748053701420217
Sn 6.865932954900556 5.776339610052196 2.3155550391608144
Sn 3.64472014541673 5.331321936600328 2.78606977323321
Sn 8.733044722463884 3.098423294330587 2.4036141962650692
Sn 9.828800576326174 6.053492471223924 3.5367210966435003
Sn 1.2184428004848238 7.257339680723611 3.547714197594734
Sn 11.329788897341285 4.436389979317423 4.716595068159108
Sn 10.150210528192869 8.53091177578239 5.564501050520325
Sn 3.2345466364112747 9.67197517757355 3.0671261620138046
Sn 5.794596536138144 8.129267774864855 4.193162102687716
Sn 8.340866147776625 11.108768165414185 5.257390281387404
Sn 6.166878101225663 3.3998566469364024 4.387416873245129
Sn 4.430644726606412 0.8963790096007695 4.185407163639573
Sn 6.135115439987813 11.048828345745646 2.900587203161025
Sn 7.373162401226116 0.4283843857124655 3.289267859916902
Sn 8.786265771203658 2.2338107071525544 5.550971426334594
Sn 3.059993118838254 4.71011956963359 6.044270896075835
Sn 1.0582437603356454 1.9299221416046526 6.137121893643494
Sn 8.079153915358425 5.571875830312969 6.031392062804747
Sn 4.951689221298921 11.072619744209204 5.730457365570693
Sn 10.975389530952416 4.206607514081303 5.566967494036093
Sn 6.559127980482563 0.16405176602080548 6.462441056072311
Sn 7.249860428049967 8.601727484690633 6.967984358472693
Sn 0.7984556464186622 6.838855720790039 6.586517573267205
Sn 5.56898510717606 2.9719080310429455 7.941026815620803
Sn 3.5522743308042073 0.3831723459739508 7.163389941361459
Sn 8.386163031137658 1.4319215295238796 8.554699283722123
Sn 6.814586783621669 11.538396330381392 8.184254689493892
Sn 5.216950177663913 6.282790332457687 7.979648632507605
Sn 3.4799782334779525 8.233264251158024 6.18403685871383
Sn 2.1285519215051636 2.9133399317635 8.776349698424973
Sn 9.735570619058164 10.529712608114941 8.043967611093478
Sn 9.607229324690827 4.215636574349848 8.313793096414049
Sn 9.796630148216604 7.3554025498935065 8.523649294870305
Sn 4.575514226952236 9.435791389222132 8.906328027935743
Sn 4.1281248810894535 1.015104899043745 10.136720419516754
Sn 7.314966974917149 5.647194416532225 10.177627738767546
Sn 2.3939406105457373 5.979237512041241 9.142682998898204
Sn 7.695093266126149 9.007171680856182 10.047562673144368
Sn 6.7959079713515 2.5672330593110106 10.848269528872361
Sn 4.2370384010093325 4.073570950503093 10.92995658138276
Sn 4.737670106105274 7.225493782044049 10.955285581253197
