5
Energy = -12.36356144 eV
Sn 9.508770814692431 10.939892954771866 9.106703800697199
Sn 7.500214539151566 8.898610905128502 7.7060618998775805
Sn 6.433163021595307 10.424197276932444 9.704517323262102
Sn 7.4722747705189665 5.899463520954284 7.259192014489994
Sn 9.211098925258556 3.963633394708601 6.3492142372668265
