53
Energy = -187.45750802 eV
Sn 9.962162505683011 9.432994673609143 10.403963141491806
Sn 6.501787123337916 7.777817168574907 11.384476525531126
Sn 9.307808184897398 6.436473459864093 11.104606108532584
Sn 9.441852993812354 3.4010381609520155 11.010567747831628
Sn 3.8137592843548203 6.302784389281687 11.216338920704489
Sn 7.160871966128056 10.385436040519325 10.03353201528957
Sn 6.617341511837657 4.258709101681433 11.312544518333427
Sn 3.7192603385559164 8.902623287811682 9.240619427858562
Sn 9.851877565722384 10.103167145507301 7.501446106662397
Sn 8.035824735709541 7.739563183040618 8.632615039569503
Sn 8.486950809351749 4.4949129228181235 8.458199960749392
Sn 6.209667406718049 10.635484308300127 7.206419177177161
Sn 7.143697308404949 1.521459594449143 9.502797801986114
Sn 5.52882962446452 5.6056978411106035 8.624734801943779
Sn 1.1309789579334248 7.405762865621069 9.97249460590167
Sn 3.306171593395846 11.403835791050904 7.449891571529714
Sn 2.4911140171506196 4.731518176731957 8.979479255490384
Sn 0.8320454082822606 9.60561994141914 7.848891556697145
Sn 5.180658005279024 7.929070667148272 6.623574144013797
Sn 8.799534371681235 7.48545540618261 5.612048410799144
Sn 10.657057260334952 5.153090693609959 6.232416644644048
Sn 4.2171156735391895 2.469657533992454 10.542798077132721
Sn 8.32008232419719 11.793801627177261 5.469887099954511
Sn 2.3032812795151756 6.967484219926813 6.900481964969787
Sn 9.604448305547297 3.0742937304778732 4.424534451947124
Sn 4.440812572467916 0.05491425857440251 8.626066073024216
Sn 0.2150654143849754 8.219062138182771 5.060037110172884
Sn 10.763418972291948 9.72640625775684 4.6845278317367685
Sn 7.1447727206304155 4.765848855128575 5.426350916755597
Sn 7.870319909811059 1.764400660353732 6.465325642394747
Sn 7.450206186206798 9.422787177356252 3.803337647374801
Sn 11.472298319563327 6.78970458970337 3.8802395739478603
Sn 4.8486891467130615 2.7863454712181968 7.162959106363012
Sn 2.9159205491718283 9.809451037990137 4.958459165334766
Sn 4.547258135564404 6.877393850597724 3.7942631412121224
Sn 7.822871186504392 5.68309209546587 2.621266633671066
Sn 1.588867304214132 5.514254972874045 3.9924094056577832
Sn 9.356603461729758 3.2711599914407494 1.3966654644643925
Sn 1.9920684649932097 1.83882795352318 8.221549325703993
Sn 11.380256603838385 8.97425959716945 1.8318300715813736
Sn 4.505981467785679 3.7576812812868523 3.7605715277998084
Sn 2.0829556472054036 2.7929941297086773 5.334833764898732
Sn 5.645005205090559 11.793801627177261 5.768950326296662
Sn 6.6829878111715075 1.808918087119915 3.082320961285001
Sn 2.0085172129102595 8.243565907258938 2.4625606921266714
Sn 8.428631965457429 8.326771218766302 1.1782473681274712
Sn 4.651711128694344 9.670862626291797 2.3591369107436098
Sn 10.519679729890521 6.0377344631321925 1.1087719950830013
Sn 3.527478113258698 0.7279412389349194 3.6867121563493432
Sn 3.17506862453644 5.0158709994237745 1.2850615816517905
Sn 6.512119392417142 3.9065183874602525 0.43798310208244157
Sn 5.599788524181403 7.001802852198453 0.7429069513793227
Sn 4.115286162059159 2.1443180874876444 1.0364691431281066
