53
Energy = -187.67966836 eV
Sn 10.644419241311056 8.629205763677962 9.499542525088671
Sn 9.929088815083114 5.632937629685543 9.884414675378517
Sn 7.759748877930187 7.927883757333415 10.478569554289587
Sn 6.557866972285565 4.9352717149571905 10.240371146009483
Sn 3.740097428429791 7.675634651777046 10.325827898533934
Sn 3.914573773912445 3.2406490348443207 10.285069752662432
Sn 11.529983061896749 6.520378930440756 7.358263795025409
Sn 10.638511890988756 3.443877584652976 7.563534001840384
Sn 8.303708060839371 10.189758714446908 8.176792182382568
Sn 5.4593233355622015 9.984604708766744 9.423237619258018
Sn 8.29341602591382 7.061436208226634 7.535544402884702
Sn 8.54138163870244 2.564844779320466 9.807152040562219
Sn 1.797142201391006 5.239639255473453 9.225786493244708
Sn 6.054614760404894 0.8490184378630096 8.961024838232252
Sn 8.913742954202926 0.600856621917516 7.4074499401359315
Sn 8.92197888098145 2.881179322514615 5.140613609677908
Sn 6.756066244460434 11.388499256852832 7.075221379287359
Sn 1.0557929383246751 8.227195547376667 9.071451825684733
Sn 3.795203759933141 2.4215120863865556 7.428244116050151
Sn 4.613890750589315 5.532458196182194 8.045779706254498
Sn 1.5573906567459612 10.517105721105827 6.927068420306301
Sn 9.717237818119639 5.999414796415941 4.672723836321664
Sn 4.486214714024726 11.388499256852832 6.836973873346099
Sn 10.334319647943277 9.067968675591613 6.221864004574522
Sn 6.900946767112926 3.5074755087737994 7.293719532116797
Sn 3.859958973646108 8.406653383503212 7.226454715267758
Sn 7.45765534405379 0.2201175925381076 4.624766689433444
Sn 1.2430259642493016 9.826333918283916 3.9783438339036006
Sn 4.383082045445234 12.816424112954703 5.887238069404916
Sn 6.840946899295957 6.8943895149077274 4.479476106398476
Sn 4.348805916155105 4.947667252540196 4.95935310614699
Sn 10.522302677530224 6.447074834679429 1.7352928580287923
Sn 4.152109357823819 10.805902044240568 3.8975578961961013
Sn 9.434102905543197 3.622366420340933 2.2438190976033177
Sn 5.452476423953503 2.3557453782542166 3.9543472576028496
Sn 9.149498712944647 8.80609960190843 3.176628669379104
Sn 1.1462570281287403 7.4475739172165 6.029715231439542
Sn 4.5241195998663155 5.115234981990298 1.6199065873599776
Sn 1.6813408766512212 4.350027812004834 6.278624188044773
Sn 6.916397947145842 9.78086855503031 5.263941823889869
Sn 2.7418913060605 1.1325523749793438 3.5685526666121103
Sn 3.650385934354407 7.789145865828506 3.771241320209708
Sn 6.623358479238603 2.990973636685075 1.310311129220357
Sn 7.558937510600442 6.319508445312748 1.5225189459173878
Sn 1.807520385770637 4.456794243483744 2.950932872101424
Sn 6.04408943222327 9.105233231938788 2.01130600638482
Sn 0.9471457322502793 7.277039225383718 2.266128216553463
Sn 2.644451927306758 1.911586289655926 0.7546895618918322
Sn 4.602858504846281 3.191330503877047 11.912963110429773
Sn 0.16250941751318015 2.386002702548968 4.327375393212599
Sn 12.72454546542264 2.820137221134534 1.2142891122988766
Sn 3.4971098139645123 7.699319274282492 0.6215775835360358
Sn 1.907482126995905 4.8539474206296145 12.664964164274172
