50
Energy = -177.74356519 eV
Sn 6.209151061214299 1.7594098406330299 11.20551999479305
Sn 0.9910533996580838 2.1462371015832162 10.384785857316457
Sn 3.3514166568888193 2.0889245595835804 0.22732944287029605
Sn 7.368518539573787 11.521941766559193 0.7780864799836812
Sn 9.226429419555071 1.5580903194478521 11.776891082550305
Sn 5.533184394395931 5.5533426124957925 1.0002767945252864
Sn 7.966202517364171 4.4064039130176775 11.609049306689844
Sn 1.190034687491836 11.946342254745577 0.4733897664335275
Sn 2.4281647844167904 4.783452220601162 11.410748581374602
Sn 4.420933344832533 8.313682672981852 0.26840934690429846
Sn 6.919438013439965 2.4798541959157125 1.9613306246465687
Sn 1.0233170087364083 2.073533904719003 2.483975249816146
Sn 6.865213481803326 8.578752732717314 2.2429919281978834
Sn 9.58741011936341 0.9320653970691366 2.7126958284315528
Sn 10.819836369865518 1.5121322280853193 0.3510441981582641
Sn 3.5397753627128283 4.02977498562074 2.6645671016288603
Sn 11.60910821517087 4.453603954245961 11.671648004042877
Sn 1.8049998546110104 8.690640906716538 1.8971703824372297
Sn 4.285217075381423 11.578424175539533 1.5326236680919083
Sn 9.828719173538019 3.828342234652923 1.8585286231128373
Sn 4.198756944360315 7.391079671417226 3.3287428583095524
Sn 7.691770043449503 5.5460961497909 3.14883337940833
Sn 1.6497978788937209 11.617775456104964 3.848736143562272
Sn 4.3676713635710165 10.549774179598735 2.39420545747369
Sn 1.0755924377948338 5.557639804628466 2.0950141368549486
Sn 1.4592689647492838 6.595036180901063 5.188895070929861
Sn 0.6809120789318936 3.502065857560178 6.0556640204496155
Sn 7.155418115371902 3.318783034543479 5.328625955044884
Sn 5.730212522062943 9.434589288444249 5.023164938453582
Sn 10.801767898753475 0.883561129059851 4.078931017381284
Sn 4.197725728758118 1.3484244088442117 3.8689804521792324
Sn 6.7316752003171505 6.506147357716293 6.088849687968093
Sn 2.602360733361437 9.608335697687986 4.833415012008311
Sn 10.684682272244292 3.7949026283063074 2.495409076112156
Sn 6.798677237243598 11.947355028249305 3.9269325215023003
Sn 4.140038834107349 5.143482169990906 5.648087689178996
Sn 1.9003420734697083 0.7038535351650194 6.751504707096404
Sn 9.828719173538019 3.456770926106227 5.632327030493797
Sn 8.18465807226786 4.486087560312732 8.014563033769477
Sn 10.986769361376318 1.1172826840058832 7.25204479600357
Sn 4.46787404761167 2.304672506036401 6.798293815003617
Sn 3.366495281722623 7.547133307695584 7.537161299986129
Sn 8.94364696144789 0.9509024328322271 5.734543840758405
Sn 5.99897497437829 6.504725521219156 9.092905340550496
Sn 0.9229134792344567 5.718184577036782 8.328886976197154
Sn 6.977845840245957 1.5743186113603573 8.104546105037805
Sn 10.607909972554317 3.8310492314906557 8.593749790766509
Sn 1.1361832116053403 2.4689250478896745 9.1616298633949
Sn 6.1353050331964445 3.664044173371884 10.189145168054369
Sn 3.609891977130782 4.4057068197457925 8.80296762797017
