55
Energy = -194.87902417 eV
Sn 3.0092282931607635 2.516722369415744 11.296679830416927
Sn 8.253846850762036 0.7638342139976819 3.974200409360308
Sn 4.5383265474506365 0.7468811698728564 4.413606162219608
Sn 3.891387349261459 4.452842707581504 2.0111818202013634
Sn 1.9150232383034138 7.299830238281554 1.968390873258602
Sn 4.948182270553386 6.830008029600982 0.08309188934010144
Sn 1.8046826870430117 5.270271332140429 11.42969850393714
Sn 11.49615989843702 5.654169288755632 7.907727555371129
Sn 6.241222177137545 4.045048527695961 7.344362792920243
Sn 6.535314327117208 6.804295111931173 4.222641727531344
Sn 8.708107214611676 5.491748989135441 5.995657734777852
Sn 6.865707257431544 1.0682435944729287 6.751981994243998
Sn 0.46809911057411563 4.0720300654968495 2.241259232693089
Sn 2.966916917530604 2.9314997344130376 10.712490746563162
Sn 0.6714539520056804 2.7358217241843903 8.651092875147695
Sn 11.125983432219043 6.57025196547864 4.380620306225116
Sn 8.572207856302393 10.232841992311222 6.72148165187026
Sn 10.77508096700596 4.672403744827028 1.8861249087218916
Sn 3.458642066372722 7.088178526499394 4.843596694938873
Sn 0.9409373049204997 8.426457480973783 6.456341328859349
Sn 2.10972651014646 1.5040976873800285 2.5442232048692937
Sn 6.3218405491988845 11.148137504582156 8.7219040862419
Sn 5.916883955546358 3.83273112309751 11.274121708334999
Sn 11.130295221698201 3.7335802007951 7.246554642345255
Sn 10.217994999239844 7.638348936591856 1.5675788596899654
Sn 10.268188546221403 9.548780533865472 4.196818030069118
Sn 4.498242674514831 8.91318862395826 2.4873699442776975
Sn 6.080389601543807 8.261616625710678 7.006128663043559
Sn 2.923131519929875 5.110883989525185 8.309941774346099
Sn 9.40758631257834 5.550392015565324 9.083603251789318
Sn 9.962760523481254 0.8442839171767276 6.640028615091481
Sn 11.586326008571778 3.5288131612042735 5.414838946404053
Sn 3.6724597236089704 5.908909713598925 11.274121708334999
Sn 1.7001612006103268 7.6714131411422075 9.624189319411858
Sn 3.0917324746129027 3.7548322583554925 4.9318769717909055
Sn 8.22424197810305 2.79448950381581 1.4035642173148875
Sn 0.4900497784169821 6.288656849365661 4.392238447641667
Sn 7.715928010646787 5.754224305378888 1.665768177076203
Sn 10.545636788500374 7.728676478514383 7.145667122584624
Sn 1.7080322170853328 1.039007678364501 5.858276772804903
Sn 8.79783469410152 2.3749485110089292 8.937505107525638
Sn 3.8516061583983223 2.1049370072076026 7.799844478385183
Sn 6.003782283621183 1.9990480681387868 10.123798730651124
Sn 7.335267944805062 9.691463646684266 3.557440231220225
Sn 5.565853828213825 11.121802464753983 5.708919595316493
Sn 2.7877787572939408 10.099601789823776 4.7292437913155325
Sn 6.5125194251159035 5.007280915019688 10.120265372674634
Sn 3.5267439035606025 9.958462481277401 7.942679056841935
Sn 7.460203217072878 8.564199291328304 0.6564127325672826
Sn 5.208219092536529 8.340332888927854 9.94656322474458
Sn 5.165682709691572 1.4260127728988317 1.522478899781594
Sn 10.027275865737947 3.2130935330674335 4.491035316562547
Sn 6.405867840117848 3.2623360058258637 4.196553394732574
Sn 8.21509506418392 8.567492643380644 9.255967126406949
Sn 0.6249702498113311 4.959761828925054 10.84086900762967
