52
Energy = -183.89688294 eV
Sn 12.034123009901572 8.52794156246964 6.01203649355599
Sn 7.83690639009142 13.032406770030383 9.197829840014606
Sn 10.132472433690632 8.223577380978021 8.522435189735805
Sn 8.653425482379117 2.7942229961078686 8.317481009018797
Sn 7.871905882765909 5.790413139340783 9.14688906564876
Sn 10.261699884837782 5.761076881426626 6.499708786149876
Sn 7.409658282132689 0.568883134186988 6.182177365524254
Sn 5.081949249777195 0.0821236591338877 10.623185185922127
Sn 6.763239604273616 2.7944421089767197 10.865514455272974
Sn 4.985984538369912 5.510157444689085 10.533671833684036
Sn 9.888555909600871 10.829434317551664 6.817479303120229
Sn 9.001731662270425 3.1815828759880604 4.937711431768758
Sn 6.1468323407798175 8.331806762967592 8.528871969013903
Sn 7.660137084493746 1.5325458538851282 2.5487312070616
Sn 10.711982812136007 6.990440345797063 3.691974717852623
Sn 8.580049638392898 8.224066145722247 5.694446874401067
Sn 10.32193958792547 10.103599525648887 3.927701336988701
Sn 5.525475111617771 2.3793263559765387 8.03270325633696
Sn 5.289384653278173 11.876415546368262 7.784981835201916
Sn 7.9156437266513135 10.646882432153362 9.267209815051466
Sn 7.103119998997046 5.083524385938273 6.321880320172895
Sn 3.5099117788583363 2.7647555537653985 10.631446160425945
Sn 6.237155816203105 6.649315948763492 3.7098170132653197
Sn 8.452572502144488 8.326769446905203 2.0016806378897685
Sn 4.775567479474451 0.5511795675486735 2.451023407197492
Sn 4.329747558728594 0.7241354691009085 5.464307225979221
Sn 6.550907825794717 10.639110926155308 6.405283099991186
Sn 5.672437424748552 3.2730764642779446 4.104709931380817
Sn 2.703922710178518 0.681428490939878 8.282430976108367
Sn 8.355643769715092 4.956477860964609 2.341954876107442
Sn 7.159345622323659 6.312701545224424 12.865990568230545
Sn 4.2225343747094355 5.207247928040084 7.612764298538135
Sn 3.1698731890664056 6.673530680743522 3.325224472231834
Sn 6.257565001366058 3.3263466272941606 0.5649304161666304
Sn 4.872941134363557 7.963753199221371 0.979706965226609
Sn 1.991313009906917 6.080593826428316 9.972387287921736
Sn 4.439350278546015 8.182708795587207 5.961364646267799
Sn 6.085420293642867 9.765202792129065 3.3194379062354034
Sn 3.0126549575523143 8.725018114633372 8.955067329852495
Sn 2.610204026029897 3.2189033041575827 5.949451293987097
Sn 3.5026935273789066 3.221668857154904 2.018089254461027
Sn 4.856336965657567 11.240832423246685 9.06573792956955
Sn 6.076795812205443 4.371480910408746 10.865514455272974
Sn 3.646815605651503 11.665134279587747 6.1338972674242305
Sn 1.2632089199787397 4.395154765918018 3.569072887772295
Sn 1.1597454305444281 3.383214073886891 8.523527717858094
Sn 3.791461537148587 5.08494456980695 12.559675265462376
Sn 2.095282451103341 7.240792674668893 0.5308898462503543
Sn 1.5604511793293827 6.2899565694527695 6.835613872553595
Sn 2.954965069571935 9.760466438827361 3.6012026809584583
Sn 1.4277626117862636 9.399276652775132 6.341979729556795
Sn 1.7760098572695133 11.4529189795015 8.536717572898137
