5
Energy = -14.88354066 eV
Sn 5.672232008548437 6.095897305225304 7.528640184810161
Sn 3.4963721024829053 6.826711872053692 5.8614489514422345
Sn 5.637274545727734 5.746977914505207 4.340283426713583
Sn 7.904141930227381 7.0633027079774555 5.77378710937656
Sn 7.256240311200413 4.011140894577471 6.127233203360529
