55
Energy = -194.11208647 eV
Sn 0.880349381672438 4.940194651661657 7.773684008426326
Sn 8.733352646140032 7.063086628349029 4.095556725942168
Sn 6.694415550696302 1.3263158828928856 9.356635027743772
Sn 3.7390436045006394 3.583878886330908 2.8196597758255133
Sn 8.770787695378194 7.303989315394307 7.846729405449746
Sn 5.530840176666133 5.817145499660884 12.664042697722115
Sn 3.758784733815235 4.196499810599199 6.20090271942911
Sn 0.8328915824020613 4.743693979873126 4.645947817382869
Sn 5.765189647554181 6.504557447967042 2.529613949847786
Sn 6.393189269320529 3.8377299014783275 11.315059527531197
Sn 3.8215600783614883 4.016218907754782 9.649894017181095
Sn 6.282121356181731 7.619521356813187 5.970504366096326
Sn 3.753471739810212 9.264606592701908 2.3330737302948052
Sn 1.0448497353627468 9.663071321460688 4.350527220383616
Sn 5.847104029585277 6.933793238365845 9.540449804627073
Sn 3.8383049123815574 9.752826005777303 5.828424723909589
Sn 6.273326813771158 3.2147270561171863 1.135576067105592
Sn 11.09131273673306 6.722597556242059 1.9737961562656219
Sn 8.82336684915876 4.429188550252771 2.3338642746896263
Sn 6.4359876519234085 3.9964345045742635 4.3584080603966315
Sn 11.476406953719843 6.173649135590597 5.9928907280693045
Sn 9.195133354415537 4.326862045741265 6.144523248965464
Sn 6.474721575917447 4.22202667477769 8.0140359775123
Sn 0.26750230968051525 7.105574149480213 2.8809764084584173
Sn 8.902720148661137 4.9008946024923175 9.913825902469918
Sn 6.26047723844601 8.71085348829402 0.28402042796120075
Sn 0.3458993716879109 7.508080024992617 9.234282337743407
Sn 9.043128476760398 9.30942551136303 1.5373886561974903
Sn 6.604822697734916 9.499916824841145 3.4321012715906423
Sn 3.046135110484683 6.872022242356998 10.937763134511307
Sn 8.918378358907805 9.987476037585694 5.795866029842819
Sn 6.653818182418924 9.79583391620958 8.253130172499066
Sn 5.687209982086425 6.624708496470097 12.664042697722115
Sn 3.6541391515398076 1.2178331642899773 4.791156109342314
Sn 11.254239013672061 3.6789851157109466 3.7864518620755105
Sn 11.181816484106701 7.215841196257886 9.932838636356308
Sn 3.6892251793779782 1.4244180210980815 7.983547686592719
Sn 11.303616180443324 3.9739057831087656 8.513479522442612
Sn 8.691954856301752 7.2264622902609466 11.870108512677938
Sn 2.9311525500221483 6.263348818419657 1.2197601958493836
Sn 11.13557028959787 8.950537292889662 4.014875071731877
Sn 1.102096373423251 9.85771368177237 7.439257661268519
Sn 3.0653425872794235 7.005766127953282 4.363869721897607
Sn 1.0987577047837926 2.260742800160558 6.358708200115475
Sn 3.8356024277456706 9.693784739952665 9.443320730871733
Sn 3.1149838502374405 7.223024280944867 7.708739915922377
Sn 12.76182528760397 7.3781365338563285 6.066261892353686
Sn 6.387940821846846 9.398682801956205 11.48445601262258
Sn 9.347992969278467 1.4739221598463534 4.814467519761185
Sn 6.635098712388297 0.961224547786333 3.382202148439672
Sn 9.136049905481345 9.84162508444688 10.08900143025893
Sn 9.377792338530892 1.657856606935851 7.819612658664244
Sn 6.352362191342822 1.4550434487100936 6.353156675295616
Sn 11.183199838959233 9.168452053964927 7.627815729858457
Sn 8.555980505600317 6.49651083643212 0.11305820770924825
