51
Energy = -180.68471313 eV
Sn 2.0897904396410487 6.072937164705294 7.870909866416421
Sn 0.6126607314751218 2.3033483730871436 2.8435896082679224
Sn 6.103350692613687 9.300211354670484 7.245176366705047
Sn 7.015816741268487 2.2913226622720066 9.611577476380825
Sn 5.78512152158027 4.3452376060964735 11.606218335667
Sn 5.870698427255423 11.554924318486059 1.281800979012405
Sn 8.372649161817588 10.122419152325689 2.1053064965781023
Sn 3.4969917877222207 7.746560588742788 0.6950181544648375
Sn 1.6735016215225778 3.5368419932272883 9.797457457959707
Sn 5.397218675597629 2.167373464254911 2.6701379092810607
Sn 6.352654050488991 7.950329269705751 3.749481345416835
Sn 6.767517831809335 7.679305018593152 0.6446936507690731
Sn 8.522303716881314 3.44233790865695 2.9026380011799473
Sn 3.065661104201821 7.511685275475359 4.4810241063167275
Sn 6.521201206354855 4.439678910130271 0.29881183306423553
Sn 8.007881896553863 0.2606396787221871 3.241497531922257
Sn 1.6819151022430705 2.415609540280101 12.254384887147094
Sn 2.859022943994751 0.2543319977546408 1.8245005906320069
Sn 3.160447766367409 5.971368123297119 10.886113330677697
Sn 5.317772379738977 10.261133472584934 1.5707564866754342
Sn 3.551950917844191 8.558548006239281 8.953963050333636
Sn 1.65022595668996 4.905314557388151 1.632893941139583
Sn 7.3789842743771015 0.34679794942377 6.54531541543776
Sn 6.3215236807876645 10.95735321953066 4.4688881757610845
Sn 4.601488571835707 3.9507911064482366 8.657907058933548
Sn 4.699204197101065 1.5875227226354602 11.979101946888564
Sn 9.64517044314248 5.947606949882114 5.493036304061488
Sn 4.120857510684128 1.6963281578264418 10.909295171564866
Sn 2.534006157080044 10.053404340124494 2.8637133791142286
Sn 4.620075386909092 5.4980665011307694 2.3430151147199503
Sn 6.32999347554675 6.634326114017996 9.644852001013042
Sn 7.936179790522783 4.66437711797851 7.727730143490294
Sn 2.325250930566323 0.9623870602412762 5.002867545116534
Sn 8.986369010325038 9.225948327560147 4.969660785228716
Sn 2.5719677479289635 1.1525758475381087 8.126395317859266
Sn 0.5904826447848064 7.705927003326087 2.283209904348224
Sn 3.680482073164129 4.672874582687792 11.606218335667
Sn 4.977843791124898 6.494662036346332 6.837072357598221
Sn 0.38235940902230964 6.229862156994685 4.976965750140511
Sn 2.7487576247978818 4.0163682465347055 4.502022961377454
Sn 5.291700528026285 12.280268506962075 8.697036765349424
Sn 1.0199702004413242 8.70582681406478 6.8427580691080605
Sn 5.134451040139322 11.880364129230113 4.357042096290404
Sn 9.12750028198058 7.108219618839053 2.6535480159453146
Sn 7.715825215262968 1.5052257240700504 0.4559977735321972
Sn 0.5843509151070643 3.5573641550345307 6.8150604428683375
Sn 6.652840617228973 4.642066566114669 4.956991876733082
Sn 8.787744370619635 7.764375127858378 7.778905484450869
Sn 4.99618400614075 2.179371487424531 6.176715266625211
Sn 3.3680953078127187 10.28798599388942 5.827651396239639
Sn 9.194377179421709 2.672011134251456 5.804790873193049
