55
Energy = -194.67429023 eV
Sn 1.8145783475354227 1.4675144975437062 5.944930793457137
Sn 6.0777111858905375 13.689023563618413 8.361366061221347
Sn 7.793509541915542 2.6986199267860425 4.6504295795849
Sn 10.578064727277871 10.883505269221821 8.722068293941534
Sn 7.221625823588998 6.529440780934313 7.88896736482908
Sn 4.632976799267607 7.667966017367219 9.307330734839985
Sn 7.972853298981974 9.33868950367015 9.033031184338515
Sn 6.175117226639319 10.18839971189252 11.366170187448233
Sn 10.002036522204031 0.9783320417851287 6.248019950137391
Sn 1.6096587997925278 11.267729522170743 5.772922732935974
Sn 12.650013951949443 5.592856098800984 7.729769861662455
Sn 5.100560107696451 9.669649385103058 2.8978781952481167
Sn 5.780129419339507 3.338031036370402 11.774822412210408
Sn 10.139864727417253 8.846468778793234 4.6191420562918335
Sn 1.4447576285070562 4.877001235731406 5.496870152872086
Sn 8.323694011312567 11.643453406171314 6.777630824161312
Sn 7.702278540926764 8.130185482972687 2.5296323522662614
Sn 3.8485255931059323 3.3758165784563663 4.663524455409489
Sn 10.714679454283173 7.9775995249800165 7.49053876929146
Sn 10.248372138105424 3.9174492860613004 6.755738632409967
Sn 8.289777543124044 0.4784727776819866 8.716298557486677
Sn 1.7441887961476572 12.27652339977682 2.9144001158868824
Sn 12.700008026933258 4.489666106611008 4.853656811748063
Sn 7.596764264351595 3.28530871714796 9.441867374359763
Sn 1.3396672799972527 8.115256032688404 5.775769547974078
Sn 5.351309449299894 10.99187966321658 8.45726124820593
Sn 5.152002284100636 0.9079802349795968 10.104019083711622
Sn 6.049644334132676 3.56718053564922 6.925550429708204
Sn 7.114164835439208 7.090402479715682 11.137086453895247
Sn 4.698804475268969 0.9584843869663463 6.85985065080163
Sn 4.271168767584408 6.08219272845725 11.86313805993369
Sn 9.293639675803153 10.610996513155303 11.505945403156629
Sn 9.035237479074386 4.4843875148306305 2.2291672278603634
Sn 12.989442978942582 7.48105068051736 5.297704105212432
Sn 7.250590867806666 14.798086699979761 5.749394455366746
Sn 10.81810461352875 2.456109851724411 3.637573404675284
Sn 2.9262196064894104 7.544569761368376 3.146370324401436
Sn 8.745272244760766 5.911671087178966 4.96505521530374
Sn 2.557690543035922 9.777346908904793 1.0527358490325676
Sn 0.4517937823958821 9.567367206872323 3.2842830273463557
Sn 4.237838798531092 4.391021073557389 9.400019425217055
Sn 5.811645162367986 3.1528357933816626 2.372315470009701
Sn 6.611315832239357 5.679757830168428 0.9075131618375349
Sn 4.124290344104601 9.322681909460766 5.777990763715025
Sn 7.811696511973333 12.64413282300449 9.896776359844408
Sn 9.679815854905112 5.692251231113389 9.381433038568957
Sn 7.156480866325627 8.914304098490614 5.908629389819906
Sn 6.342027950227511 13.689023563618411 7.615956419845162
Sn 5.765761852452435 6.084112447874365 3.7683967481254466
Sn 4.4460614150942614 12.265823717538524 1.6414722723684525
Sn 4.3637702404115 12.237191967547425 4.733281062328164
Sn 11.199606853489346 6.513336639184963 2.9648152578475426
Sn 1.6080729992751284 3.6778907197022446 8.232752905843956
Sn 4.188500621276283 6.038451687526984 6.485917205623818
Sn 2.354284553904226 0.8729919310595489 8.872488128911515
