55
Energy = -195.22901211 eV
Sn 3.2623307087729896 2.4088380812564387 11.78455380500308
Sn 7.807567731079371 0.9153844396533451 4.958400471336514
Sn 4.701955241738349 1.3352872906737239 4.441708745231606
Sn 4.171514581422327 4.078115899918673 2.3094159723859917
Sn 2.328602936493898 6.876697762936309 2.1390694982571006
Sn 5.203475002265321 7.10558917074905 0.9933637166719228
Sn 3.191167988114884 5.517350412839757 11.674955474005364
Sn 1.599544839360348 6.2848254811148845 7.918937272147335
Sn 8.117207428410905 5.1912176794987746 7.9955071613644515
Sn 7.273859908961216 8.600982497105923 4.173099434641641
Sn 9.269246764654955 6.092722569202478 5.012540841759947
Sn 6.75052630805109 2.3229813811359517 7.6016959912498265
Sn 1.0930125648117577 4.037719533550794 1.0850434662048625
Sn 3.4134095304012977 3.4120484215495215 10.450853308404286
Sn 1.0954643980256522 3.328733015201841 8.137202828179406
Sn 12.311648115825134 5.219572480194335 5.047770970795764
Sn 8.416203431148595 11.029819945510265 5.721679327527129
Sn 10.366543571034944 4.955085558749732 2.2902022066815126
Sn 3.7451437072281224 7.481749843685792 5.399965413105031
Sn 12.311648115825134 8.872821953202868 7.842057343898858
Sn 2.3657124770797666 1.4420416731170769 2.217056421877832
Sn 7.0465202710852894 10.556045231430405 8.459239140501579
Sn 5.958724615980231 3.950245713060426 12.144829809544436
Sn 11.022936494078005 4.065286162801014 7.567127743861654
Sn 9.582980307622993 7.972322072708692 1.962659321010953
Sn 10.491891241825746 9.218395020449858 4.493404935536836
Sn 4.239165418647733 9.470351616148642 3.154925670966469
Sn 6.42571870210842 7.790806023696192 7.095237500685378
Sn 4.814175354321252 5.717757175461562 8.807125027780733
Sn 9.907500030665032 4.308371026660964 10.485497186398536
Sn 9.787769420702906 1.2283066597140944 7.278931673185876
Sn 1.4943042445066512 4.6429006278890625 4.236376127729793
Sn 3.402968752201995 6.41380064123244 11.527967021119812
Sn 0.9424996914497396 7.986896015110051 10.610554177458077
Sn 3.893334150620795 4.155034929105628 6.093084279046814
Sn 8.22838091597094 2.5450477989627562 2.305234926955287
Sn 0.5983450036946638 7.433181003068856 5.185469665026968
Sn 7.298964942656664 5.533808338645519 2.3625331746672655
Sn 11.329284119447893 7.482259702640208 6.791567923215129
Sn 1.715748752685737 1.706399706581034 5.343000876615085
Sn 8.547029567373674 1.6220065210550358 10.084432242186962
Sn 3.6902818516724385 1.6095123878032467 7.849181574424472
Sn 6.666310183560415 3.8421161609349603 10.689258490223143
Sn 6.534563320705878 11.698100737278327 3.502468951035848
Sn 5.054970589515159 10.695619667199994 6.040604191723969
Sn 1.9870735429704838 10.138097919547187 5.7668049091330635
Sn 7.8990592620446645 6.596977974249791 10.84828802549092
Sn 3.1207786701770956 8.869098043292158 8.390196039107314
Sn 7.069123100473895 9.606845769337243 1.2764353685541368
Sn 5.465950239204785 8.426397790035933 10.333581203116019
Sn 5.378765332561179 1.2213444254304016 1.333012575281987
Sn 10.495297183584357 2.7262403631022303 4.718094450298432
Sn 6.660394255624981 3.8468878771850954 4.852137957567551
Sn 9.084968334845177 8.32359573651641 8.660221158498574
Sn 0.6720275485645376 4.99099018217769 10.664945080174062
