51
Energy = -180.29094229 eV
Sn 11.734921221245875 4.36139251914342 7.334375880366633
Sn 1.330412632137595 3.484787993526942 9.45495866708902
Sn 1.257593259473172 6.542887002360652 8.028749597755867
Sn 12.43755981857297 5.7489286975539144 4.822091961747303
Sn 11.934141951548696 8.10469553126185 2.907151224871085
Sn 0.568881008943002 8.661146927735059 5.701873636997675
Sn 3.3175981924066438 5.760099656168668 10.592069878322823
Sn 1.0851167363033325 1.9611839623023881 6.543588317806541
Sn 2.8048868579226656 0.782187522656842 8.843490986587012
Sn 1.8540761165461617 4.201958462348458 3.09805794223729
Sn 2.9456246359742306 1.2585080556041277 3.7276620402083855
Sn 3.0949723067319908 4.222083993491591 6.748584291238615
Sn 2.7863600846154806 9.124332704541978 8.499773568790111
Sn 1.9720364913132933 6.902508661745574 1.644405517301329
Sn 3.577393519236364 3.937941743466703 0.6118425967675094
Sn 3.0549920664369905 6.815696483463671 4.619654581149826
Sn 2.057810013143904 9.753202452508859 3.131227782476872
Sn 5.195119942078205 8.398372745613345 10.63052840336429
Sn 4.343060243998206 1.1033804309277246 6.29576054191143
Sn 7.035911974042706 1.5152257436892491 3.8490150777564516
Sn 6.573799778585918 5.5704937223285285 10.894965144126497
Sn 2.3330817489293074 11.040269014727862 5.977814706337244
Sn 4.524367497806592 3.2853134973741174 9.380141632088705
Sn 4.840278570001324 3.7870196612993765 3.589829094134771
Sn 4.750652416344544 6.836686733508145 7.887659433215842
Sn 6.222546529424115 3.838603126526684 6.619865680956123
Sn 5.083679463969916 1.3866800883348125 1.4715233191844934
Sn 4.7633659901316685 9.34655530287029 6.002533624482586
Sn 4.119952196245555 6.915294181497912 12.077862291475478
Sn 8.570087421331086 4.50905381212729 4.1689367751700015
Sn 8.442002811666146 8.099429617438549 10.239223365333167
Sn 4.769312213291297 8.533083806710225 2.098918946039635
Sn 7.475143270452841 2.859373246441508 9.25851591469745
Sn 7.2871025049714575 0.860362439893056 6.823289841575731
Sn 6.712458364596896 9.787794872510064 8.232216478938055
Sn 6.17511922710272 5.5997232791898135 1.3387671478619918
Sn 6.222656780565826 6.674971317384 4.262901254308002
Sn 10.0351990536001 1.0873730247447473 3.299101273132155
Sn 8.06478202107403 3.07738454143168 1.3851736690490777
Sn 7.942050387153018 7.037106556113585 7.199751152884793
Sn 7.224890114901001 9.59169573278026 4.18467433212275
Sn 10.962700782740123 7.963431149441418 8.35810934765899
Sn 9.390154282868382 5.323016781892106 9.345114462716664
Sn 8.298888941496681 7.834467307571163 1.803269829944352
Sn 9.959445531180142 2.5153630145877357 6.091248801935286
Sn 11.734921221245877 3.6701687143459494 3.7413781643401296
Sn 10.315440600855608 5.441137586574874 1.8437509943410537
Sn 9.361994967594088 9.807339183964592 6.617432045345318
Sn 9.874229120623033 7.651022742100431 4.463430006201728
Sn 10.978651880983817 2.5256535154354407 0.8827627195252552
Sn 10.725039203713655 5.499309929881209 6.478641019764262
