53
Energy = -187.71676581 eV
Sn 12.152901599542604 6.300092061202961 6.549979914011725
Sn 11.144348047546451 5.205642128177935 9.187116102166305
Sn 11.637220717651921 3.4050770042147263 5.80343435006445
Sn 9.047061411294226 9.465325739086474 6.963607048248701
Sn 9.615745471984564 8.02129016376704 9.687658693825579
Sn 9.632121715883477 2.807329028393947 8.186243758104384
Sn 10.292966159841699 5.898866351614785 4.205083211827855
Sn 9.04289264789854 6.341708023233404 7.066629766085647
Sn 8.64723610887596 0.5824837271078792 3.995939951881699
Sn 9.16067193027502 5.626655070598117 11.613355811632449
Sn 10.396942595277904 2.95584255107882 3.0541723237449965
Sn 8.175675935337585 0.3632771689038918 6.946290046696698
Sn 6.642858952786164 11.001715333672184 5.50239222234274
Sn 8.430772404178397 8.810750605992657 3.8062331984258932
Sn 7.887932361037395 2.930009917544263 10.714093628302107
Sn 6.711811439133548 8.212033789143758 0.9989083190567088
Sn 6.957241262200503 9.848719515282157 9.285478988945234
Sn 8.367818241760196 3.3830768224757133 5.442066829060868
Sn 7.34750079373222 8.087014950573021 11.808787633254294
Sn 6.21771836813537 7.745704776728902 6.115664428512642
Sn 6.783138375474164 4.379701227317653 8.222824077255448
Sn 4.627900494363959 10.637495851996022 0.59402543267886
Sn 6.996718893238217 11.234060618075592 2.4594339816024853
Sn 7.096002699196181 6.030373050561501 3.702209642160041
Sn 5.640832218178984 7.130050539919082 9.12028836109299
Sn 7.886616992157405 4.365832965188246 1.308481684483536
Sn 4.869212298861553 2.5355628972827624 10.327605461820022
Sn 4.600151236813668 8.760568516566638 3.3525143013672998
Sn 5.591361065286212 12.344467862949703 4.752048055835422
Sn 6.348660454596562 2.4214820537739445 3.0971919568981257
Sn 5.855620563562056 5.632182090706063 11.808787633254292
Sn 4.765553317388808 3.092483991467793 0.5960296314046283
Sn 5.887194665986543 5.320028949285331 11.5999893860472
Sn 4.054874409497867 11.808970358835134 3.6656800581319082
Sn 3.994200181382566 10.016063827918762 6.471510947942787
Sn 3.7796299128125974 9.67370351387107 9.500407612618831
Sn 1.8974757790698162 10.104846886767772 1.9906373254367487
Sn 3.265451003690069 6.36053784644334 5.528959699777989
Sn 4.730242466785152 3.6157219964885234 5.395552369870843
Sn 5.483429535104836 1.5057680009105354 7.558645909511683
Sn 3.361846804930162 4.5304288934859205 8.519555450175055
Sn 3.4970970918683375 7.826683228823137 0.1850836775555819
Sn 4.452581438071328 5.627466970724858 2.230613640144154
Sn 2.8367430632265322 1.1202906474878394 6.219107518096604
Sn 3.375328994686381 1.4814753186739629 3.102070174213326
Sn 1.888149317106345 7.75769458916748 7.893229272274263
Sn 1.5133903522521623 9.31475715086888 4.928979473352376
Sn 1.7227313403769877 6.984266917501035 2.7988146622451584
Sn 3.0914326840438844 6.776452809655191 10.798815747079137
Sn 0.8207875030650861 2.915022789455869 7.770413977840669
Sn 1.625025446270322 3.6238536470275844 4.578236144443304
Sn 0.5900214992052443 5.4382501321421906 9.544000451165296
Sn 0.2233859434711504 5.63873682600681 6.37971430706928
