52
Energy = -184.25946574 eV
Sn 4.994556862209214 7.208824486803265 10.748818676520438
Sn 6.275863553312969 4.207817357751274 10.958444525739965
Sn 7.65784558622822 1.502560090123862 11.916675121692572
Sn 3.241461205365186 4.5240118440985375 11.009213765355772
Sn 3.0978932160358057 0.055559380434713014 1.2958457580106686
Sn 7.951765095284513 6.725109856722527 11.732143044919974
Sn 0.22649751864020048 4.548586429163538 11.973372376565536
Sn 9.078909539849711 4.022304034199827 0.6600181793946299
Sn 2.0014784538923536 7.289193776107295 0.014699530655489254
Sn 4.447800206162969 8.788821890458841 1.3324556002292944
Sn 5.362941864070376 5.748998218764742 1.6095619431213222
Sn 11.38902326903282 3.8986048792758186 2.8758339023338877
Sn 5.420497509006401 2.3586253987396173 1.7864771725530564
Sn 5.377232618983642 11.07617452756711 3.092101467651436
Sn 11.035299933932635 4.941810669100788 2.69725495796635
Sn 2.383460366248052 3.373879965115703 1.895901286472348
Sn 8.177674144138 0.5266850758434024 2.773610468254684
Sn 8.298195413987651 6.382280479618965 2.731270327814569
Sn 7.676012660642436 3.4699345943993882 3.577412308788082
Sn 11.313172957983554 6.9385941842475125 1.662565246096889
Sn 0.6484470493655139 0.9423398190048484 2.9816979139876256
Sn 10.581298017635433 2.1397415000449898 3.77459759565555
Sn 1.5823772805577587 8.890883382264446 2.639026171881086
Sn 0.7076095409743344 6.440456865435582 4.331600811456049
Sn 4.880182635116233 9.63787763034534 6.739005697513718
Sn 3.24190387713756 4.979655065138038 4.2586544915408036
Sn 11.035299933932635 7.296260649400461 6.646058868557811
Sn 3.6544486892943246 1.3515252081918097 4.389280337337556
Sn 10.294666099827545 1.4053146632037408 6.731950399970807
Sn 2.3825606715472367 10.377989737381858 3.9192598571766935
Sn 1.6729263545137745 9.076374613451902 6.519800631812739
Sn 1.928336371512253 3.5423919012064675 6.466480934769222
Sn 11.097074787229111 2.7265649103075416 5.696370124906701
Sn 5.609117632314275 1.9988291036190253 6.685864966897539
Sn 9.869811107610548 4.3743198271177715 5.761573908016641
Sn 4.836732536320021 10.767551512956954 6.069437306277508
Sn 11.492614724357047 4.676782161088202 8.052488796055677
Sn 4.233297357685807 7.89047237654757 4.253301879211733
Sn 7.189821490912515 7.648367496008586 5.281890063434108
Sn 3.4146986163070987 6.688783862071623 7.404333608233232
Sn 6.049466485376653 4.872750396970369 5.796954896558537
Sn 7.678434160237116 0.07287158822263638 5.746794698037365
Sn 0.795152651033119 7.558390083308065 9.176100519512522
Sn 3.172756223022876 1.228592689937293 8.146756495744734
Sn 1.071121215625103 0.3854215715213712 6.059503757644942
Sn 8.105735289664779 3.0331788349419697 7.98601630110831
Sn 2.211670056646622 4.085301073964201 9.398539025588406
Sn 3.125909701577783 9.620962019889863 9.302705858973663
Sn 5.830619048621287 7.91811745766842 9.110830923037973
Sn 8.280690687929502 6.216769714112439 7.7509874429667365
Sn 3.413518160742133 6.785466537229518 10.672725207045133
Sn 5.494697102254413 4.80926455589284 8.877628173293559
