55
Energy = -195.36489371 eV
Sn 4.792304054303732 10.858691937131354 9.811146987930158
Sn 6.897533225600253 11.474840069878168 7.5100753742170605
Sn 7.739701575838891 9.640264756780102 10.342549711109426
Sn 7.775098055698026 6.530902930331856 11.82469836052967
Sn 5.165137922650925 7.944074895791291 10.904025421900705
Sn 8.927963466153566 9.31490465583123 7.481565782354144
Sn 9.861684987203699 7.090522084792877 9.601994450727409
Sn 2.1835927961562227 8.939526973019362 9.43237004091414
Sn 3.969271791580124 10.325638567777009 6.929184766595568
Sn 5.577458874645134 11.528394336949754 4.178040711985319
Sn 6.2313832560572076 8.613152464787094 5.871332599089461
Sn 8.467395759226486 10.77128639266719 4.657148199814322
Sn 5.454743441511417 4.690923709739882 10.74210789818299
Sn 11.491871092516721 7.742646245039336 6.814396223745167
Sn 6.791922122261974 6.885849378558062 8.547680300943215
Sn 0.9222355191110062 9.285203281480003 6.583525081179326
Sn 0.07690989371216461 6.524352768382063 8.254826294189431
Sn 8.4069689751415 4.427119140951715 9.562948043653577
Sn 2.666552079247606 5.9760697718857285 9.936086389805492
Sn 10.270824346684368 8.401981311409868 3.739702881782759
Sn 8.886646605397704 6.263013887308808 5.4824729071666285
Sn 2.3872968314074026 11.298568784889609 4.517934188688721
Sn 10.908811609822088 4.632473475020507 7.134050272869708
Sn 6.737479639268702 8.782591686774774 2.926423901325299
Sn 3.190859079629886 7.00951732877941 7.047437802002943
Sn 3.784618284181282 6.803678509858891 2.9673736185070214
Sn 3.938641095568583 9.837262947005613 2.2101625687768243
Sn 1.2837982550315683 8.686201961782983 3.218332101592041
Sn 3.6952536789218575 2.4077218744353144 9.247996383875037
Sn 1.7022104465432633 4.0660299361861965 7.501965615130137
Sn 0.45756283061552266 6.5815610931641055 5.28517076474389
Sn 5.766747081338192 3.958528732214679 7.553303176207105
Sn 6.755772712918155 4.3859339543475775 3.77255683635302
Sn 3.775979829275802 4.559203203879152 5.148764147900535
Sn 12.009079137414295 5.953019517705266 4.310534321279589
Sn 9.469354464610667 5.789321672709112 2.384328720656687
Sn 10.214571362573508 3.4963788048413034 4.2661166766512935
Sn 2.8352357122096152 0.43476752071953534 7.070636050630011
Sn 8.210056973050449 2.4186487883401973 6.644849274411419
Sn 5.911356774861681 0.5933679662510791 8.232710847632303
Sn 1.413396732384003 4.6619159535797 3.0450123941282428
Sn 5.9771516734347525 5.9134057264992945 0.9170350697984219
Sn 2.714071347254427 5.132093593256305 0.21634823861727098
Sn 4.393852563643019 3.196516627587974 1.9869863289729315
Sn 1.6896288580406025 2.121308930684434 4.731510329731319
Sn 4.983320593391187 1.5086324892688614 5.038846778051791
Sn 7.3959541584227875 3.0363715222939285 0.767395328849596
Sn 7.81293494973586 12.545961693010351 5.976614873210896
Sn 4.896727488325041 11.53658344496143 6.003159144411085
Sn 7.834565998720895 1.4976819436006013 3.507851055851435
Sn 5.025594509728892 3.6323454505521204 11.824698360529666
Sn 2.5268165819521995 2.0062775697796154 12.765687710680044
Sn 2.8939767744181375 0.5085751113437682 2.4528642000259864
Sn 5.365582064101278 0.8120488613494202 0.21505539137006194
Sn 5.602550142176004 12.206405066122324 3.101919992803255
