54
Energy = -191.02219768 eV
Sn 11.894184681882003 6.286808206820849 7.114715517274884
Sn 10.603205504172044 9.102966475763722 6.3688936253213795
Sn 8.817530390959277 10.714888279148653 8.392272915512338
Sn 12.028154311785023 7.548698514892567 4.061533115222711
Sn 9.813604115954714 6.091677862506814 9.685297089697618
Sn 7.8563296778444105 6.069867165543687 12.11920804921828
Sn 7.913213374573807 8.41753665758353 9.976287088831109
Sn 11.813982194284018 4.475753435989517 4.485836610192967
Sn 9.888927499795136 3.5336556621354744 7.5061047072997935
Sn 9.293643369847823 8.978571835602363 3.584518935532217
Sn 9.271695444232675 6.3687190544533605 5.529466090364537
Sn 8.120638312208886 3.6086175959918556 10.308058439859776
Sn 7.278397526430847 8.715917485057258 6.43945704184326
Sn 6.029381239735115 11.606827447452115 7.603592166980593
Sn 5.2772850399115105 7.626676965448857 11.14768601742525
Sn 9.599227348692372 2.4302450257353323 4.669421589748318
Sn 6.897139945452482 11.124165424760339 4.63210122181509
Sn 9.7948173186546 5.996286946839212 2.577819892866992
Sn 6.923464434142419 5.958925969946516 8.449194885401232
Sn 9.101055225108693 0.257636717209789 6.85824139040533
Sn 4.2670901633471665 9.134107003834114 8.241881574802994
Sn 5.239226998985599 4.629659716321763 10.615093707725713
Sn 7.368669209914228 2.7909165284738586 2.832717282026258
Sn 7.081405345870927 3.995238665423876 5.918504733865758
Sn 6.492316851194439 7.998272279472683 1.7550037571365695
Sn 8.630604226750588 12.983290377660314 3.8854159496763714
Sn 4.241563123752813 12.576327939508815 5.294908545390112
Sn 5.78383224433985 0.16894919628395125 2.9338960349271472
Sn 3.0657936203088045 12.034679859830188 8.191874105728226
Sn 6.055247661477346 6.404858260880861 4.21648609731322
Sn 1.936050184481412 10.569815072952224 5.630678879890098
Sn 1.1803330013407496 9.540389433607386 8.610956285858249
Sn 2.609661455734538 6.941939922977984 9.621134603286544
Sn 4.937130004246065 1.9289067327614176 5.237988260778961
Sn 3.9902317224394923 8.227738909369489 5.415253739144997
Sn 6.272093447611808 12.576327939508817 5.9679333646929456
Sn 6.642722980706609 5.05553665992742 0.7879128473426603
Sn 3.7494120623745153 5.209378667261118 7.338951482768852
Sn 4.320251137642523 10.172084348570982 3.2116472903747413
Sn 6.69235111137475 1.7277623948816556 7.948306723751452
Sn 3.2242052180852054 5.105711998636776 4.17812885843276
Sn 0.6025789965094184 4.299572801471066 7.557896185314537
Sn 2.74575050242376 3.0463927910422344 9.371400421513309
Sn 1.2870986595541838 7.222968488299665 6.605564591844116
Sn 3.9812846327043125 0.41257843958153484 8.156180046450565
Sn 4.340621949801762 3.2266157101015214 1.9590315230106643
Sn 1.5037401283772345 7.734897221593317 3.496387380872525
Sn 3.736037192156961 6.728258078445059 1.4750614352101858
Sn 0.23872225766221686 4.998400523381816 4.301627730882925
Sn 3.9404227924892163 4.528242755742714 12.522351618754257
Sn 1.515516668524528 2.4776530530510454 2.9842338052361317
Sn 2.220027072013604 2.0911839397573395 6.354740282298478
Sn 1.334233107279883 4.872931602011427 0.9510023703761766
Sn 2.3038435798539236 2.1136856849340364 13.344380085198418
