54
Energy = -191.62630005 eV
Sn 4.183452700607887 3.6002162784343374 11.875366343396427
Sn 2.001854093233067 5.219044466890437 13.261422213687279
Sn 2.32480898874876 2.2148977239023218 0.7579672401033941
Sn 5.420884372608339 6.099594108099551 13.054133564996087
Sn 8.542807995509916 4.980574647541458 12.805940073028063
Sn 6.397122244821947 2.6959596125306415 0.43210481557805475
Sn 12.951588831340858 3.7331106965833913 1.030834178574673
Sn 9.38109792746989 2.5364948278487045 1.124144355802991
Sn 4.248349362768821 4.601546880539394 1.9843832115209168
Sn 2.9307442097410856 8.083824699735475 0.8135926369744042
Sn 0.6164770769977097 1.6027508514793103 3.59368292619472
Sn 10.328914810812172 6.070869554325231 1.7440103636821054
Sn 7.764097027636658 7.771533605988145 0.8863009834175694
Sn 4.560315170007519 1.6879376965104846 2.8434942661208953
Sn 5.420287115144395 9.300786968734661 2.010095232595164
Sn 7.5260291184337476 4.907112617967372 2.526958357797316
Sn 7.924137645350273 1.9721126576447967 3.9375712400140457
Sn 12.575258495258401 6.348908992168488 2.62507014105137
Sn 9.675237953160906 8.841573253024254 3.244992288983232
Sn 1.4104097228927739 4.557410330705124 3.6395859140188938
Sn 10.473666221241757 3.8461031424812138 3.7608262848085414
Sn 11.574996019595167 3.6647717064846033 3.9168816134362165
Sn 3.849983380852741 7.199676908834672 3.6725648986569257
Sn 5.40314518031522 3.8670248720451794 5.020506136227552
Sn 1.0673052720351335 8.706642129726475 3.0688170240021795
Sn 2.9226688946406236 2.071257723374049 5.729318367205785
Sn 7.3442571262899845 10.749714999624812 4.040486622823468
Sn 8.294337952423152 4.706433839881751 5.964638602837298
Sn 12.73521255140131 5.955396992560914 5.738079254956702
Sn 10.229595703380985 7.111626334899814 5.560930479206914
Sn 4.3249979718715865 10.126626188649974 4.88048872680166
Sn 13.311299632047444 3.0138826897927657 6.399138094916494
Sn 5.889239381149316 0.9726623042543348 6.136098639665229
Sn 2.408224357413907 5.063111724753309 6.712944875054018
Sn 1.9742642537524424 8.014311057425779 5.867142616558549
Sn 11.574996019595167 4.6165463071497035 6.438125340196065
Sn 6.7612551597773045 9.661763174627728 6.837047358215985
Sn 3.905681516987559 9.245906240246061 8.015654691248233
Sn 7.024681440349926 7.569544560665335 4.442254876845435
Sn 8.808486890900548 1.86818517127399 7.138007812449683
Sn 5.499781361199157 6.558910353994581 7.4369638949148005
Sn 3.685813984582301 0.0031460768920809064 8.222617660679441
Sn 1.4553334155068045 5.436584663973314 9.561188106462554
Sn 5.114357147737277 3.1894997345684546 8.581801928554432
Sn 2.160195271291808 2.5281667447557803 9.232739297113035
Sn 3.9236441391828096 7.008916508115747 10.2797773591483
Sn 8.538252512268194 7.239414409173516 8.079395446806155
Sn 6.477958452838995 8.650817673900749 9.931785158352364
Sn 9.571326231656418 4.285482268315213 8.752154922624435
Sn 6.637098088308215 0.5160856490163878 9.146110570659847
Sn 3.819161116774379 4.0749772119312455 11.514519885663512
Sn 6.681150268817945 5.502353885814377 10.212879226924365
Sn 4.108603913691412 1.012583809073008 11.162418550663865
Sn 6.682753610495664 2.6211549637038263 11.3852332686435
