54
Energy = -191.09143445 eV
Sn 3.750415873434686 0.40164669025537447 5.5606839047432794
Sn 3.0062431113794816 0.9086965042006037 8.584647396874965
Sn 6.666643280484669 1.3457198727360713 4.5998405647251985
Sn 1.565538756270245 1.6342113670056702 3.321719291546154
Sn 5.373103909955723 2.6536138566518623 7.451440317048436
Sn 0.9769635896697892 1.6376906043563186 6.32590750771098
Sn 5.238355127620491 2.6791665938627194 10.614128553273176
Sn 8.54902890908705 2.2884386335855535 7.264598463073521
Sn 4.523253745583882 1.6608176885864103 2.4615549422324823
Sn 8.231900045879408 2.82585089527012 10.412311410643182
Sn 8.06250816403494 2.154272173168417 1.9885773141076173
Sn 3.5315998552941643 3.510912480117422 4.924279775918517
Sn 6.768356460986299 4.781820475006414 12.531059044897642
Sn 10.465803840149542 4.566673848015571 8.503359362256079
Sn 1.6018993691064056 3.5105586740523 9.045236798633038
Sn 9.780324929020182 5.307296152546279 11.475850599054546
Sn 9.899321003523479 3.4434160666138953 4.268440372435364
Sn 6.3384857301311195 4.297481545398915 3.6542275697516886
Sn 3.772784963185583 5.450155422588094 2.2864924623585132
Sn 11.907039926909366 5.484626802686275 5.351248523548538
Sn 0.9533673141362836 4.606974920600876 3.1573132019269328
Sn 4.184290631271742 5.211608325494638 8.65301061484502
Sn 12.29562927710962 3.7251153942407242 7.374939462851684
Sn 3.1373065761800385 4.590492220552268 11.560408217866037
Sn 11.783262569796815 4.995994270836285 2.2077710807777553
Sn 5.729698273644173 3.769854121677598 0.6383662505186244
Sn 7.85531250207265 5.072774412779005 6.414961715453476
Sn 1.7160533374012048 5.33106034384949 6.439211268474668
Sn 10.438918805450813 7.661927288208892 0.914218195155017
Sn 12.251613075579348 5.832510731391395 5.126999757182298
Sn 7.357569315912056 5.667562586368778 9.46282987824308
Sn 9.24468244291814 6.445031964335951 3.7351472865029662
Sn 8.8612021191544 5.042864706145986 1.0151936109842348
Sn 5.7029700952620015 7.591773861953819 7.14320213463232
Sn 6.7659161523155396 7.5440361027807645 1.1773796925119204
Sn 7.908395947429178 7.7101615620690716 11.857827210610546
Sn 3.6090902365853714 7.45097975586921 4.671450383688121
Sn 4.9123873872435135 7.020213296144881 11.136773482881663
Sn 1.0518832402133733 8.052685412369549 3.042207501995317
Sn 12.251613075579348 7.808859584303148 3.3809139776386488
Sn 6.607717044175187 8.554541766604823 4.0027679450002065
Sn 2.5757168183733086 7.983545650199433 8.469813740917342
Sn 3.604183932901896 8.297259338067565 1.2120526884770544
Sn 0.7543116180136676 8.365000317610676 6.011647452815898
Sn 9.869829425414249 7.212120774611264 7.240341246359534
Sn 9.818336010064195 9.205573938183608 4.792863029005225
Sn 7.991320779286155 8.794677397212826 8.96441820024774
Sn 8.502560924450272 10.030060106246168 1.9786136744652516
Sn 6.984321308623418 10.384865421784811 6.382334595091241
Sn 5.077704177788806 9.65150142187725 9.596425134770652
Sn 3.5859395660747135 10.401411348486617 3.4435149641993843
Sn 5.706999281964897 10.551088809681834 0.8334912854366966
Sn 3.789764407639559 10.066003923054462 6.586093342412454
Sn 6.369111188800949 11.714332086563205 3.6340236027735084
