54
Energy = -190.56053532 eV
Sn 1.4729394124264572 4.595050327378344 8.0389397855288
Sn 3.4653542376433335 0.8366069400357343 3.1419821815357394
Sn 2.3721458031589333 6.0783055971144 10.747722143822209
Sn 2.3507270632576134 2.519055803999355 5.800650797044404
Sn 4.985366683473164 1.5357258498827788 7.494438474268992
Sn 5.930068133960948 12.74884405786723 5.238634174282173
Sn 1.849991546775012 5.705701904967294 5.227913259227067
Sn 4.901153648858026 4.328902307140618 10.503141483352469
Sn 0.787629486068988 3.483243259195635 3.238014604829231
Sn 4.960475869050701 6.9496184271068335 12.317041778174316
Sn 1.612691217721201 7.696705716743342 8.274044973766808
Sn 4.648703943373639 1.551382011044275 0.23142751565161512
Sn 7.988337949558955 0.5379857982733769 7.357225997767164
Sn 7.475866580328751 2.570689670919427 9.65379723261895
Sn 4.405692924681544 4.83022275871037 7.286781497575802
Sn 0.3497364192952916 6.888505838212445 2.827615735630321
Sn 1.6794729577256446 1.9570856775249925 0.757300557079745
Sn 7.406259171926249 4.774519285607707 12.19207799725213
Sn 3.9151369849731945 4.026577936356209 1.6298123066502963
Sn 1.9771194785045811 9.768419606581308 2.540165724468108
Sn 4.756365282687125 7.4091922131130366 9.063256303056633
Sn 7.8452266526902354 7.532371988881226 13.364138274377897
Sn 1.1668826659606801 5.009547785879639 0.5136915191857353
Sn 5.342060619142282 2.7476006608610857 4.627284664413012
Sn 0.9474000194007239 8.914139276320107 5.350717066323234
Sn 6.6276100852962605 0.4061362856703345 2.2985195791475466
Sn 4.649394711538327 5.787429293941799 4.099188416761034
Sn 8.938925413918698 0.6462153590117041 4.389171464628407
Sn 4.033995377018908 8.7129245138569 4.807271878684501
Sn 7.418320943447877 3.8052780564708746 6.829252182807827
Sn 3.235723418078506 7.072555952564403 1.588853339594566
Sn 3.3648663510453822 10.17647728728632 7.386042151055196
Sn 7.413459064540374 5.863361152237441 9.138170202548809
Sn 7.782060646171048 3.232540938291487 2.8565215035428415
Sn 2.6047069263778715 11.778005452632753 4.927783258741529
Sn 10.180383217545982 2.615491802610395 6.406954722151845
Sn 7.028224886073926 8.88025844398817 10.811249433362534
Sn 6.870809858470957 5.1427971614607 0.6437838681974752
Sn 10.217940082659437 4.281072398685032 9.105915873091224
Sn 6.947040784873322 8.241626026683633 6.635407503217091
Sn 8.112544278354788 5.964635026086685 4.594282211497646
Sn 9.634967515209455 6.9131967425278305 10.95427508047058
Sn 4.924334428547088 10.351649079126807 2.402257134674525
Sn 6.202412259241704 10.717292010708944 8.57494165112371
Sn 6.5319516433301175 7.661357669577076 2.3470021067287234
Sn 10.564479639696028 4.153688437000019 3.7094515907234054
Sn 5.653701343587002 11.403323200194382 5.106612003303416
Sn 9.949558950295728 6.548173756451789 7.11754730367223
Sn 9.34791811501349 9.108778526148496 8.598262062033163
Sn 9.765165359013245 4.097133837795857 0.6623849731634276
Sn 9.442530721189764 6.9152176572153445 1.6451490323834836
Sn 8.59518982957103 9.205933377484989 4.100485919573335
Sn 8.378068996985848 11.179094368395306 6.472444512739656
Sn 10.996910100991567 7.259666205524521 4.33677001296765
