52
Energy = -184.23011758 eV
Sn 5.502854543410072 7.073764785954977 12.633409871758584
Sn 3.5548888884354395 9.25616564051833 0.7412966313271747
Sn 6.474909452128303 9.386829348453146 1.782348478961756
Sn 2.3398681083149837 6.498229041610369 12.719983393762494
Sn 6.957526812359742 4.221402970266945 0.22882612390258464
Sn 4.858334281560825 2.22194459979758 1.418636714752785
Sn 7.5477272500487915 6.576751389709465 2.1046232519915016
Sn 8.086125322899587 1.6838111320041351 1.6473995780840345
Sn 9.601159946584843 3.4985727368626716 3.5429263919258447
Sn 9.142071118442102 9.71740677162995 4.192426717313975
Sn 6.488475251785929 11.209849313597562 4.540173797747448
Sn 4.217628782660969 4.174207146212265 11.963121849724448
Sn 3.8682803427544066 9.634269720666286 3.8149843723956183
Sn 5.353070922365104 4.649763237587002 3.2185328353814477
Sn 3.2840098517360774 6.822579631270128 2.640343456078201
Sn 9.566361775637416 6.6298388696465524 4.529500297935261
Sn 6.776794603393903 1.799317640226571 4.311719921007536
Sn 6.061860677755798 7.562509226801984 4.694535364103505
Sn 3.7665584125108316 1.1422954565494827 4.881878837726179
Sn 2.4621109923136597 4.045827851361149 1.6454869975206623
Sn 9.756217129611606 0.6021904773853922 4.794318847677977
Sn 7.627305340541508 4.461630014915552 5.794939734416806
Sn 10.719818158388927 3.257186771828607 6.291533775448951
Sn 10.798545187156817 9.262158020456113 6.667226927698429
Sn 1.2754171045226612 9.640588420534085 5.594507669770468
Sn 8.791202094143122 11.508201842368965 6.8072252726004
Sn 7.750712299378241 8.604080132083118 6.991138576926427
Sn 3.3102668441980203 4.34524910919408 5.627056893998647
Sn 4.451283688338579 12.890069926742399 7.574819667594852
Sn 6.823259969037857 10.60837259038373 9.086493561439406
Sn 1.193727423217618 2.6107282576260333 4.175582238651194
Sn 1.2224151787934001 6.6847687051240685 4.86781430132595
Sn 10.329395669189186 0.5657643627520107 7.804207711341948
Sn 4.627116623018746 10.567643934139213 7.065354050421796
Sn 0.44478027886075 7.493343230958244 7.794220159279157
Sn 5.399432113602407 2.8946227167204768 7.435977511576728
Sn 9.899584761382478 6.432162155870387 7.713388671410308
Sn 3.5670881937960286 7.673459450090467 6.967540177253483
Sn 6.5526515183126275 6.082665055294131 8.778210307525786
Sn 1.7938820413058691 1.7081786700552115 7.3487420934923815
Sn 7.446080583760364 0.42714518084809194 6.932835417710535
Sn 8.539279912237456 2.9634234226305467 8.482205626190432
Sn 8.651087480371949 8.246345193018021 10.214009669556484
Sn 0.14854487690892104 4.36872085342284 6.587644688190922
Sn 5.426141916025694 8.392153294169457 10.582253537197762
Sn 2.5932296558182153 4.516289694522883 8.605078709966943
Sn 3.6286694248799205 1.9450431462439475 9.876234470005132
Sn 2.0246371340434774 10.225390838613762 8.444252350522168
Sn 6.332479843909231 3.471553512908463 10.497153310579328
Sn 9.4204343689775 5.245163934770202 10.485933741958519
Sn 2.6501578528303296 7.380593532818951 9.884853448054354
Sn 6.875825378335203 6.095674790806564 11.963121849724448
