50
Energy = -176.86253409 eV
Sn 5.102675853821829 5.967647768024658 11.488652563605946
Sn 5.026106855584129 4.309709725623475 8.89758349183524
Sn 7.696705500596334 2.698830526635809 8.684063519729436
Sn 4.821110324511813 0.9084585134705278 8.070023294059288
Sn 3.3396493960997464 8.621135190255336 11.52106294848367
Sn 6.555810158823975 8.862391427878034 11.257344597286545
Sn 4.082955925880444 11.17198202826287 6.368502332421057
Sn 7.868871842476032 5.603684761546325 10.145096184655063
Sn 4.96477467181039 8.215248391873208 8.57965752712817
Sn 2.136276524239547 0.794531347850373 6.390540098985657
Sn 6.941331854947344 12.278446915017332 6.0283172737502735
Sn 4.472452634594292 11.134636108939933 10.248200830480036
Sn 2.5360237430504493 6.337193620241465 9.508719693174271
Sn 9.305912611998073 8.22268739306198 9.585589857522224
Sn 2.1637931041583163 3.253952379250414 8.251315371720855
Sn 10.20194417600166 2.221385908625363 7.1111306114525314
Sn 4.214210082156344 4.889184454021678 6.147055934871082
Sn 5.366981220453451 2.076951094166478 5.31781304239657
Sn 10.255931637469363 5.0604232588638025 8.021362879398708
Sn 2.1963923376618304 9.522666738325917 8.654915815990933
Sn 2.1431236756798504 11.633219493313032 3.9946876335142396
Sn 8.157917072253165 1.3662488435327305 3.922057510510284
Sn 7.145802749837867 10.68867199787196 8.706546995936787
Sn 5.1364605507214876 11.862413532306213 3.471727237453151
Sn 7.478025774371036 6.831454515952444 7.337483288512604
Sn 10.31867398309302 3.4928186684804197 4.374207065820985
Sn 9.209437575117702 9.29100783619713 6.739576581840918
Sn 1.7672445081826795 6.985514975986037 6.474702199795657
Sn 7.8303271883674 4.107696215423912 5.929359943405956
Sn 2.8403568370155057 1.756000824773138 3.57449026316469
Sn 7.895614953555514 4.380730232908855 1.78150965948341
Sn 10.178752826463745 6.702429128890091 5.48303499874973
Sn 4.346553728349086 11.133333324925921 7.114232536775731
Sn 5.685583386237607 1.8492299002056471 2.202036371186614
Sn 1.4767008458429673 4.0688462941077255 5.2985482960533545
Sn 1.8722287684606105 9.443817102919944 4.6546224825671185
Sn 4.440764894169374 7.797578606247287 5.1037331076242705
Sn 5.317483285061841 5.455610219999221 3.083728832798511
Sn 6.5229717725081535 9.855492227015555 5.320119300128627
Sn 10.361683866941839 6.030933242146341 2.436361575819885
Sn 7.754133784640031 7.39291369997074 3.348126734514476
Sn 2.220722255842745 6.419712627525473 3.1652446547384585
Sn 4.292207254877859 10.35337052219801 3.0063388422559716
Sn 3.451776519951024 3.7757896628406997 1.3608051956217142
Sn 5.820484453699421 5.3859472467694856 12.526943764678599
Sn 4.562757305638325 7.863203970232988 1.1858047660249833
Sn 8.482142965209244 7.0722691677723155 0.23271294156928293
Sn 7.018132653340836 9.688083823242371 1.3838402399778627
Sn 1.8098426383320312 8.931637231712413 1.521867843229881
Sn 6.144208998096007 8.330031947593996 11.52106294848367
