53
Energy = -187.60300301 eV
Sn 10.220653018822265 5.783531232229444 1.8584225553357367
Sn 9.631759627197304 2.3004904271497693 5.2043267381550615
Sn 11.086600902669351 2.9615934878119567 8.090854060845855
Sn 10.526589185495423 6.927506764730932 4.676062289398564
Sn 9.181086210463512 4.898289876691752 6.513635412454813
Sn 9.201664428374588 1.78496450315371 10.271995302383853
Sn 8.14262132928881 3.6067560177702673 2.077980279884128
Sn 9.494540574492653 0.38553337340488514 7.526534000490724
Sn 9.569572479379424 8.848333403685329 6.963397568851863
Sn 7.810048729051912 7.426601736143425 0.7973697680490471
Sn 7.684739553816213 4.789518782167912 12.532869861702931
Sn 7.648161023005008 6.097107894346523 3.807713549260991
Sn 8.160109224645934 11.031647425137688 5.356900103294053
Sn 7.021484217368201 1.2124540487399906 3.4429519708329335
Sn 9.041109379031756 4.793640736958389 9.598094275807515
Sn 6.885343670656113 1.9073367874868286 6.53053671325983
Sn 8.995737664338304 9.025140525524685 3.013633833849386
Sn 6.6131278404271265 8.424874924810148 6.2988501652528415
Sn 7.610907326306041 7.759258816143028 9.175082639128174
Sn 5.245208644588627 3.343676775224343 0.6994458652393825
Sn 6.7576556946748285 0.1267346899227382 8.985285252055665
Sn 4.993346177581908 4.386518340674661 11.163903314064141
Sn 5.0277088005391795 3.3694816952591324 4.463531295952614
Sn 5.418729907639688 7.197390700525986 12.294035167813378
Sn 4.636761415413555 5.789234814439413 2.5057205073028532
Sn 7.694436595656157 11.00173239400421 8.546216581862035
Sn 3.9799542900074263 1.199330948465564 2.5574806226829474
Sn 6.47843894453991 3.061816233344641 9.47840289630804
Sn 6.896024966464674 13.399354361039109 6.662761503015691
Sn 3.3319711884303405 8.185456016922721 1.1390578716535265
Sn 5.796910726936885 8.67062109965058 3.1943271256724683
Sn 4.942191533032479 12.439412907439985 8.748767602981422
Sn 5.30328371920072 5.835513217450834 10.158485870525686
Sn 3.4887595265224194 0.7136639675743516 5.63998822915775
Sn 2.8191869067859336 5.431384602940146 13.092710328472826
Sn 4.8679622350605145 9.40625745596023 8.750711737317772
Sn 6.242882666163141 5.176809816976973 7.255170904908395
Sn 5.012238406111565 11.065201106629596 5.989407929456602
Sn 3.6116517489893454 6.930154080596332 5.931484461477742
Sn 3.101328120023516 3.7261289201106065 6.918003630821044
Sn 3.5122267069988657 1.1107364049516029 8.677909296585828
Sn 2.045148309053313 3.652079180892706 2.327664795782969
Sn 1.7075689632390332 6.479747338659645 3.421343399672929
Sn 0.8947526394128378 1.1760068017487566 3.835290721041151
Sn 2.0540088197372137 9.47674730645136 7.356124090075401
Sn 2.808002036774722 3.8259216610558315 10.091561689307754
Sn 2.8707766979158293 9.525515975818283 4.468947573123011
Sn 0.7379161804835681 1.3379186412513338 6.926891021422315
Sn 2.4275392248773215 6.643839722154446 8.823022778518805
Sn 0.43272473468043693 3.9484586849212913 5.19426097424194
Sn 0.4374870453301721 6.930968916741967 6.302557134928706
Sn 0.1196660635555137 4.399461280125494 8.388640518364294
Sn 0.6618183552676474 1.7450888267468552 9.920615331031287
