51
Energy = -180.36537368 eV
Sn 3.995875748843918 10.325326566303568 4.878862907057931
Sn 8.135789242312521 3.6038323916186004 5.724426270078226
Sn 2.233611180267111 7.005739093682563 10.022254159521644
Sn 4.200002636420589 9.350897405332349 9.144165274400004
Sn 4.90763897827985 8.078138521520755 2.699262519608661
Sn 2.988962125706875 10.614468998527407 1.9516632322492158
Sn 8.442535276190284 0.5359370377212634 4.708340548410234
Sn 5.303397517481628 0.4621048172810572 4.171418830414044
Sn 5.393649677571481 2.4165644106157114 7.487725144936748
Sn 3.1158448977082553 5.007069897092537 7.786922685011631
Sn 1.1678108508928748 5.337189983080046 4.488137064874044
Sn 2.5811010334169437 3.796508061037859 11.065078225194032
Sn 6.685006434495738 2.9899480524294235 2.742735841239444
Sn 3.909864767354155 6.7117413695148915 5.280972903153912
Sn 2.0837025218553547 2.168759465761427 4.332631515706634
Sn 7.448919329954076 5.3821744312189805 10.237525070758737
Sn 9.776771471555325 3.0108337749596434 3.1788463336335084
Sn 7.368432322139293 6.422703184798663 3.990725077058256
Sn 7.96463972575727 8.527624825872303 1.5047023959475259
Sn 8.862859449820467 9.438856541244197 4.334982038799469
Sn 6.275848585491198 11.208981425614319 6.949066174480241
Sn 3.67067232026355 4.895308959754667 2.1152734205117834
Sn 10.379855897249833 6.84489471723688 3.3075593341983103
Sn 1.5882741313650555 8.260520349904581 3.235337051811861
Sn 5.204814552402695 9.646304045595585 0.10832099810479917
Sn 2.340237396183313 2.2475492390720038 9.122386603285465
Sn 0.1486193871464558 5.993550903300015 7.81634179075626
Sn 5.220115436873644 7.271271943119842 11.065078225194032
Sn 7.25333651864279 8.326418157664632 9.012357111269903
Sn 3.924964997412968 4.43562576699492 10.727562349617955
Sn 4.645959252775749 3.747818584416711 4.84567767904427
Sn 0.8495008901535281 3.4304789877512882 1.65081588954562
Sn 6.5412121132543914 2.4223228604311218 10.260389214538405
Sn 6.355286935551884 8.773367999310533 6.136028094613752
Sn 6.230698335394336 10.872007251043977 2.900767625294847
Sn 9.403001338746675 6.993544524954085 6.353297258232662
Sn 4.138972965831673 6.676178577050889 11.593121023330836
Sn 6.389496831216653 5.801916052492248 7.4235301731926935
Sn 10.86188800933159 1.6397047198061878 6.215503430332777
Sn 9.830938621088938 4.356577486243166 8.111975143900677
Sn 0.602751728915784 3.1547809824205335 6.889576251883027
Sn 3.7381875723578037 1.9044406737641255 1.2610696675214907
Sn 11.592682053639352 8.023828296354917 5.571734654226552
Sn 3.2994848597244393 0.25154733702240195 6.682277700797983
Sn 11.290219331937088 4.584058957602 5.322430879550384
Sn 8.444014768768994 1.3789299135188378 7.9842016378683445
Sn 8.370411449528559 5.454475395399101 1.3084781380700599
Sn 5.63749981895705 3.948559328504383 11.654915465133511
Sn 4.530980222832666 0.14573448200548964 9.52311065307017
Sn 2.275747626293498 8.608061704279322 6.932283033334278
Sn 1.2551378817453398 6.372048566859605 0.8500403617709693
