53
Energy = -188.11133341 eV
Sn 4.530925413681337 5.232933190357091 10.949847901556051
Sn 4.314529791691833 2.6570981652840158 12.423487368506105
Sn 6.044388186560576 0.07813423957328651 12.503001457695328
Sn 1.3977805560997618 1.8127197139713505 12.145357622251678
Sn 6.7614300005185575 6.769985017650059 12.253244838834858
Sn 12.463034781708574 7.816309958376948 0.14350760555187447
Sn 3.993657685909306 12.178449263412631 1.5434876503209878
Sn 8.747691620546385 4.753210401704241 0.539773538977887
Sn 0.6102766030839165 4.731841299537579 12.90128137499804
Sn 2.1771703762856864 7.0770435762195865 11.691309704788045
Sn 1.041081190350866 12.116603578246218 0.9440076280456913
Sn 9.026059006169998 7.991251888306419 1.1177882000248025
Sn 3.6645793424079525 5.588084408458473 1.0909158509853814
Sn 6.396656670353988 2.707057872354174 1.635914125116746
Sn 12.335164752043777 1.8948713795461256 1.6122140964135372
Sn 5.9346910418239185 8.831251648010028 1.4333408614001555
Sn 9.480998400166882 5.8346310668770265 3.402104152663038
Sn 9.279850426399351 2.299329703445556 2.6006734949959442
Sn 2.485604780933347 1.8680466152954633 2.286343242846738
Sn 6.536810318779403 5.964542559382074 2.3821315183277467
Sn 7.285453193589137 12.763620049204057 2.3451976045954366
Sn 12.774318091625677 7.611678363504159 3.124691800939207
Sn 11.297997274814309 5.230706657026379 1.9438089449490892
Sn 2.5870464845314514 8.57138600241047 1.4151818381610206
Sn 1.285899184383093 4.747210445052111 3.10656498180668
Sn 2.8921355876141726 7.201067800012181 4.13293492932036
Sn 4.815020223516377 4.700995889177326 4.679127021817055
Sn 2.581602417307517 10.900791107183826 3.858068064305157
Sn 0.8042153874859655 8.87204822582672 5.687580234594863
Sn 0.26176714387190647 0.07296115406362494 3.874863336217025
Sn 11.709138841427366 3.7409196508402025 4.837489953482907
Sn 11.102090122580009 6.758002152558372 5.701769243372625
Sn 7.997292220397066 3.1873223789708556 5.134353648650093
Sn 7.224784212298758 6.047220783197891 6.008102671002868
Sn 5.114865669270329 1.653412395391391 4.250318313392337
Sn 1.9143993439500988 3.5800141327367547 5.939632447040542
Sn 2.2709336492569503 6.380586388392154 7.189840650492203
Sn 9.736801674306333 1.6893114554822308 7.17833300051661
Sn 9.453248586645461 4.676309319157966 7.606614741733091
Sn 7.022124929597167 0.5107110544420986 6.522602691366705
Sn 5.5589757370760156 11.48429218118475 4.475531723231031
Sn 7.701081479062696 8.428974988125812 3.8630598565840946
Sn 2.7832647221817406 0.514079956556778 5.815491866232893
Sn 5.123677588742329 3.7680891207770886 7.624020030062799
Sn 12.554470441973011 7.665446336239429 8.173728398115557
Sn 12.683809150256396 1.462180606700843 6.585184097462
Sn 12.52191242982153 4.647395539094715 7.720091726013971
Sn 7.6079840655641915 2.375145102577167 9.239885704180141
Sn 6.990144341899698 5.512878206821864 9.356219611307159
Sn 4.717229310656828 0.8889468534806249 8.628920946018976
Sn 3.9373607438641893 5.708986330373439 9.7896236403947
Sn 2.5528523204197833 3.0188075259296268 9.168823260529463
Sn 5.243848032220363 3.149454981264628 10.949847901556051
