6
Energy = -18.41253331 eV
Sn 9.00171427340104 6.38861465878644 9.165273468393801
Sn 9.01982829978928 8.792968302371214 7.4588328318314066
Sn 6.284155691343695 5.880005799868181 8.475840889720555
Sn 8.005740204708518 6.272278161313495 6.100276542464793
Sn 6.248645342656352 8.72115390671822 8.015322480742249
Sn 5.889582523307979 8.546974796024045 5.259266246329423
