6
Energy = -17.5578908 eV
Sn 9.578747813236822 8.629332649583157 8.206525765939615
Sn 7.678107563807643 10.69907140810144 7.59974579106194
Sn 7.484195028824507 8.023272755763609 10.133956226503669
Sn 7.896977700128637 4.100978840567586 5.882367209640654
Sn 5.88672032176356 8.474342833951493 7.751096893767972
Sn 7.945702587192307 6.614804923854326 7.044880068148654
