6
Energy = -17.69849608 eV
Sn 5.25211042944996 5.7581745722533855 7.180979380334935
Sn 5.74857021442234 8.416178657389693 5.861538376663293
Sn 7.418617832786125 6.026692051362933 5.1103101316463935
Sn 9.286228518353008 6.695896300051774 7.173797841897969
Sn 7.118986937380236 6.431125074450884 9.244557438221227
Sn 7.6213950872230125 9.08760694050147 7.920197799329615
