6
Energy = -18.36625431 eV
Sn 10.886830755890657 8.881800073486872 8.479962348275409
Sn 7.019658490819313 6.390013568664723 6.826764074786321
Sn 8.184741512662702 8.347265182395404 8.764505222348461
Sn 4.284273354556486 6.020929890981426 6.9872992573894805
Sn 5.274113996567914 8.351760063923326 8.396365486149913
Sn 9.685832974411236 7.48040784689571 6.255274951158914
