7
Energy = -21.12620477 eV
Sn 7.420807442143421 7.560768598485644 10.732145432335127
Sn 7.763602574547583 6.252327511120003 7.980652286614572
Sn 5.292553780683183 5.900648713203137 9.59321480502756
Sn 10.097037607803808 9.585265805409193 6.668033894728093
Sn 7.606819444634933 8.058522824961663 5.654723852763948
Sn 9.688036913989304 8.94011907386306 3.9238816968729644
Sn 7.882819971789662 9.300305512827595 8.498008164492706
