7
Energy = -22.71770932 eV
Sn 6.517661540499531 6.110186463575096 6.414930921191751
Sn 5.709678097633532 8.804034137321048 7.375017513294176
Sn 10.412011916117127 7.699776227324966 8.972499715908448
Sn 7.952890981389231 9.751973426224934 8.834106669254258
Sn 7.6154274200269745 6.681302553452251 9.091587855575053
Sn 8.80372201721174 7.967053076297478 6.465220543429122
Sn 10.178705678628102 10.362418535180723 10.383922698670961
