7
Energy = -24.05738439 eV
Sn 9.687814516075074 6.025888711727972 8.232215507659047
Sn 9.43108192595981 8.932595656832099 7.323953509439794
Sn 6.466722622703922 9.638857384026979 7.207512227518075
Sn 10.164750109129066 8.303441199384968 10.208487737076211
Sn 8.159942466187118 10.526526172194961 9.590405088458157
Sn 7.41705081147821 6.860241305700674 6.364443322062587
Sn 7.324667505757512 7.607240411021281 9.31663810821628
