7
Energy = -23.02483807 eV
Sn 5.763207770976171 8.682962484666852 8.082324311842747
Sn 7.550258063857162 5.819690269452111 7.743795937131733
Sn 7.249774564822335 10.84063212354478 7.043178166183078
Sn 10.027911816330496 6.395984486849058 6.526402048372309
Sn 8.761581164031137 8.438724498065179 8.968168493245715
Sn 8.295176572946977 8.511394822373154 5.865801535889099
Sn 5.852217693547805 6.517110912288178 9.869628336664567
