7
Energy = -22.84673202 eV
Sn 7.025372567762124 8.363608039886177 5.2095532064593755
Sn 9.744220272260335 8.027952818544277 6.168951203408777
Sn 5.329131018401792 7.371851035962934 7.618451913787659
Sn 8.776175669654624 7.010254284992734 8.677453282882482
Sn 7.413054674622434 9.64240879316035 7.994725725755585
Sn 7.484315722935651 5.5303218229287605 6.354484099371394
Sn 6.4427900185586795 6.405418167759452 10.08261898361059
