7
Energy = -19.35957645 eV
Sn 3.468281292315669 5.691892778973811 5.661179221885649
Sn 7.779255880441235 7.464543096198424 10.268194240184489
Sn 9.888356789209752 6.760470773833398 8.577005979330087
Sn 6.505139321326267 7.525833169157046 7.889266480073456
Sn 10.399434395405535 9.721897408326864 8.509405130983195
Sn 6.0482127514546535 6.2210670098601994 5.596542367220639
Sn 8.628328610610916 8.801178643355824 6.485655003305023
