7
Energy = -23.05931011 eV
Sn 4.9298832214419805 6.935679951743444 7.272466152774357
Sn 6.610461054372685 9.275956816149137 7.21077091564938
Sn 6.391139967058144 7.154940492320498 9.849455290801462
Sn 8.73613656289224 8.844606392920264 9.26304733306788
Sn 7.983090467338445 6.428316197138938 7.361081703665608
Sn 9.222103164128356 8.793389546239883 5.915187447954593
Sn 10.861118594531598 7.402570443122447 7.971343166361883
