7
Energy = -21.75964813 eV
Sn 5.17343237071592 8.73712775541952 6.5340883849362585
Sn 7.586074542166072 7.58983113200409 7.59100986409838
Sn 9.994297886079517 6.53118896436202 6.437057759003857
Sn 10.002775102848096 8.640328748270592 8.73483466433929
Sn 12.331748222046475 7.5816612635040865 7.580558713854525
Sn 5.17286159903416 6.438409941265746 8.641900339650325
Sn 2.8399150585617248 7.5825569766262095 7.581655055569335
