7
Energy = -22.34806806 eV
Sn 8.802618790842274 7.086152598506908 8.724442223949628
Sn 6.644440548262261 5.5703199384342055 7.457551783055926
Sn 6.973211526085147 7.207542775255319 5.042810064096961
Sn 9.577491980431201 8.7828776801717 6.511500914432281
Sn 6.206229602207072 6.954462491120944 10.015504709529813
Sn 9.432871725415804 9.911284130996636 9.164213370085651
Sn 6.715433385859269 9.175449823876049 7.5164677481077975
