8
Energy = -26.98076488 eV
Sn 5.776261236433365 8.583516714936332 7.638379848856774
Sn 7.574973058634102 8.656907917806784 10.870523881475368
Sn 9.127442761045028 9.784782795088823 6.522769484011326
Sn 11.166580271791844 7.703216850943969 7.66181518073732
Sn 7.206322684464672 10.849818197407886 8.706809095678171
Sn 10.171657594434967 6.988719683007345 10.422779719620983
Sn 8.258550651007582 7.333346347450964 8.170443846211692
Sn 10.127001805576286 9.94783112555255 9.519844544533344
