8
Energy = -26.73830208 eV
Sn 8.316983789567294 8.323475815612865 10.493883567697115
Sn 8.291249481298099 9.296932194491847 5.669341983473336
Sn 9.33594399057943 6.520622147012188 6.181281656157945
Sn 7.647572216667225 10.443295960338533 8.33844908817643
Sn 6.941154868567512 7.450850481704555 7.838972044916927
Sn 7.301749651516408 10.915908369090356 11.137237392579806
Sn 9.363615598855105 5.901139024779361 9.123743217409574
Sn 10.235052342912775 8.74419238246453 8.08045850973121
