8
Energy = -25.77454927 eV
Sn 5.611575033800336 9.89957352509895 8.00129220551103
Sn 7.300564414321676 10.33985086227056 5.549841069660377
Sn 10.312072897410843 8.067186493656767 8.253159284710984
Sn 11.195055078020259 5.587178422924303 9.376526787792056
Sn 8.304327215967241 6.024475881196035 9.6092364132881
Sn 7.525048034320367 7.701843816576806 7.056117709317847
Sn 8.768855039129148 10.603478452067817 8.082954610359385
Sn 7.3966543753165395 8.808814044237174 10.061841292903022
