8
Energy = -24.60923516 eV
Sn 8.540841033853468 9.73389549489381 9.172018803225708
Sn 9.390903066340332 7.8051030318662855 11.031463462791653
Sn 7.606446438081604 11.445583620020342 7.148079974299889
Sn 8.221673337716306 6.627752204859504 8.769326859160941
Sn 7.131533696223628 8.754540530119579 6.527343921189949
Sn 7.808523856621895 3.9270240302311437 8.12450737666487
Sn 5.852467463557799 7.573017337732328 4.329902454811401
Sn 6.78512702391035 5.639357959230853 6.147309002891539
