8
Energy = -26.33898308 eV
Sn 8.729062310941844 8.022207598014123 6.778082197233133
Sn 9.725767603006942 5.33412923389505 7.012742278478849
Sn 7.192119875096568 10.3968348323222 6.526186662964051
Sn 5.778256942813289 8.004687299002185 7.877082718949912
Sn 5.91219954209674 8.319365595562935 4.865825974233039
Sn 6.682501596236627 5.535874600294941 6.012277985035261
Sn 7.7095663694261445 5.746555895359071 9.017002292173869
Sn 4.887550140418253 5.3017755514075215 8.428228607977497
