8
Energy = -24.57790405 eV
Sn 8.991157147084234 7.385329646583061 5.4568421727979395
Sn 10.972632652744565 7.00181610632165 7.4394447969249065
Sn 8.801352519104764 4.555034728817805 5.619889932554064
Sn 7.059729829126137 7.28831677545044 7.744539303962272
Sn 8.856803505416654 5.286690296882411 8.465412727365548
Sn 5.833125160054089 9.833842927748178 6.844968745854838
Sn 4.028139149733611 10.840793709410809 8.77267945662895
Sn 4.9498455916645065 8.316083527945448 9.491056169042624
