8
Energy = -25.88677631 eV
Sn 7.409929611840782 9.734618685870418 9.591469789911459
Sn 9.761424439113098 7.738627548457734 10.09225179266651
Sn 6.755983709495374 7.077900569212863 8.320922464932302
Sn 9.29744884596633 5.724901119545118 8.356970901108685
Sn 8.445599722959466 11.94400396476787 8.286203658737257
Sn 9.70579211601323 10.391650762243321 11.331087920326954
Sn 10.849034869937647 10.348541059249092 8.594285732554084
Sn 9.223594919730024 8.361394759126624 6.715848246564475
