8
Energy = -26.3942691 eV
Sn 7.274333248239457 10.134305605426887 9.589534649648948
Sn 6.173050236491422 7.068771342212662 9.08229349692884
Sn 4.880032337988102 9.795540022818647 7.790363831985372
Sn 9.294704604013754 7.7435523478091755 9.385781026516346
Sn 8.042166571596667 6.064440554315847 7.022859318519651
Sn 7.302727838167163 8.907108828367468 6.650905462970525
Sn 10.220135547767075 8.548317741196849 6.484146229741654
Sn 10.848872213942242 5.761235981812447 7.708903002768647
