8
Energy = -25.86840456 eV
Sn 7.758677924116902 7.580236503701305 10.455253104987921
Sn 5.414335656387881 4.171478183527874 8.0815382147071
Sn 7.062150573288325 6.4326563131102725 7.697267399958837
Sn 9.793458533895866 7.701978033811588 8.157125513413641
Sn 6.991276665513545 9.432565596884421 8.113246080690462
Sn 9.332246237018408 10.144187137572683 9.94973448316889
Sn 9.579023370405295 10.475337589850826 6.908233462713318
Sn 8.189743538710312 8.1537781205385 5.5248418174873
