8
Energy = -26.37703907 eV
Sn 8.77273706020812 4.956185354716602 6.789137893986268
Sn 9.57661216498809 7.384012286419201 8.245194976304884
Sn 5.846883783754913 5.0202611075896915 6.997204973232502
Sn 7.007002452615339 6.43210841151747 9.306226172073327
Sn 7.35103661674276 7.739005617674278 6.358854279874525
Sn 5.622457076599771 6.09958857159459 4.288472986655159
Sn 4.214530202024802 7.487148770814666 7.073916157114268
Sn 5.212404707922379 8.984115899790282 4.757444484560875
