8
Energy = -26.79613781 eV
Sn 8.054694290419603 6.748838204791228 5.496809299733395
Sn 7.238840770216318 4.168548983111492 4.684561521302596
Sn 6.436036924290878 9.150523856999186 6.120934533295686
Sn 8.916997139191986 7.754111918052318 8.151954531929983
Sn 7.5233642094364495 4.6107521075565225 7.679986501241964
Sn 5.037910998768413 6.022745608722504 5.662002240245488
Sn 6.7064753839805755 9.601348609374485 9.111268013438217
Sn 5.91034263868162 7.015739266012524 8.314686774205658
