9
Energy = -30.50408149 eV
Sn 11.31460031467269 7.608520470178747 7.474766872069316
Sn 8.835358030393555 7.696176594178356 8.871132388758616
Sn 6.6296676880362 5.430463123582071 8.407655996644754
Sn 9.22355226075402 9.424514983635246 6.244578159115349
Sn 6.232825163746041 7.755803829725044 10.342061330409047
Sn 9.1309770974937 5.888152241530328 6.281338484967838
Sn 6.719608171666063 10.035264520350434 8.376901297471674
Sn 6.86428150058808 7.715709901466743 6.2917194610905565
Sn 4.4598209914662155 7.769122850175721 7.84430113597998
