9
Energy = -30.83114882 eV
Sn 9.355659628750061 5.393320033075242 7.740760005629878
Sn 7.51880278874382 7.414821784210302 6.636040210256748
Sn 5.325544623988201 7.9871105925216925 8.513214715522915
Sn 10.392250027119015 8.094855828029859 8.257757744114995
Sn 10.24019592857718 10.958726494623129 8.90263744262374
Sn 7.688529335715876 6.739445567461046 9.737943400181315
Sn 9.126827609309512 10.033392411436154 6.22445118339066
Sn 7.450912293407504 10.009215461813245 8.791438679304116
Sn 9.340594730499795 9.001505704364456 11.020042147000467
