9
Energy = -30.33351791 eV
Sn 9.219641047633043 9.601744882246814 6.558799174012714
Sn 10.65351674058714 7.8711944706313375 8.56597594619134
Sn 8.7471958146972 6.669365614315671 6.171242149988909
Sn 7.001944929708551 11.330605128954986 7.544859446392615
Sn 10.021714497917907 5.021951177357696 8.246106112134221
Sn 6.271193881311313 8.492776694145931 7.238480299640728
Sn 7.746687886400113 6.506396063456884 9.26753935538614
Sn 8.211120927903018 9.66073454373224 9.631688146882416
Sn 5.608188418399945 8.381244727289484 10.097796242792368
