9
Energy = -29.41045011 eV
Sn 4.148201568663016 8.110043767645397 10.110302577648824
Sn 9.55313297125737 6.866138352973387 8.972704890728748
Sn 11.64113087459359 9.013888017312622 9.318689233791126
Sn 4.809038578995449 8.455767435011536 7.372451587938025
Sn 9.004795350438064 10.164039101399949 8.650876237188571
Sn 9.196439311260432 6.072763585215449 5.877545356674539
Sn 7.621257401500013 8.288322375611681 6.737666968680485
Sn 6.886812814513148 8.346042487880112 9.744416149429659
Sn 10.877480387593504 8.363457949477343 6.612881109925244
