9
Energy = -29.42185709 eV
Sn 8.866875640351154 3.7953138137451923 9.738932268044353
Sn 8.4934273014678 5.327955258319673 7.436273786335682
Sn 9.3769160904797 8.317455834182358 8.08267096244066
Sn 7.935054098282823 6.511307135769644 10.184456445851755
Sn 8.273916047958277 7.104580686711851 5.1627910941269395
Sn 7.021949696855992 12.37450115233663 6.867236923344714
Sn 7.103265893455701 10.312811143571619 8.91101264116593
Sn 6.238722654652614 7.552990290012206 7.812239326573166
Sn 7.542854890817203 9.79099119158467 5.946276075702081
