9
Energy = -29.25325031 eV
Sn 10.405247761847587 7.816833136825724 5.307385358091331
Sn 11.31965276672473 10.375293549230179 6.22513213620494
Sn 8.816485193003917 5.959627132032565 7.0342219383940385
Sn 6.607958764847023 7.8040692079609935 7.825312638412548
Sn 5.186004587067237 9.886563937712333 9.294174780806037
Sn 9.563423203737907 8.940167585137075 7.900467520218389
Sn 8.664600463164819 6.733116645701331 10.0534350475143
Sn 8.02919836522885 9.789301050529879 10.314831436547383
Sn 5.961868173257489 7.418004039510267 10.800659497355237
