16
Energy = -15.79385327 eV
Sr 12.635593081726652 11.552480564383407 8.030078052219952
Sr 9.645585364116622 11.288186467056192 4.67559886838092
Sr 11.828308676849794 7.9358713294641205 6.026181874693431
Sr 9.25461634038699 9.826385661999373 8.170620030711849
Sr 8.74107110514298 13.591138587922867 8.310664204532063
Sr 10.330069217116 11.404504968980051 11.608449664709749
Sr 10.059176294831413 4.713723467365001 7.869625180269706
Sr 11.565265006521471 7.638732195805205 10.430934330715031
Sr 7.47181645985838 7.261006919948171 5.833518506968264
Sr 6.348503434916636 10.651494472885519 10.68720617316328
Sr 9.187471941832948 4.120216720104574 11.87934776735745
Sr 8.662652489065916 8.146219560452684 13.490193233720245
Sr 6.04884064731688 3.813051784379263 8.33735049472197
Sr 5.843704954101883 10.991357279488367 6.5805176322691805
Sr 7.5699466813613805 7.026183291145489 9.89411809722282
Sr 4.059234073631629 7.699122925788278 8.306394566590425
