10
Energy = -6.77579289 eV
Sr 9.448379585054395 4.940330651965973 7.3823611239086935
Sr 5.231452922906011 4.079190650916777 7.969066383970446
Sr 7.383750059494218 2.5983290975512787 4.8841650416116655
Sr 10.625722231786835 8.083738186821138 5.020437954068031
Sr 15.011149994087534 5.419199095038109 6.326779508275877
Sr 11.37760469016446 3.9163441625280786 3.9618143327063513
Sr 6.5152454737895145 7.3888538645742585 6.05921872102318
Sr 8.075006544985499 5.911101777894281 2.734621227274642
Sr 4.134996679991797 4.887382190551615 3.8977738253825387
Sr 15.011149994087534 2.780462468029149 5.971443574693064
