12
Energy = -10.31180934 eV
Sr 10.232331842797027 7.428443319382086 7.743115931377441
Sr 11.307685375459473 10.464367266079229 5.348757073802067
Sr 11.289708400964622 10.79890889517399 9.574137397558337
Sr 8.901903232017133 5.25958184671533 4.792634279870793
Sr 9.931786785039415 7.71909475228577 11.830894120865027
Sr 8.8022452999037 4.243343349197725 9.602739880683224
Sr 8.374156096284853 11.681504110996537 12.394862637668014
Sr 8.487517379290926 12.801669418632388 7.58519486936024
Sr 7.4483512992678245 9.26067530310951 5.332578165740836
Sr 6.0228229003279505 6.633916860964253 11.861006240537021
Sr 6.011059493512821 6.2165576879835225 7.602977199281616
Sr 7.206510612732566 9.53142054152565 9.390642802046633
