17
Energy = -16.67592021 eV
Sr 7.855135305044565 5.056697900456849 8.79135166736473
Sr 10.065039113568568 5.4384247242718855 5.229647579017261
Sr 12.171599693345604 5.003986780795229 8.650972124212691
Sr 5.981785461364613 6.046238294070717 5.025444314624354
Sr 10.159731321681168 5.155314212435403 12.233964641835124
Sr 4.5770661763299785 8.004791773487833 8.692447566945688
Sr 11.951039879607304 8.907224389467999 6.751586921968526
Sr 6.203435686544893 6.4791399591707295 12.30948459441166
Sr 9.01080920427257 8.800619822925322 3.2486546255024993
Sr 12.621036686617705 8.33610734278713 10.912900832824059
Sr 8.062054309455242 8.632253605086538 7.066986724440909
Sr 9.401334859510897 8.98265945220401 13.479465499455268
Sr 9.155707193140007 12.136682653541499 5.720855387666866
Sr 5.30204863415261 10.129716540553586 4.705258245127612
Sr 9.623327755389106 10.998638460258006 9.867906562850544
Sr 5.887256190346927 10.508026455852521 11.98988930108509
Sr 5.8729977541147385 12.007251811915825 8.238871118024688
