11
Energy = -9.22471027 eV
Sr 13.598559988475678 10.805954020023604 10.482080395269001
Sr 12.36640588525923 8.457110034774466 7.393970193788
Sr 9.947801142418061 11.566296977210548 8.633464682700158
Sr 10.36461278741587 8.06260368949211 10.970586938220784
Sr 9.5786553410206 5.580292532795927 7.722528419137658
Sr 8.805745871508538 8.948223698040064 5.4038538721719505
Sr 6.505063143159767 5.263619152611971 10.451354775374536
Sr 5.842034218051894 6.191940687780167 6.2956968765291395
Sr 7.106311376340757 8.855851747406037 8.986558320015172
Sr 4.823260870972573 10.230546347428202 6.025690137324379
Sr 3.2353751361895156 7.655238741505895 8.997910636940103
