19
Energy = -20.23796 eV
Sr 9.444364451980396 6.798787226139562 8.094120598823917
Sr 9.793322141013055 9.611901084632226 4.920558637505697
Sr 5.999645466494056 8.64868402985388 6.762277987732386
Sr 5.886266506023948 5.062099068259586 8.813606851355576
Sr 12.749623927060382 9.537781506234216 8.033715942296654
Sr 7.083973673733506 12.77133265947294 5.679210726706766
Sr 9.08685622844289 5.062099068259587 11.814714696322161
Sr 10.656961350606304 8.79528851811147 11.485889666447129
Sr 12.398588638693248 6.634197048019137 14.306741311323961
Sr 13.015262846336618 9.46992070145082 11.884276964344636
Sr 11.66002626373582 10.900478333737368 14.698622640868196
Sr 8.089021536781976 11.870300991120418 12.492140939883855
Sr 13.015262846336618 5.897121541332226 10.207521371167314
Sr 5.140983748924042 11.946468518119396 9.356146653034953
Sr 6.581157723431557 8.260954684238762 10.837108317359629
Sr 8.33385299364855 14.684523076738957 9.297422587077868
Sr 8.862449339976639 10.850309428853041 8.58986901741544
Sr 11.848512617850625 12.6249176537681 10.787153495009653
Sr 11.24615861168569 13.260847730493188 6.538176450762509
