16
Energy = -16.05670865 eV
Sr 12.048049029137132 9.67832813273491 5.652343125804424
Sr 11.539383185296666 7.307153152687358 9.114885360721535
Sr 9.693698763092861 11.057469750611176 8.974799243804874
Sr 11.396221816304863 5.542486283518427 5.230537428429266
Sr 8.39545895119116 11.676743568481225 4.899472134590665
Sr 9.525856267895982 8.267466086770304 2.576666996932369
Sr 10.42082012098296 9.287874207189434 12.846775323436983
Sr 8.563750920012454 8.015122679196068 6.446938682981153
Sr 7.619995900881411 7.835837827633673 10.38249362684946
Sr 6.815473572590728 11.332365306278142 12.030904486229216
Sr 8.613889693261985 4.399559203520253 8.15523360316282
Sr 7.265730350800238 4.987056129620812 4.223689801510586
Sr 5.673990976323814 10.574753855380962 8.089369260624391
Sr 6.72038426650192 7.872041430317397 14.370595468941255
Sr 3.7892998378197906 8.54799656583605 11.257243802337268
Sr 4.93082150110988 6.4349647640243415 7.587867033051797
