17
Energy = -17.26306409 eV
Sr 9.832257167298494 6.156343982438962 4.263535725481742
Sr 6.823743949040437 5.66462169966526 7.257001233798404
Sr 7.321833415098745 9.391129518001117 5.3074873521736
Sr 11.448722795655355 10.129053477079767 4.67864234384434
Sr 10.655222694719054 3.977253850579357 7.857184624375637
Sr 13.32400375271732 10.31699202257214 8.571995865717714
Sr 3.6052858515383845 8.47091750997406 7.086202578131807
Sr 10.228097418063527 7.914797503010029 7.816810373849777
Sr 8.622661292017776 5.901206337840916 11.059542345208818
Sr 6.78636848216934 9.195924664447434 9.376990122599079
Sr 4.414394557161642 6.307112872863702 10.674894086258673
Sr 5.282813829789207 12.413379101247125 7.494014624555183
Sr 12.790638048240279 6.53110727219214 10.517331669918423
Sr 9.472805270872543 11.948903431300222 7.948919425457637
Sr 6.559850603360616 8.858916230909463 13.319531657535542
Sr 10.264076714062385 9.759022021217085 11.498694016416964
Sr 7.119999992499809 12.636970375423957 11.386706259856968
