14
Energy = -13.24867931 eV
Sr 3.680249696862524 12.086111185700918 9.13121859557512
Sr 7.470620607015746 7.810089779278596 4.777299481223243
Sr 5.210320793184268 8.777642737168145 11.07768862080122
Sr 10.319091299795641 4.896906703908732 5.871271781491175
Sr 7.292755942144544 10.53046332524705 8.060205043719485
Sr 4.003520560083186 8.285014261486968 7.129509208945106
Sr 10.74724075976452 8.676714074072338 7.373406719627292
Sr 11.292983619686431 5.513183719925221 9.867109373414586
Sr 13.439841148866357 9.02747348029323 10.435208574846035
Sr 14.158794636730548 6.467289537375727 7.0485674927130875
Sr 7.458362877640956 6.3963190190887 8.51478566781774
Sr 10.838399379448301 12.259054529499487 9.68456045980468
Sr 7.13444538183623 12.412675809161675 11.691511360328638
Sr 9.360229649593121 8.90929339628294 11.290980196695294
