10
Energy = -8.74945336 eV
Sr 12.25792542857591 9.096139271339293 11.8221576826563
Sr 8.742692128521558 6.68363069660153 12.244194540825545
Sr 8.918363198922451 9.706775705000359 9.533543465760417
Sr 12.503970371826016 10.246421848893496 7.699293320801179
Sr 5.625153603584177 10.226549105015295 7.218689179367898
Sr 5.301612143776577 9.071422550576496 11.332786413023051
Sr 9.111023291109728 12.686532383065202 6.747254020324333
Sr 6.946719999475238 6.429223495814247 8.4539384399523
Sr 9.186116752349424 8.56912821246603 5.738582499174681
Sr 11.045858773832524 6.439653198745442 8.736258168942118
