19
Energy = -20.61584209 eV
Sr 8.714825880111771 6.54683102957799 13.108816814699853
Sr 11.05488277503791 4.586522518183955 10.153844416434417
Sr 12.824555439161497 7.6143068523997295 12.607857621922069
Sr 10.113066047979972 6.2673403802468295 6.361354145132147
Sr 9.84927735247842 10.634851957021406 13.183055173426784
Sr 7.043662380590067 5.696606381531779 9.28552907663372
Sr 13.640815273180463 7.467803400032163 8.412204241104755
Sr 6.290174646632394 9.457340150972087 11.172156491914636
Sr 10.091423532035583 8.424687793218805 9.897055672388756
Sr 3.6826355583101593 8.039452679638789 8.128900719025609
Sr 12.887740749014442 11.207916095785276 10.275198382215772
Sr 8.891900074292133 12.360400775133005 9.406952929621495
Sr 7.345854816766555 9.240126419010597 7.172164029514062
Sr 6.029760926802602 6.080901237788732 5.175545541587995
Sr 11.254443544330455 10.389792944474669 6.435116859371777
Sr 4.822602279877617 12.128115054885146 8.195304495151504
Sr 7.865839863131931 12.691906159532595 5.286866425750483
Sr 8.612934990795654 8.952896128008584 3.420454914307884
Sr 4.609140885631725 10.045706731743978 4.462420376182455
