15
Energy = -15.16351097 eV
Sr 4.979074949174554 7.913086206376499 2.1566429181944096
Sr 4.503616346967525 5.088265715627066 4.975244768087412
Sr 6.018975325179337 1.4676274703977237 4.116099415299192
Sr 11.07846148013871 6.337877299559367 5.531052505901371
Sr 7.938061681665301 4.053439343134282 6.908139288111583
Sr 3.1344629217962225 8.749499738756276 5.895611616718602
Sr 1.865215010559908 2.2171958535872673 4.3175826016374055
Sr 7.304953118280421 7.947969369607913 5.721560579889629
Sr 5.074483573811581 6.355150896619064 8.838241873812345
Sr 1.2432276004876421 5.241190828733805 7.226857990707699
Sr 9.220829603241588 7.176473674607434 9.275246744123134
Sr 4.170825601659943 2.29841230081994 7.853164712190788
Sr 8.028848275381524 5.019059398709252 2.8727636348470584
Sr 4.214129684644582 3.8962408431342705 1.206002650414619
Sr 1.22087054729355 6.2345465639914135 3.1018246369683085
