15
Energy = -14.32184074 eV
Sr 11.992919407453199 11.301985929161068 6.354644895262731
Sr 13.317139038044417 9.354781669768512 9.569505535268323
Sr 11.17151986391649 6.94226896882661 6.545337377419634
Sr 11.010314110922433 12.8077666317399 10.131580720742082
Sr 8.726122365874842 10.03529380829173 4.4739899554093165
Sr 8.340696604350681 13.183207441924324 7.197875883472179
Sr 11.390521993936824 6.140437942320566 10.909698324779852
Sr 5.336519174805374 10.586755574240762 6.853428692180065
Sr 10.642719307064485 9.8270460224042 12.745554155918109
Sr 9.028866834038814 9.145601956840132 8.74297664676454
Sr 6.810455506846085 6.800754138511771 5.788654604774269
Sr 8.126443953014244 4.86776360308314 9.009426170362259
Sr 6.881686055213546 11.349896987750634 10.949949004824468
Sr 7.639898073758486 7.231330127477509 12.42991294544469
Sr 5.00115952122774 7.605529167263492 9.472168924851154
