17
Energy = -16.53244137 eV
Sr 12.364694609188767 8.373447455063886 10.348689547688227
Sr 12.58604510479339 9.00830111576056 6.1055427994181
Sr 10.129938026950132 4.747567636806305 10.909122062916786
Sr 11.83054691608208 5.301466300578927 7.394617690085021
Sr 9.17867244059553 7.8892845687058255 13.18391385013967
Sr 9.699214056398505 6.836054452983793 4.390420491879871
Sr 11.644208601339118 12.107608380333891 8.357846334001273
Sr 6.2849642652969715 5.717086194676342 11.468228357601113
Sr 8.680445763109525 8.524255772974639 8.602089541294976
Sr 9.930673239622168 11.546107176782884 11.924985947950569
Sr 7.55798682089249 4.766287710134673 7.4799991323579205
Sr 4.19704628523955 7.23839833935222 8.497417305972226
Sr 5.91160790678672 7.80379313004614 4.931429124057095
Sr 5.9693673904269415 9.995136094551118 11.273112709921682
Sr 8.826249745534716 10.942027145067643 5.325891458839918
Sr 7.806620787828703 13.077581667837759 8.913205176195278
Sr 4.956929780027236 10.944599927469902 7.207099997597261
