11
Energy = -9.97303641 eV
Sr 11.151766618304238 5.705193639874912 7.379640580442849
Sr 9.564033347181113 5.587855905487805 11.363558833599754
Sr 9.405779347265616 8.948025918948549 9.090361357675397
Sr 12.674193863793759 9.646995652624982 6.936609909507404
Sr 6.97785494277529 6.054934308081685 8.03902595008038
Sr 8.932559335242091 8.5316096565467 5.243275740740024
Sr 10.304725123528712 9.470711655824651 12.917226600929647
Sr 6.435437263769353 8.343897346162343 11.53685031209953
Sr 9.396807464522912 12.34893867562088 6.881181605181586
Sr 7.810514187264693 12.226939057067463 10.864192733001417
Sr 5.913268835030684 10.087367213644264 7.736135964837496
