12
Energy = -10.51284282 eV
Sr 11.246397534566798 12.86653331066171 7.077518247274199
Sr 7.676955763299977 13.280586057769556 8.90705547530785
Sr 10.006058312819459 9.97308199454184 9.956021302236
Sr 12.151803272506228 8.954267156796714 6.2516015965909055
Sr 8.274966634134909 9.9411872381945 6.5144571967555756
Sr 5.713635439676427 9.721121961365379 9.872297567016235
Sr 7.718183124245757 6.669799080239307 11.464674858206266
Sr 10.138733045370152 6.100930630499577 8.354888330917065
Sr 3.917245999182896 5.65339818180408 10.662468829454843
Sr 6.326051345344651 6.517293890342033 7.516258777296439
Sr 9.143743593839057 6.487983529848799 4.391950102524842
Sr 7.113647860518218 3.1381344841203003 9.472958289936484
