19
Energy = -19.50967819 eV
Sr 12.441865998373638 8.69261331575251 8.366960788078257
Sr 11.33865235767786 8.80810050529816 12.440107659986419
Sr 13.699456449791157 11.887348724169328 10.783343106682135
Sr 11.279683034699342 5.059413612358439 10.467244576612954
Sr 10.211291569544887 5.608914689249434 6.53612644859607
Sr 10.65652994292413 12.51243197728663 13.865511178053728
Sr 12.29215219178952 12.453048944553476 6.636001177482002
Sr 8.182485974089596 6.08627008922781 13.10373918985285
Sr 9.21005777226676 8.956099493857044 15.218484290077742
Sr 10.592207428654834 9.191043937724132 5.408018712438253
Sr 8.654775549413209 7.937182660314788 9.529107704292308
Sr 7.289888461484717 5.059413612358439 9.201121648908005
Sr 9.787843131383921 11.78194598907775 9.775882069587912
Sr 5.116623678769759 7.923388041553902 15.218484290077738
Sr 8.141888843279537 12.10014381389465 5.8577701521960615
Sr 7.386892202872023 10.16434368854396 12.72695810587094
Sr 6.704416454566902 7.95742402886385 6.184536490860391
Sr 4.9054463642500785 7.355575160560904 10.87159125609386
Sr 5.810557950381525 10.919131275660053 8.974702654701758
