16
Energy = -15.85705283 eV
Sr 6.715523067864183 11.169192620850215 14.073894990061357
Sr 10.83894531862678 10.38290291618065 14.073894990061357
Sr 5.576583293897552 10.328802661950116 10.080903498366814
Sr 7.544537445149856 12.478513766038256 7.075650200340745
Sr 9.137568477531127 6.174729407970538 5.050084906685964
Sr 8.41598651342113 8.041862952844394 12.0990342679009
Sr 9.702607210323984 10.194547128069116 5.0500849066859645
Sr 5.877272822749192 8.459338448623528 5.939543159140063
Sr 9.022308819961324 9.017220100494894 8.116640065102525
Sr 6.298764297692484 4.509818191768745 6.398168212527515
Sr 12.574930020914968 7.919591166212716 6.576034920750544
Sr 5.869727750862851 6.302554479748241 9.396215882739927
Sr 9.816875247080853 5.284581330636186 8.920133528748842
Sr 9.290835675735465 11.953989437350328 10.963589867553209
Sr 11.769203351924373 11.924147529486826 7.58930362404406
Sr 12.152979642776518 8.940614082398405 10.665592678969931
