17
Energy = -16.55263794 eV
Sr 5.269093997759148 8.884536423376233 8.036419967700096
Sr 8.470244964149414 6.6143250516963885 8.68701304202341
Sr 9.273576999331468 9.829898275764616 6.308794136116797
Sr 5.396833477563455 6.430705914563252 11.479255603360336
Sr 5.269093997759148 11.352739980079011 11.252171264442168
Sr 6.982180105548036 12.457709490026089 8.439705216979881
Sr 10.593910094207388 6.936267092868355 12.099770001849954
Sr 12.498957795236858 7.293935251868968 7.964904873838779
Sr 7.6161351098476135 9.64283728752632 11.423547884478623
Sr 10.879724178880368 13.715796952469159 7.696087023592201
Sr 10.993525368876833 10.415351512030858 9.881720403106032
Sr 8.964774055983218 13.46652979401771 11.809155010362087
Sr 14.412982537204035 8.42002399581856 11.42835603572998
Sr 14.477170838883945 11.228586646669214 8.392615491967335
Sr 11.9248229657814 10.814467280771446 13.673283478199117
Sr 13.0452045813626 13.903778292395273 11.18880826021316
Sr 14.477170838883948 11.842329811967403 12.405318604230258
