13
Energy = -11.99065677 eV
Sr 9.300837877326337 5.914759787000073 3.511823648639947
Sr 5.617220553378163 3.1529184405368222 3.2073517096652906
Sr 5.645677355606058 6.990535306751534 1.4147427709313602
Sr 6.882890470733565 9.936922067494804 4.26924158198078
Sr 8.04149692272663 3.3090061364576946 6.963613604231264
Sr 2.5780397652221194 7.8201029908789845 4.292804473397941
Sr 5.926042493738818 6.326074055158238 5.445302278944506
Sr 8.893549387206708 7.67720636618756 7.706176717933259
Sr 3.0509905571279314 3.993759334833731 6.644628591567614
Sr 4.695412676659459 9.208266785509508 8.008378473981953
Sr 5.669067329247495 5.510935213297685 9.622332662112802
Sr 9.644614985258157 4.980796010286178 10.949807624083897
Sr 7.539241414264415 8.752865228736756 11.610447028536315
