18
Energy = -17.8236396 eV
Sr 11.843039115910349 10.47455156993208 6.872772463374348
Sr 10.253005914399385 8.970756182330156 3.3897877018319647
Sr 12.797733338415425 10.727477853408239 10.91445547173238
Sr 11.370776674967194 6.378143253095747 6.768743348221743
Sr 8.398697359485713 12.333689702247666 5.265707992328162
Sr 9.677161486236427 12.876298419196106 9.097181241783325
Sr 7.9263869172185 5.64054584375073 4.129843028189551
Sr 6.00348675371529 9.394489126373573 3.4351161204081606
Sr 8.084357940306266 8.64802332587436 6.6757520475542425
Sr 4.566724967078505 6.853755081831055 6.469000544312181
Sr 7.842501039869577 4.744860074055399 8.140699081983799
Sr 9.448262448356257 8.512022870737887 10.277232766561044
Sr 9.200808328692467 11.723085558041207 12.851843688688557
Sr 11.15095420430887 8.102637019732446 13.834818658001266
Sr 6.115864159080862 10.710591430578075 9.669712262951185
Sr 8.781372455594958 4.977352037933402 12.181827751295284
Sr 5.330367953789927 6.656302482355741 10.474215866371429
Sr 6.9547067665419595 8.50652722699802 13.572636291450268
