10
Energy = -9.09099772 eV
Sr 10.1594689590658 6.029053806245968 6.781453258251484
Sr 6.4985379464231485 6.433597000287143 6.485135983982302
Sr 7.34146076123446 2.7769812208185574 6.388869967981741
Sr 7.598402361035284 9.452969311931993 8.227932455260067
Sr 6.273179986033799 5.246263469443298 2.995155857064266
Sr 3.3747097791646734 4.495449691673388 6.127513105549491
Sr 4.164052865649122 8.738680680759876 4.87754545212007
Sr 3.8270775353160666 7.614051485494792 8.972935569095458
Sr 8.349299751325622 8.786685761212446 4.0854748384038055
Sr 7.265786986155698 5.278244824501139 9.909961406590517
