12
Energy = -11.14117419 eV
Sr 5.790619158162908 5.6517294743119475 5.348434591940921
Sr 7.08735255526854 3.791266141080104 8.536067887549978
Sr 9.174959807691367 6.895385818331124 7.037152390546674
Sr 8.88848611647857 3.1842325197973818 4.980935085144798
Sr 5.157818793752069 1.7749338525851799 5.449918613190285
Sr 5.5919621527973735 7.6585471705436685 8.706587087290725
Sr 2.707103439283089 8.076054240681202 5.720103811304709
Sr 6.398875221012526 9.57792960961083 5.253966411720418
Sr 3.038218932054891 4.479230050589263 7.830017824564822
Sr 5.948298204915184 3.6032871865764524 1.9518321972802466
Sr 4.426017117265105 7.525975181953986 2.1273909656777827
Sr 2.425066922060232 4.416206532750168 3.69237091260008
