13
Energy = -12.20606359 eV
Sr 9.637082342053008 13.101982628652962 8.624222054700864
Sr 11.16803296706417 11.146955033542492 12.026371543334578
Sr 12.852041715030646 10.423557598391678 8.222524517782347
Sr 7.0009636034110665 11.568382170647043 11.542200914222857
Sr 6.108587366050793 11.111448734036305 7.445476886313065
Sr 12.223135255166977 7.220137059544486 10.886958060657824
Sr 9.720494884426046 10.408967177598734 5.397747593011629
Sr 9.165754286325443 9.165926492512591 9.164991215573458
Sr 5.479955775178049 7.90848075353085 10.108449777103887
Sr 7.165150676773349 7.18444239774561 6.305457740552624
Sr 8.609194921615451 7.922607821866527 12.934822713880491
Sr 11.33164945258304 6.765126511849884 6.791023095612153
Sr 8.69557609032197 5.229606596080742 9.70737486325413
