13
Energy = -12.01880969 eV
Sr 8.899484878851016 3.4417704372005993 5.947219286538345
Sr 4.664072561064439 3.808029286263402 5.01947969013952
Sr 7.545455595160425 6.316285979106334 2.9850430864828614
Sr 6.08273221867458 7.319195678963199 11.15448703674309
Sr 9.83996646389281 5.537815112182139 9.69940555031579
Sr 4.687696078794837 10.197218953469713 8.108879796946772
Sr 6.844016610274316 6.791352199216932 7.138317666418102
Sr 3.875405458719624 7.972121237236772 4.344921876638803
Sr 2.919782356431527 6.215646515978883 8.272331237271334
Sr 7.57672413902817 10.211542066085274 4.8814066316765725
Sr 6.023159522639957 3.331386813776408 9.185530680144288
Sr 10.74678090054668 7.398615987025328 5.820536502617174
Sr 3.892142470257801 5.127899963766458 1.011691618220228
