15
Energy = -14.65580368 eV
Sr 7.24655485856562 5.069973703929799 7.476861984728238
Sr 9.775290855126302 9.323871449329369 2.644829734804813
Sr 4.074506217538632 7.5671116457060394 6.554280282267099
Sr 7.928227182472314 4.8943025933614885 11.596432551117307
Sr 11.771248530150448 9.981923633572286 6.226910644368668
Sr 8.734845415699763 12.67340362011686 5.1851610676153195
Sr 9.062329427927173 8.72988796960064 12.887118418258062
Sr 5.188294224649593 7.121976741616084 13.70809838435288
Sr 3.956249734189734 5.072591823547253 10.158074269633264
Sr 6.821621035896084 6.231526173836142 3.4362231809720876
Sr 10.32089718064773 7.286426619954553 9.177725693179395
Sr 6.385507794382793 8.24963382187045 9.93513214287162
Sr 10.663214636019147 6.056714083287551 5.1626005230188765
Sr 7.98650995057878 8.835795465275183 6.21744366039158
Sr 9.137774967876426 11.321989465597238 9.257333715794672
