13
Energy = -12.32707965 eV
Sr 6.272918855448922 9.03919454008628 4.507365996521977
Sr 7.257997802528752 5.509075003503392 2.4112026700829183
Sr 5.881176366190574 5.341686209506777 6.154981494354532
Sr 9.61199370920187 6.636075610690919 5.712603426757806
Sr 7.030226585316447 8.24935772616533 8.612383188157771
Sr 2.493461556656732 10.617148623030722 3.6243352889921288
Sr 4.416268380038149 5.254439475278948 9.883840169984149
Sr 3.25816930159011 6.559338310101231 3.206768085580734
Sr 3.124314718052591 8.316564768111894 7.041136191511669
Sr 8.457680788914278 4.306443679889933 9.00483622925374
Sr 8.609727184488234 2.6037470463630314 5.163631733543114
Sr 4.663003348929301 2.4592375482872053 3.6222300469693707
Sr 5.490513340255993 1.6315153838064034 7.784313417548342
