11
Energy = -9.39213804 eV
Sr 11.152815524480374 8.565885342380154 9.35918117744165
Sr 9.71196344110373 9.731819130848443 5.622876470245142
Sr 11.948236819312275 12.452847524432375 8.973064899400532
Sr 9.097015472849604 5.949241508712712 7.261129486421861
Sr 10.379378984322676 4.8715757894046705 11.028028481518303
Sr 10.065144057346899 10.564302589264749 12.572391100325527
Sr 7.351123835637722 7.570452792741595 10.635555783950771
Sr 6.962773939794535 6.094237029354685 3.8968942546657033
Sr 5.430237989739766 4.645268069228637 7.845808246147142
Sr 5.9461517280995375 8.595698868368489 6.8823261134796
Sr 8.085967771805732 11.324353996619699 9.062566504150835
