26
Energy = -29.58376533 eV
Sr 14.313470470699487 14.037085889176677 9.385479749123725
Sr 16.12864058634969 10.66174464065877 7.446468118075392
Sr 14.893033391325657 10.363835102894422 11.5230141760686
Sr 13.101752378688808 13.1587684845075 5.346881644924328
Sr 14.441480974708886 14.057557277324522 13.765010875462085
Sr 11.53853664348687 14.321356893835235 11.76123312382177
Sr 11.40975936097869 12.583286311705315 11.83529526777094
Sr 12.485395569044936 10.34468932265721 15.061348379512559
Sr 12.275939528177425 10.686411792448613 8.298700896803798
Sr 13.903104745554446 7.0194434555567415 9.181537231604167
Sr 10.460400889652883 14.242026266161465 15.217895380168466
Sr 10.183070837076688 14.287197645895871 8.261511655223842
Sr 13.857781520792344 6.516836060505277 13.407710224930645
Sr 11.131567593737682 8.616372445967636 11.64347247266208
Sr 9.730968465231017 7.380092950218625 7.985124420495255
Sr 7.72258134153128 14.321356893835238 11.77261872217974
Sr 9.885405089735835 6.772954334592449 14.902087276510086
Sr 8.453440426029767 10.841167024531186 9.800461069297583
Sr 8.366287515625407 10.682569011483295 13.940268832270785
Sr 10.510637131429124 5.673145604981676 11.098635252342229
Sr 5.948325962092509 13.11843945873665 7.940847651953143
Sr 6.898398271285769 5.440185309888016 8.634644241886223
Sr 9.023709762284078 11.079336479748429 5.808221235901905
Sr 5.792331033133147 10.961872432730953 11.438576363193011
Sr 7.20476218160018 7.337142037923757 11.573493546883743
Sr 5.792331033133148 8.690456107956315 7.846481236777137
