25
Energy = -27.77425138 eV
Sr 3.4279186467808898 9.678033558582774 12.221085265895642
Sr 4.725820461736882 5.786102366426059 13.093134476018374
Sr 2.5796453535176167 6.464783302577069 9.46051996680889
Sr 5.93398369703079 3.9803976834462063 9.399485702065892
Sr 3.6105750025072987 10.238687497176228 8.107097258317177
Sr 6.7776146885162065 11.825141392029645 10.46392298095795
Sr 6.194254309117764 7.8381081511450095 10.065177582363608
Sr 6.236752350615256 7.360136379588134 6.143532787501212
Sr 8.822693326158099 5.537634889450994 12.264598345668013
Sr 7.452570037248441 9.19472973354884 13.73160676372619
Sr 9.88691966828017 9.024855190084082 10.327845525806838
Sr 9.517941410243008 5.684948818620668 8.17585184947409
Sr 9.882038969383348 5.929195366482695 4.056885252918995
Sr 6.9834841935614635 11.620943273981515 6.312770228416667
Sr 8.065292001619987 9.45549293111707 2.7346624038603577
Sr 12.726355517735705 6.0289918329164145 10.744255511982146
Sr 10.115152447860527 9.271597513752818 6.147732176406616
Sr 10.475702757763033 12.15747868504851 12.630945420009427
Sr 11.606762764139411 8.42246627199774 13.927496309830703
Sr 13.296891956095957 7.102849967985827 6.734036122120016
Sr 10.509126724660792 12.60001664532539 8.412304576825052
Sr 12.321422504935953 9.050004781780466 2.8635921373064144
Sr 13.62055779751189 10.111520369332757 10.19357532339121
Sr 10.451763234503176 12.668653006003977 4.083929661764719
Sr 13.770913498702116 11.213879936618248 6.144129611757526
