24
Energy = -25.46933696 eV
Sr 9.147904907669218 13.57003772600539 4.670218544459864
Sr 10.538448493755856 14.106245868312438 8.607809499247901
Sr 13.028052276069651 11.68963798510968 5.743923467781389
Sr 12.250119540890031 10.787304062041333 10.630838996073125
Sr 6.506616831300969 12.880206266942604 7.796800514277468
Sr 8.153982214386806 11.224756078382764 10.966708784490535
Sr 9.593063721384677 9.800517058626363 3.2656020026322787
Sr 5.738084898301428 10.632026077186866 4.527519943786666
Sr 9.85502745406218 10.556943675193086 7.266206116920282
Sr 13.245769814062863 7.942578587646495 8.123227911056428
Sr 10.284443175065634 9.555885068846369 14.070582422424634
Sr 9.531683235551442 7.362873918164008 10.207020247586836
Sr 4.14076177314212 10.157948031677426 10.067604732348425
Sr 6.803483748789848 8.529442781334552 7.667386385603139
Sr 10.172301425027557 6.785529948007016 5.845529558491663
Sr 6.05586284509909 9.234214570590803 13.763022336003283
Sr 11.59308162805376 4.121914015288062 8.603649249815053
Sr 12.448334265070338 6.278070096607765 12.326282301621315
Sr 6.5606752489189795 6.690370746333512 3.991894665195967
Sr 3.4940639240377025 6.897526401122148 7.051786697068513
Sr 8.835271207899565 3.3970950603661594 11.340900880904089
Sr 8.463720072782468 6.027318464490602 14.256152529486293
Sr 5.611525959901491 6.303613160522974 10.94922430060166
Sr 7.3010177463399755 4.501877984886587 7.598815180224157
