29
Energy = -31.77262604 eV
Sr 9.933624637904575 6.579218705552333 3.6986937778739972
Sr 10.260798789449053 10.331118412865528 7.779367350121139
Sr 12.972507831200705 9.267910990495357 4.964907950013928
Sr 6.910239558513027 8.66321647345768 5.4975957527091515
Sr 8.946794347961657 2.513209136622469 4.67240688755821
Sr 6.8723281230378985 7.505938542535935 13.582866597747653
Sr 5.927570624818854 5.037830152216539 4.04539182306327
Sr 8.60647182948487 5.490509823160309 7.509047674636551
Sr 11.787748354504293 4.309875591183658 10.504094169579671
Sr 13.316289046887835 7.817986538866625 8.861142409226021
Sr 9.573202508962822 1.5788613040354469 8.539414460528013
Sr 11.438543000737774 13.500488752241608 5.433364734809003
Sr 14.03232116349454 11.99355116449174 8.173942731306125
Sr 5.794730016766428 9.091810025055446 9.37056946527903
Sr 3.5810489472703555 10.863588658057026 6.269390509118553
Sr 10.37296178804246 14.090577769812684 9.424227290227108
Sr 5.520359909122006 2.944638732374727 7.731484764168373
Sr 7.9211996728815635 11.461674860777347 11.69638821498718
Sr 12.02039409687346 10.907010994100832 11.553306705906476
Sr 7.574905675476932 4.087758678027575 11.27156122170245
Sr 4.378329514798552 12.93752218234409 9.79410726431952
Sr 3.8104945778494246 5.996615008417477 11.126938600627836
Sr 3.5766874007159593 6.648825890482478 7.012988373946674
Sr 9.601501917068111 7.696008266169692 10.816587326977983
Sr 3.936215451747875 10.110386857825041 12.870515023813217
Sr 12.4167029069557 4.512827670024872 6.39480328057434
Sr 9.447761754962984 10.710705785110163 3.3208457405573126
Sr 7.311360988781509 12.698759236096663 6.746597717194732
Sr 1.650034188273748 9.443833859519648 9.570224963831903
