26
Energy = -29.15313241 eV
Sr 6.682297972709893 9.118236224465786 13.31886082333089
Sr 7.828325611313292 8.105303174082216 9.403874235584924
Sr 10.631894967832961 9.297711994129676 12.24101349505652
Sr 5.4727571327211635 10.66774035350282 10.043714572075656
Sr 6.37332085702104 13.21118230480799 13.293678348911259
Sr 8.042117743282393 12.010077549163247 10.78201205165052
Sr 9.331342683629568 5.491689956248514 12.260719601004144
Sr 9.756899109357187 7.787976271168678 5.7567014710563384
Sr 6.682297972709893 14.6397002870725 9.233532957725409
Sr 9.328456733557523 12.301355110303877 14.663652683626433
Sr 8.516218230243629 15.713985981321546 12.124652003242936
Sr 7.161783299039593 11.394173124643633 6.8554043290484294
Sr 8.67348708196625 5.339629464367952 8.117438038782721
Sr 9.808118226458825 14.607299207982603 8.1505070695625
Sr 13.737220884781015 10.793862536677171 14.431588738162347
Sr 13.703169913989838 6.707481787959779 12.950980913146113
Sr 11.948495696297789 13.203414019958917 11.488416104807703
Sr 11.813778601308208 6.7458447738919105 9.192081570030934
Sr 14.199984301674947 9.900332760375687 10.469183082008447
Sr 10.907315071255137 10.693851890042653 8.301854521243444
Sr 16.27530870050423 9.052148337709246 12.681984581148342
Sr 16.27530870050423 13.05250744031327 11.736596642357231
Sr 14.189288366955925 13.107537989040788 7.930913686815708
Sr 16.140621806507546 6.614654440405959 9.425716756076605
Sr 14.138764490164025 9.002425070679081 6.48876943274698
Sr 16.554330723162135 10.500883388721475 8.618169114359976
