21
Energy = -22.12994423 eV
Sr 10.997428028216982 11.305539590405637 8.870359830661043
Sr 11.02075742090356 7.200952741969961 8.324587833936699
Sr 13.982841590143437 8.775233488322057 10.610481786179708
Sr 10.11915741448376 14.271464985294124 9.7572224708086
Sr 9.106190877858268 13.671731127029318 5.889504529675093
Sr 9.724037637088172 9.655183941176427 5.317584825703046
Sr 12.083207380486831 12.323777508675471 12.60491341632219
Sr 14.44460088422479 5.272084463877836 7.8697474112704375
Sr 12.132423081180018 4.916983242572992 11.326624105330055
Sr 11.677513927268919 5.914381129598001 4.596573587705231
Sr 6.215266840274775 14.271464985294124 8.535734745620148
Sr 7.611354662418262 9.196741417501983 8.999917840744532
Sr 5.725815189537222 10.81443844344635 6.044249457031862
Sr 7.95350471949266 12.1485735767819 11.685615874473577
Sr 10.157593451713732 8.615757563627916 12.113056073323884
Sr 7.666285640231194 6.229517082647297 6.229578992303859
Sr 10.621364372912108 4.761012360616366 7.722745542313108
Sr 7.962710332322811 5.3763874418589985 10.349321113286834
Sr 5.561788274537723 11.085057359832566 10.002832812080397
Sr 5.725815189537221 7.123570662535184 8.740668617593311
Sr 5.945001742458972 8.33383350608834 12.512448209644512
