20
Energy = -20.65059458 eV
Sr 8.535858535220287 8.569192033151204 3.9633672108775904
Sr 11.779934608510422 6.635559001528541 5.250686115139552
Sr 11.231103907996046 10.282435412563284 6.890743473055831
Sr 8.213506950146959 4.4676423724819445 6.149715697425684
Sr 7.219096751750872 11.515999528823686 6.536441646167365
Sr 12.916529873536811 11.576396805493117 10.455480273639292
Sr 8.363972053392883 7.689041595916722 8.132530271515227
Sr 5.064513687167837 7.856380169415608 5.822229910774708
Sr 14.397440949822471 8.03586043034571 8.18452615744304
Sr 10.193309316992016 14.090094398213008 8.325489006819097
Sr 11.327714148636307 7.673818042324882 10.893169456250497
Sr 12.118683829521277 4.479240685693572 8.448276878983696
Sr 5.165921457389473 5.4908967398930155 9.294431526787994
Sr 6.385714078308865 13.931453915672005 9.971184289073815
Sr 9.828992582914399 14.086411899643478 12.509511604586633
Sr 5.0358295274853075 9.816769685462745 9.630480983897359
Sr 8.89896153566675 10.945151485569193 10.300765514486816
Sr 8.772529917193468 4.2022756699047354 10.55791772836098
Sr 6.402089043695087 11.594227529422913 13.38027615790529
Sr 7.305219785456904 7.587513375220115 12.24344319496911
