20
Energy = -20.60553376 eV
Sr 13.024627043358006 5.401735384968977 9.969398979123932
Sr 10.843925920415835 6.514494380500267 12.751536729474516
Sr 9.563062012092008 7.397859146382371 9.841907473939754
Sr 12.976717583122884 9.343903254698038 11.353986383211353
Sr 10.36228830589721 4.953607372513348 6.74811541302842
Sr 12.435383302537891 8.677132853523007 7.314830793658147
Sr 8.662711965032932 10.218717775151566 7.481365783887093
Sr 9.057082389277538 10.317041708642519 12.379683209245606
Sr 6.735614239666403 6.877571128608134 12.751536729474514
Sr 7.270279360537008 4.844278753744396 9.579993707951227
Sr 9.996592228222617 7.93455596580374 4.722318217425079
Sr 6.6871636728746005 6.977275771536036 6.414253971285108
Sr 11.26457448372984 12.466453437733415 9.195024927470897
Sr 4.76710206032347 10.329832884108265 11.880774757402504
Sr 7.160360238687879 13.149592338681463 10.21092101168139
Sr 4.767102060323472 6.9798081693895595 9.588909866803041
Sr 11.088156221525018 11.836369206106822 4.808480866774775
Sr 6.902518538701595 10.582626999702239 4.617313837753687
Sr 4.774409429131763 10.697786662272279 7.681430711983991
Sr 7.8318409813799 13.879434252505847 6.325818348965406
