20
Energy = -20.85484181 eV
Sr 8.37887040194082 0.07166785384241432 6.978804544331106
Sr 8.629889513223581 3.5407458420477984 0.9564645588313566
Sr 5.9532162075853545 5.396120887137623 3.358238162970184
Sr 7.031676688451281 3.6049923467814966 8.503234367679116
Sr 2.5977979044626394 6.8109534290234786 2.015042719340221
Sr 4.50817083921215 3.2616483933671545 0.31672328095046615
Sr 9.389097187730561 7.292769653886936 2.7515607459808122
Sr 6.401563840578325 6.88325041626975 17.953067374512333
Sr 2.250413112044143 2.868416475153747 3.879499409378234
Sr 5.858526250540394 9.397888014834672 2.900508619559249
Sr 4.124997823978301 1.0002865743832234 7.357514425887157
Sr 0.05312944643468366 6.161211477620123 5.302844319754628
Sr 3.4275882308344054 3.649182694521399 9.255607472545728
Sr 9.301363954148995 3.829037352621472 5.11559104218008
Sr 3.09187056745377 8.808489079588881 5.852739457917662
Sr 0.45130108332880264 2.978247532482895 7.8554755650869454
Sr 7.15649996176977 7.426816825774246 6.55825151857023
Sr 1.20032930203428 6.984092469407209 9.25560747254573
Sr 6.232207111346698 1.465586739766962 3.8188148397058854
Sr 3.69385209858279 5.029505553719342 6.849923343731078
