27
Energy = -29.80713494 eV
Sr 6.9355043114339345 9.131780253711165 7.507011487945675
Sr 5.308731283198763 11.097816405136793 10.439754848195795
Sr 8.482336726838533 15.83992614865942 13.143070550857901
Sr 7.857342529448955 5.802977440444288 8.8273489471934
Sr 10.17814690730901 15.849707997547956 9.164720559732759
Sr 13.89805891209428 9.384289126824017 5.919270423812212
Sr 12.253257343122955 11.890469843279003 8.949328842746233
Sr 5.026980229055436 6.983204205915442 10.32261587427084
Sr 5.308731283198762 13.312584593591414 13.748046519142882
Sr 8.904714498690947 11.710079017436444 14.753165416225904
Sr 9.271666992386127 7.516827388831398 15.106237643396412
Sr 14.454353576844182 15.374191794947688 9.35020716121366
Sr 5.890137364832096 15.179495518390105 9.904621415730368
Sr 12.637268352875182 13.615094442893454 5.5890886213431665
Sr 8.140308852771888 13.065947092758316 6.835728252883597
Sr 15.497764294498912 12.02570600403023 11.780676024886276
Sr 5.356314107538787 9.055918687076153 14.186105866741606
Sr 11.773056766642524 9.760648811593754 12.454138661083782
Sr 6.933708158216752 5.488409593569921 12.951767549897605
Sr 8.54910988129489 12.409021610632914 10.856096352741114
Sr 11.989211928751208 13.975415099346632 12.536671531099774
Sr 10.097572299547956 10.155520985507138 5.493473273960061
Sr 8.031375240236509 8.391650012463227 11.35303056746692
Sr 11.049811330386294 6.273610458957203 11.75626217611166
Sr 15.497764294498912 12.022793555300069 7.783937732569342
Sr 14.685445562594841 8.422987427177715 9.897931087031836
Sr 10.833835285172606 8.135922787432612 8.41545246356297
