27
Energy = -30.62637376 eV
Sr 3.725912431940325 9.784180175674003 12.201795125868703
Sr 7.568662018324105 8.486688755145193 13.812161937376079
Sr 6.760811169928757 12.665208197214275 13.103957689474097
Sr 5.645257107074421 6.274293814404557 10.689297880648294
Sr 8.669174949109653 4.361816250236307 13.17992430118197
Sr 10.589058950954042 10.903358152345685 11.988889361692756
Sr 4.460698573509245 12.994433852967136 9.522546015953075
Sr 3.9677855161883206 8.883254768111438 7.821900697270658
Sr 7.01451042935499 10.111161168983863 10.128187579753293
Sr 9.655793158067485 7.148820075637846 10.59483106023013
Sr 8.801992732183521 13.684797312976364 9.436068899093442
Sr 11.743593745050132 7.253833291294172 13.896548826209608
Sr 4.741976668421172 4.780082117751566 6.7407164318118316
Sr 13.05311446829451 12.681924535790808 8.926498176526037
Sr 8.396946471321275 3.6682708884349404 8.932325565237246
Sr 6.823147911053894 11.533343677922439 6.221514579031457
Sr 12.275017399932777 4.278175516918411 10.90463617029006
Sr 10.650690133158808 13.621219549228154 5.683642202732591
Sr 7.706189077743407 7.314104796169055 7.100091208792495
Sr 6.27068486004718 7.849079847168277 3.5906037897494123
Sr 13.36965314753956 8.50015484230576 9.905470199782252
Sr 8.307330891091983 4.0587896870999405 4.767215194558595
Sr 10.261578715385502 10.183539952637442 7.79410078790609
Sr 11.508114758826018 6.034944169904025 7.038895020701262
Sr 9.351712313069513 10.781931197154375 3.072561194044002
Sr 13.044944195142719 9.906265570669692 5.178546958371387
Sr 10.516757812745524 7.078853369050072 3.182969999888378
