27
Energy = -31.25267517 eV
Sr 13.946033167889512 9.346544565273378 9.88851198760981
Sr 11.472724611741516 8.32539476144116 16.007406655867612
Sr 9.97013309826746 4.698955650578307 15.735081871184862
Sr 10.820686591328197 12.334369382020943 9.524280606366489
Sr 12.418763853181169 5.600530256880182 8.691323481659433
Sr 7.352399787612732 7.453687198880105 16.808149566589652
Sr 7.809058473582836 11.033977288967659 12.062392992182575
Sr 8.431047965233612 11.357995329146217 16.007406655867612
Sr 5.985422214945817 5.013946580379972 14.4351088241189
Sr 6.110884577211518 7.313496913136322 10.893837901263723
Sr 5.013286805583147 9.299459289539007 14.498921188659876
Sr 8.799508075997768 7.7433372565841125 13.994407548584181
Sr 12.654174428845005 6.554649526949347 12.991691167065575
Sr 9.478676741237907 14.408306620110954 13.079993393719963
Sr 9.235404447804697 4.746629752756802 11.480692238807874
Sr 4.274519540242164 10.98681091295294 10.441735553715523
Sr 10.210685143374084 8.316305907084296 10.341220856595857
Sr 6.877671907782884 14.04124570834533 9.586884516076847
Sr 7.420085577726674 10.159871594915243 8.218518845587717
Sr 11.743339703534836 10.723644747287175 13.350577431977934
Sr 5.388290997147396 13.567295294739509 13.705561653341926
Sr 8.287117909587149 6.2107828474124025 7.399217006859688
Sr 4.274519540242166 8.028879287135844 7.160428266710729
Sr 11.12331331741503 9.263387418549494 6.548803944607284
Sr 4.65073428663033 12.15992329332821 6.342829070790436
Sr 8.84156781390533 12.943853516860619 6.083317733967823
Sr 7.30803296619918 9.202913657800114 4.679125354843472
