25
Energy = -27.51418609 eV
Sr 10.095485491003615 10.23849980389302 14.09312488703707
Sr 11.99136609271406 8.460572853665044 10.755456866330025
Sr 10.10558955368462 12.584177920120718 10.476951057182514
Sr 9.720006336309323 14.258557554149826 6.615694244132983
Sr 6.20360861023574 14.052792973639201 9.188213255885257
Sr 13.368805748574115 6.6007924349494855 7.339652683841603
Sr 6.7815062632470005 12.425934117897786 13.044297295569084
Sr 9.526892182279319 6.1734013245538994 13.31598213815384
Sr 6.131107827061029 8.410640454412581 14.09312488703707
Sr 10.410417501440735 5.332183013199951 9.59701081173624
Sr 11.648765438986777 10.55620907914264 7.048309222167562
Sr 9.351817005041513 7.319039707461003 7.282128932186343
Sr 6.4195052672166275 5.884096493986391 10.49171671375722
Sr 11.838384408363607 7.967198878454561 4.7198362228527
Sr 7.448494311646528 10.997764481629721 7.133829736549988
Sr 9.250840484432851 11.180992351962601 4.497220009763469
Sr 10.827918431449218 5.143252835849739 5.151124256898474
Sr 6.160188427731746 14.001085918469027 4.7198362228527
Sr 8.247519651693693 9.237333767111213 10.917417089490405
Sr 4.540900573106545 10.013576537867412 10.408600184453572
Sr 7.123433932455881 4.979151147932784 6.760378768037549
Sr 7.843127359168353 6.93672838175185 4.528187056720202
Sr 4.390853712913292 11.703249749069187 6.80963823421299
Sr 5.25505271890548 10.16200533306551 4.397410453925973
Sr 5.177947376369157 7.7405124630795905 6.850097759972037
