27
Energy = -30.15518823 eV
Sr 14.596661549883216 9.60834118795637 3.828142795640309
Sr 13.91245619293721 11.10040200667041 8.088986829883153
Sr 14.52206837193083 6.87719609965169 6.979189815145257
Sr 11.932315117248548 12.711509033419375 4.547776541845668
Sr 10.676706558235441 9.593486315196149 2.0391454046150765
Sr 12.246678516737092 5.98444617849705 3.555541078069855
Sr 9.923266133870833 12.67764231289755 8.16346337832084
Sr 11.34779578929165 9.042549354717229 5.957068528692009
Sr 12.141154683754962 7.842383388266177 10.247664390494975
Sr 11.611154797357699 11.633785883433225 11.657084617867259
Sr 10.59516285798197 5.230219679462156 7.3478720780427595
Sr 7.945582451567057 11.186549815002055 4.864466139990618
Sr 8.505467938552004 8.790461810766168 8.651151292816845
Sr 8.113277953114592 7.067699306409441 4.569136781605735
Sr 9.221165937272632 8.642845650814564 13.19440152429158
Sr 7.344402448412482 11.779774903918904 11.33021596236454
Sr 8.908146033402149 5.06470675118411 11.138692214085436
Sr 5.654345958788339 12.838597758575203 7.840064307225634
Sr 6.374657287722327 5.152962455671808 7.838165707346202
Sr 5.761160415955632 7.566665265271438 11.139413310894762
Sr 6.4265813999168 5.82871008004366 14.67824286651151
Sr 5.284726336992844 9.847371793821356 14.348133796720933
Sr 4.877025340008355 8.959881068308741 6.814357771500753
Sr 3.3008913726420075 10.531174294638893 10.51808938445843
Sr 4.745159504933937 3.7187349128035927 11.437725274568102
Sr 2.504959957024393 6.435003692422373 9.121977859539182
Sr 2.518145484934342 6.955710379739284 13.255555296175658
