25
Energy = -26.69151998 eV
Sr 14.287658390809067 13.139166363889938 15.849599894089232
Sr 10.660687203852621 11.255432740068548 15.84959989408923
Sr 15.455116635688418 15.36336830161786 13.382843446076727
Sr 11.410420376454459 15.023802279361522 14.280205088206252
Sr 7.494461029561473 13.970353821977682 15.069748591348143
Sr 7.055264210857935 9.730394863261585 14.250697866556516
Sr 10.942118151250488 8.475603683425211 12.57744234030109
Sr 13.538360362564754 11.728852321309374 12.854476841647388
Sr 7.715991062427535 6.097273422999003 12.437254578002655
Sr 9.440612625807514 12.149691624937 12.00877178361024
Sr 12.52055364240226 14.988825137703298 10.396885187626323
Sr 5.324545136235484 12.73902733080461 11.950064204271579
Sr 14.457566083994841 8.087857196479955 10.597307244271521
Sr 8.332979236999256 15.605055620134657 10.841875755448648
Sr 11.997277772019348 11.170209482511906 8.997282575890985
Sr 11.070277277428412 5.326933940730025 9.733232924456047
Sr 10.229297683618856 14.418884637516811 7.031668809176784
Sr 9.027012145418235 8.38466884895112 8.949268086616161
Sr 5.372573821518133 8.826990571505371 10.536018058465418
Sr 12.753297673257453 7.806370291547861 6.901848435640782
Sr 6.6079712348562785 5.25596328277165 8.648263359929334
Sr 7.352783643194972 12.054204045344504 8.50862240165152
Sr 9.75685974915695 10.429227373335443 5.579666506714398
Sr 9.288819155803555 6.097273422999006 5.74251287068365
Sr 5.996853626066374 8.652456817729503 6.3473536272952815
