24
Energy = -25.07983827 eV
Sr 7.971007035638829 10.013800882646139 13.341618657974982
Sr 6.468224857916386 6.625898663017709 11.532073740192779
Sr 7.15170743222876 7.055394834709876 7.417566353558162
Sr 13.829704291589765 13.852206344941745 13.565960911239582
Sr 5.948460482193945 13.4161110702447 12.13807111738105
Sr 11.93888764158694 10.215541982705494 14.05697807219355
Sr 9.012625506103074 5.818189116720644 9.575364238506964
Sr 11.98397253261794 15.094655887210688 11.413244614853433
Sr 10.383915855696161 12.56317557130882 10.683067896612783
Sr 6.659444959918783 13.847815008888348 8.030807018609503
Sr 10.248455028850653 6.052069457889602 13.406663981325634
Sr 11.360592737484545 6.772383322730287 6.766623518454885
Sr 9.062565877069588 10.688821344271917 6.909898809301454
Sr 15.044180442956193 7.534647010587974 8.770004470250303
Sr 10.763328236571075 14.877446138121925 7.543629963438612
Sr 6.129274182970632 10.211255953525438 9.704557862592889
Sr 13.033595071908216 10.940855487259887 7.591138790442267
Sr 8.106265805939751 14.877446138121929 10.690738236782623
Sr 12.904265245494075 6.052069457889603 10.217162163340607
Sr 14.841150787315302 10.716750365943735 11.239086534809157
Sr 10.686181124879818 8.370138375514705 10.279640226635719
Sr 9.623891852219064 14.157422659740465 14.179524352327308
Sr 14.364573754916815 7.074208877029841 12.885774987961799
Sr 14.543678397253174 14.312592270097847 9.45335649193582
