24
Energy = -26.62677469 eV
Sr 11.157942262499132 6.485200763863117 5.755153975938927
Sr 10.472566730145605 9.901815085553332 2.9236468180035122
Sr 14.261520133428645 7.15817225398115 8.493815472979845
Sr 7.580722785829367 6.959326862893149 3.310020307522543
Sr 12.47105382568082 10.520548042344481 6.570051249206401
Sr 10.695549002592934 4.847069606144012 9.674518498250576
Sr 7.405814022922092 4.85093513676389 6.929634846743813
Sr 13.15196742225028 7.220456971067272 12.498358767705243
Sr 14.009874143462502 10.895077153232759 10.444996401912205
Sr 9.393332905243515 13.181288410916617 5.357808158810589
Sr 8.60209936127765 9.365885128981198 6.374509432637118
Sr 6.374054339042548 10.996397542864182 3.53851324756031
Sr 10.733018195641517 8.741747030014109 9.753921588486588
Sr 6.894657593191483 3.9274972192877033 11.138552114276859
Sr 10.011349185548239 12.57460670656338 9.454691197457723
Sr 4.7344100705919 8.174535411173252 6.197589832992732
Sr 8.991627818320575 7.048455926774236 13.021914772496158
Sr 10.994213673059583 10.736485016729517 13.256492577297243
Sr 3.6068283506078105 5.423658237877961 9.146654655691878
Sr 4.802788860419714 7.087017638704047 12.928238273063434
Sr 6.090525370460869 11.906512615824077 7.9200265887386125
Sr 6.859907611968852 7.653860346930165 9.597327052661543
Sr 7.032067441726329 10.772219797178506 11.928091909736198
Sr 3.279082959995439 9.555637812504923 9.951382484938096
