29
Energy = -33.3938835 eV
Sr 13.99843292889328 9.13424214103777 12.503876910631849
Sr 12.308003468104472 12.457563547313384 10.249927180008372
Sr 13.625901263442778 9.184202556714126 8.02866975476952
Sr 12.86320204315778 12.756421641080234 5.664324117465794
Sr 12.820140753279247 5.581833252691948 10.594787312182744
Sr 10.514449137230702 10.942422631070038 14.016112105912137
Sr 10.52043395044264 6.599767123663318 14.101877723653438
Sr 7.996878527068126 12.138256064871259 10.776174298768849
Sr 11.47729928963391 8.9897418926168 3.9851798005476917
Sr 10.563131777438285 8.83191217697783 10.757162397424139
Sr 10.398562251475958 6.642593120353544 7.2718506861011365
Sr 8.771564360472762 12.130937515009132 3.590992947676843
Sr 9.945501712768511 10.875720997986098 7.306629228970204
Sr 8.47641690426032 5.2461659800296045 10.746190552107116
Sr 7.521869816449333 8.552273781881707 5.021051600544915
Sr 6.985598824531881 8.590747058279595 12.980105169442155
Sr 6.505967053104933 5.063962051928355 7.036077533333968
Sr 5.412874800850907 2.4133212087871514 10.137546006225762
Sr 9.052121543394689 5.236536143149973 3.490762333062854
Sr 7.093492545926315 8.65763020321915 8.932699404394489
Sr 6.240318257869724 4.603331604740601 13.985021882693294
Sr 5.932807858817073 11.952296427919627 6.893600678397821
Sr 4.018144097981027 10.542771655120246 10.472140750605142
Sr 7.981001462600055 8.580825826062345 1.1762631206724226
Sr 2.6054873431671246 4.264099518051092 7.153030733858705
Sr 4.717045842256713 10.41413680839178 3.0969316401963254
Sr 4.344144651834328 6.27596681073374 10.514557732974586
Sr 4.821040851057983 6.079134558887068 3.372719826880361
Sr 3.6911607356439244 8.287601759413366 6.773038335446663
