27
Energy = -31.0538052 eV
Sr 5.879782926553044 10.524355893612514 5.929995111947183
Sr 9.111073141487909 9.517743299391102 5.423041354817591
Sr 6.534068027301624 6.990190113031391 7.914415977448295
Sr 4.7009316030258 9.61151149353614 9.954389987590128
Sr 5.623888641395842 13.664857222755892 8.88688277740856
Sr 8.13769592635691 13.605629550251717 6.077385500564989
Sr 10.265488422073584 8.059797515739326 9.118216775779903
Sr 7.362041456828306 10.806536287233797 8.987490069613473
Sr 7.303970976277728 7.949324776509906 11.997586184612027
Sr 12.1234099197429 12.546949385401975 5.423041354817588
Sr 6.111626128192236 12.00198510666886 12.653029218871378
Sr 9.413753330639727 5.379171089898652 10.320746532718948
Sr 8.683221545661294 14.569647918302119 10.184139111903395
Sr 11.091046181832514 11.883884363826597 8.170981333686598
Sr 13.372905858668434 8.868036330083378 6.511626025384336
Sr 13.654442991838938 5.892357669337177 9.720051071504338
Sr 8.926436223972763 9.962913577736549 15.54395703795647
Sr 11.3698563212164 7.32648033736658 13.0288782099504
Sr 11.846789036245882 15.591808083104056 7.358153270526529
Sr 13.53611002575516 9.865939996478973 10.554126430538622
Sr 9.999700687140887 11.076424133968786 11.966372555046961
Sr 16.023685408884564 8.700825106575495 8.960782204997896
Sr 15.02861167640607 12.557846369902082 7.834526707631553
Sr 15.7361004831137 7.777841998841088 12.990507091397081
Sr 13.202668911168388 10.924148770312842 14.453285430272793
Sr 12.91962236296873 13.93075465115454 11.264481354113006
Sr 15.7361004831137 11.845055367595476 11.919117699903719
