24
Energy = -25.3093343 eV
Sr 9.81128431945119 11.256637335134315 4.0272605745562275
Sr 10.845835507787823 7.424157092391009 5.32284199207965
Sr 7.480944181071589 5.222501229007453 5.663608109456818
Sr 5.380159063514534 11.682476813663438 4.6604724545519165
Sr 11.046586654355819 3.6287046600414206 6.861424393911347
Sr 8.73390083265286 13.655942747261292 7.067753143564849
Sr 11.45926289009399 10.556988718211906 7.772535226015342
Sr 7.2749223308008935 9.42042466030325 7.044547401556734
Sr 13.15313194510179 6.689835413096997 9.103194700995578
Sr 4.096241288562666 7.347119396768063 4.842948969020815
Sr 7.471959176307586 8.24409387845978 2.8747903449864785
Sr 11.978578666922775 14.041831977308785 9.852525341433378
Sr 5.232947470656018 12.826256753966796 8.920065584893624
Sr 7.5181552879862075 2.788434512927162 8.947010664355942
Sr 3.0968202235391233 9.63617068405041 7.930217513521757
Sr 9.306976943474929 7.17787310533789 9.618819766393132
Sr 12.320699674900776 10.153034748484274 11.709742217806024
Sr 5.0425220602270135 6.044824455760518 8.77900609360124
Sr 10.984673314214124 3.382340367894911 10.85239219957233
Sr 8.74357711776309 11.685629298400492 10.599500970937816
Sr 5.624438352931793 9.22242210402739 11.206804113456592
Sr 11.658942985239161 6.466955053925179 13.241721751285194
Sr 7.4437490273330305 5.325395179883794 12.490011569508521
Sr 8.798799644658773 9.195878349358953 13.827960492320713
