29
Energy = -32.9038349 eV
Sr 10.198400308406093 11.208342588149778 3.479986622400199
Sr 13.391446976928979 11.064361994767514 6.310193089942761
Sr 9.927630234224356 13.004326821171594 7.5858392180414285
Sr 6.668952161668208 13.190198567569459 5.08533902582325
Sr 13.298119862684679 12.379087871262993 10.120263106231082
Sr 5.9214878321290545 9.817915204960856 2.8382361086310324
Sr 8.98468879747844 7.1647489621008145 2.7328744066438526
Sr 11.632358793824462 7.513877126128254 5.73798970060519
Sr 12.602275377955833 9.496025989017646 12.954732909040938
Sr 8.060634467010168 9.528988206753729 6.223915197098551
Sr 14.343681354005628 8.061410083803437 9.204126894625409
Sr 10.691587435676546 9.367718988554593 9.401944433223024
Sr 9.361767903491149 12.305434519231769 11.740553257495288
Sr 5.969956335828321 13.05044644391897 9.222491988557126
Sr 5.561980644282945 11.721265003399896 13.33874042339406
Sr 12.679973256966626 4.337985248869276 7.892962947410062
Sr 8.579782905597137 6.001545908529757 8.27870805798769
Sr 4.19188771697223 10.023114944361186 6.750418293284355
Sr 9.362070363218727 3.6770974227255553 5.288813851025083
Sr 6.591386229312314 9.250669549938156 10.293630786813159
Sr 5.769688800167849 6.260313219039139 5.242151131905396
Sr 2.730263460662756 10.430140204318613 10.618531351561664
Sr 8.575979830430386 8.554803307790321 13.62197126378852
Sr 11.172195327781786 5.874897045867282 11.439077740300018
Sr 4.315171650704968 7.78610112291636 13.352534494090083
Sr 9.584277452259593 2.3311439444172595 9.582465344105284
Sr 5.934865319385495 3.0047912816184335 7.895860116960158
Sr 3.978668377760287 6.491912919015558 9.202892366687953
Sr 6.9923483961987785 5.012859888887678 11.742591788230591
