28
Energy = -30.6176861 eV
Sr 9.186647811025486 13.670197232715287 5.487391040970839
Sr 10.624768145751732 10.1371870395136 5.141054921265543
Sr 5.413587400128656 14.034648002693633 7.112022935051461
Sr 13.528393070614166 8.425728965797681 6.1883737036064055
Sr 7.935552561551724 16.63212755609069 7.288496655198682
Sr 13.194923281259191 12.6958039735379 6.549124186876757
Sr 12.090132404929244 16.632127556090694 6.961100220931791
Sr 9.889344872494851 14.231744649648506 9.291102407658078
Sr 6.839386875369074 10.205201125213 5.838504017212091
Sr 10.427814616712194 10.263313240770627 7.976901358609121
Sr 6.683684831150431 15.584581931501315 11.011695036289
Sr 10.77450266710279 11.375317361044774 12.0366631201557
Sr 10.446432016142678 17.372591777896048 10.531580520729538
Sr 10.295206522991995 15.142258709628601 13.406580529040246
Sr 14.13098261529632 10.373790121382989 9.905388782276175
Sr 13.538033211740599 14.612463825383207 10.531345341686807
Sr 12.85435799939155 8.230777249639226 13.356364490039118
Sr 7.269222811620333 12.45421686870822 13.773926607699904
Sr 12.137082294390277 6.640354735192648 9.629117792203221
Sr 6.925975151009033 11.487565838356767 9.795894073261053
Sr 8.760651624583197 8.00168688588367 11.040163061344325
Sr 8.772535368710937 8.626873487771492 14.843116904990383
Sr 9.345831789148152 6.825178541643018 6.371133267560231
Sr 10.443275019929297 6.176077450057897 13.153371149838435
Sr 5.044153542410745 9.281348355994242 12.615544675506987
Sr 8.526550660932548 5.452869198325924 9.481893681900928
Sr 5.678157211343894 7.352285363285096 8.765599937418662
Sr 6.314892730791004 6.640354735192646 12.808199375986295
