24
Energy = -25.91146653 eV
Sr 8.547853795147093 10.775158692047944 10.054926114429911
Sr 10.453931428953798 8.263937377374068 12.849566615986333
Sr 7.062060030339661 6.946342826636385 10.872491258808331
Sr 10.331317041700885 13.73282043683356 7.934345436035547
Sr 4.561878059842578 10.32848263902206 11.11031849518959
Sr 12.610160714790604 10.470976040413525 9.890122503372998
Sr 10.166569494936423 4.077335882261654 11.700209704239729
Sr 5.654083389968838 13.341218223500956 8.165025162732567
Sr 5.861342138180545 9.513022147835 7.391079606428478
Sr 13.922888495058551 6.6359197776556345 11.302196363996348
Sr 3.3701664719495117 6.71147310620737 9.160343128531219
Sr 7.95862994538919 12.602512999951966 4.828293588240758
Sr 10.6277123939415 6.9193538833254795 9.059929658295484
Sr 4.106651703101429 11.563595459472523 4.391797992541029
Sr 14.038326415667978 7.672015431014947 7.140118912723656
Sr 5.847015962046167 3.1545395452887806 10.080302113079547
Sr 10.352499010375022 9.834572301982096 6.408187704833498
Sr 13.109383770690382 3.8096211177846726 8.376897400225376
Sr 2.0263356204306278 10.55514303582462 7.842570282332067
Sr 7.2771935494933375 8.531454400427162 3.7902129687187704
Sr 6.774095656565706 5.6993984276941285 6.901255058647463
Sr 9.266743802905127 2.7425639518030884 7.901824939091217
Sr 3.314486189221938 7.5387048934891245 5.068361428306222
Sr 10.689042894531127 5.76790368925587 5.242978077655669
