26
Energy = -28.40192116 eV
Sr 13.600597132727522 8.279549225473785 7.612497916793508
Sr 13.129757513267426 4.361693558118644 9.180397432007512
Sr 13.806385928481282 7.31635694766552 11.898160168664129
Sr 11.825234731484564 4.659955648627316 5.228235037078671
Sr 13.543569753743721 11.501723531017976 12.770570894862603
Sr 11.751799438007502 13.477668767119457 9.524857613483633
Sr 10.431200743481236 10.841354303727211 6.5984790352075695
Sr 9.92977375807635 6.744183806889301 7.952237211438693
Sr 9.568723971066158 8.036113752558236 3.964119941538347
Sr 9.434792861810177 2.7234731877386884 8.2773556749013
Sr 10.02199692187188 5.451620060127366 11.688543623427602
Sr 10.973689087744035 9.690076537058145 10.42569954216066
Sr 10.665962569269368 8.765212783922367 14.26446035653193
Sr 7.42868994442813 4.804066508710085 5.289008094417072
Sr 9.262602783120322 12.406347008529899 12.79823067023045
Sr 7.6016083355904 12.01736539405724 9.056880656570543
Sr 5.478223784941104 7.944574952496083 3.0611167522414404
Sr 6.627891898885793 11.843557386523184 4.779605100772546
Sr 6.325314650117798 5.33903608075388 9.318527891099437
Sr 6.5834218792174495 8.61760905952442 6.8692538085270645
Sr 7.3047235508290065 8.760602928089337 11.526071382857861
Sr 3.531415183311372 5.9882839087237505 6.297884316687366
Sr 4.931722737812322 12.179052303749128 12.085172576357794
Sr 3.774102626367709 12.85951910688634 8.088663039362022
Sr 2.818540767090313 9.970941574747725 5.496925309149547
Sr 3.6456471475909913 8.961112882046278 9.515046289520377
