21
Energy = -22.92012707 eV
Sr 12.247901997864616 9.736515629766057 5.009911418208526
Sr 13.534399621939102 6.080095190331156 6.803281968915431
Sr 11.037368229572834 12.421118877934802 8.098392737467146
Sr 14.37957997519269 10.005460564042814 8.71045126426569
Sr 9.620231944487747 6.3458375038420956 5.12370666578124
Sr 13.138896691008991 6.514174068893781 10.910503635937893
Sr 13.748538051664728 13.79453163204678 10.825008181625089
Sr 8.074364371924048 10.272489101371248 5.969356264124544
Sr 10.003198982171527 4.359240952502159 8.89781572982879
Sr 10.738653536637516 8.295405754300345 8.372734880015816
Sr 6.249062721384947 4.124120754973024 11.163389155391126
Sr 9.021718017795807 7.0300619243336016 11.942281451501124
Sr 7.015191497897656 13.876748748617397 8.095502159807888
Sr 6.810562841135362 6.963156533081322 8.281618437683205
Sr 11.65061608611208 10.422225301551501 11.824674478474712
Sr 9.435225934890221 13.940398363281954 11.630285209433318
Sr 7.895695902999872 10.55483433922908 10.051748310580328
Sr 5.063597054514276 8.290122852493603 11.831236575992044
Sr 5.150634920561757 12.736144897877509 11.760660062657994
Sr 7.967613833726858 10.639774859563198 13.975458357322907
Sr 4.395296262350422 10.483170356374648 8.21343057169038
