23
Energy = -24.25383438 eV
Sr 9.967263224304775 4.546835152488896 7.04688183588098
Sr 5.994142654159451 3.543949533048621 7.946058396238398
Sr 8.745488849949679 3.3868565225557603 10.895690847574581
Sr 6.951703154246732 6.5000244483142176 5.1910424689270265
Sr 10.774638983353595 6.803794240583293 3.6006930988348618
Sr 13.554962455534527 6.676807042263436 6.5244861494672275
Sr 7.62376093800145 7.242813520786801 9.67571562887976
Sr 11.874814700004212 6.132543317576573 10.33323853476462
Sr 3.6646602826582235 6.754857516096939 7.795620774723184
Sr 5.065630412617027 5.617447265923993 11.940146674083632
Sr 8.455030703229314 10.018329787245346 3.450116715726492
Sr 10.15018757773371 8.968856537551561 7.3723296249877865
Sr 12.58984972105588 10.75359214718464 5.097688244654043
Sr 5.89443373610974 10.065493478243564 6.698838125154266
Sr 9.293803147581155 6.287341725464428 13.639436661930025
Sr 14.08258638615594 9.55026091680536 9.297185225183624
Sr 4.16539257724827 9.87677367314444 10.393543639333025
Sr 8.711633539726925 12.986972909984935 6.257105839561501
Sr 10.812263495562396 9.72272503771204 11.856024403349668
Sr 6.919356404816018 9.453101097605458 13.399088966884865
Sr 11.702139210975442 12.71877273069157 9.04922670575035
Sr 4.826225098308322 13.626001562707474 8.199719990107456
Sr 7.817168488580655 11.674796837271462 10.022370950509547
