28
Energy = -31.32037449 eV
Sr 15.813488850435196 9.545221935016725 7.036861575651651
Sr 15.813488850435196 7.240892907740797 10.402578150566766
Sr 15.808100121948438 11.511918205876851 10.785141691672596
Sr 13.546912244549283 5.999629586527372 6.920831932002954
Sr 13.373907813145534 9.785314943080275 5.189041565762938
Sr 14.322185980591533 13.164142621510814 7.14040004695862
Sr 12.074065580648448 5.999629586527375 11.092174766608462
Sr 13.076970209779246 9.507351632673938 8.499042709559832
Sr 12.901334020106727 9.23759146682753 12.644459540019781
Sr 9.907352250488103 8.018244305910125 6.081942196695121
Sr 9.625058646191903 5.097866123169277 7.9164537376941295
Sr 11.845163136890552 12.668890148591684 10.445218318831039
Sr 9.61502905446666 7.182016780095041 14.123223348034546
Sr 10.379509527819112 12.12220198798867 6.461017701498243
Sr 10.12523423245371 15.81491282958382 8.426368144686153
Sr 13.077961600294321 13.143267410180268 14.180079240883341
Sr 6.1938789854889835 7.228952960414193 8.264446801376693
Sr 9.570032769848059 8.418465414366256 10.187485150901932
Sr 6.705555593242923 14.468481656256628 6.416462296014434
Sr 9.402437090389496 15.218501148776298 12.561709434901848
Sr 7.939722324691028 12.437782927539919 9.720441026541838
Sr 7.667143918963075 5.552184397713475 11.445017231593056
Sr 6.663621981062211 10.461424594073414 5.947152932368656
Sr 9.385674074045994 11.228203647962262 13.46883996161083
Sr 6.124849796049732 16.086266600452625 10.09354256618467
Sr 6.080079394180878 8.973812187397392 12.094684359672717
Sr 4.813078643136119 11.673797197914475 9.085736031769844
Sr 5.6765332443288985 13.119933359494594 12.966366138538586
