28
Energy = -31.07559433 eV
Sr 14.291838198762331 10.60027499269746 6.66664928272613
Sr 16.603727796188927 8.893611398563527 10.113186644144564
Sr 13.48787791205146 6.82091791426416 8.705146104110172
Sr 10.324868249738222 12.650919309628382 6.2182853624971415
Sr 10.313495322697142 8.628597758844883 7.027878836332296
Sr 13.369453095705161 14.790523476210547 7.7624130947674415
Sr 16.26415054054784 12.993866300043896 9.88910835773822
Sr 13.807180246188821 7.024973697913455 12.785532992876016
Sr 17.65966683742803 11.441184697146094 12.542031231475743
Sr 17.65966683742803 7.931580896966031 14.155575485995321
Sr 12.333326769670487 11.134457486203765 10.045989932284188
Sr 15.091475131434102 10.939588602963417 13.250053053915364
Sr 6.680588091727348 10.342884566123487 5.778061686993182
Sr 13.14725821324875 14.797761600884757 11.99548447311402
Sr 9.772088997837974 15.01999465314401 9.63956025616693
Sr 8.196997315722971 11.225819357196743 9.374693088944978
Sr 14.476624032018957 8.80898570033514 16.654692211753392
Sr 17.490241281483872 11.522830741417504 16.452050756010454
Sr 10.08415559093847 7.711397136215577 11.091481287919096
Sr 16.772445672548066 14.600613143568618 13.854918221691221
Sr 10.93456494444609 9.389198161160735 14.68495285118573
Sr 9.771087743859141 12.763982239605394 13.066245577382801
Sr 6.394372786343134 14.165588967278325 7.291759261390551
Sr 6.5497728669587065 7.593447796900508 8.910927499940275
Sr 13.199490320037603 12.93476706620388 15.95925635116958
Sr 4.544483591341921 11.017403361344481 9.174983065145778
Sr 6.3943727863431326 13.884983975368135 11.459878539194436
Sr 6.801221863994131 9.750954299049955 12.740782976957922
