21
Energy = -22.02907691 eV
Sr 10.438468157677763 4.309223529363639 9.1913097275001
Sr 10.021309118104455 4.541059062498067 4.893518126415523
Sr 13.513008494621939 6.27803783806003 6.360596577687483
Sr 6.670039464572686 5.464764967323845 7.363624920239419
Sr 10.14482581412287 6.476490610534902 12.893189644639175
Sr 13.02939300386627 7.513148695399347 10.19544165611621
Sr 11.252510690206913 8.476724374187036 3.6876219524102285
Sr 6.8759541250798994 4.594993461398503 11.433978307919322
Sr 7.270902960695811 7.379500884074043 3.786386959409142
Sr 9.89235980067627 7.729791891896733 7.373277466374373
Sr 12.392855730038702 10.64140846419152 7.317458520600378
Sr 6.933925295352832 9.71881658866007 9.034402108848441
Sr 4.380227611413974 9.100059762270604 6.236906877477331
Sr 3.898407617877619 6.927168037667059 9.929847035367942
Sr 8.353770267349336 10.944286481391906 5.4550046904482565
Sr 10.218031241731719 10.254731638970375 11.151584070866098
Sr 6.526562533350603 8.650869721680145 12.769467138309771
Sr 9.472094911303804 13.343265690817866 8.557351737179172
Sr 3.32628188165029 10.932647811381177 10.35339435369028
Sr 5.467248574341724 13.13927580354296 7.569377253473524
Sr 6.823967845299207 12.808934641090511 11.648824403113593
