39
Energy = -45.3975783 eV
Sr 10.729109772344998 13.934956535219175 4.871512549406025
Sr 14.177519159700076 11.223285118949386 5.069124411036447
Sr 10.170029547211826 9.862982589539998 4.473370829437972
Sr 17.757575178512738 12.79214903263485 6.442888483241224
Sr 14.0019146431664 14.772041764403873 6.817972493487629
Sr 7.501793125867624 12.051651154819975 6.550848519842064
Sr 12.957060605731346 7.702594818500212 6.548701463806729
Sr 17.10988143620914 8.754989016734822 6.654940735892735
Sr 17.40878867161684 14.90591970592597 9.397023798534759
Sr 10.00515850430146 14.873254334945223 8.599987787784002
Sr 18.917492647179557 11.046800068222316 9.570213530803683
Sr 11.337765716730564 11.377029334698149 7.454890395258078
Sr 8.853291604294748 8.186459381156446 7.615741473087899
Sr 13.479216869645832 14.9744283749942 10.907283254506448
Sr 14.991688556003764 11.484333286072548 8.91210989096237
Sr 5.474161878075914 9.425656316732354 8.872698703608366
Sr 12.010586584195849 7.914084445033143 10.52198905891088
Sr 7.038572770372495 12.72647665728756 10.664116692270337
Sr 10.542342141018768 5.009231237585995 8.49674022280275
Sr 10.974801377695112 11.756711078306537 11.514007768378216
Sr 16.214841198899013 8.202434714260633 10.874949725389676
Sr 6.88774614811899 6.057646237957261 10.180555355355258
Sr 9.451304205331539 15.35716753105474 12.841500155306319
Sr 16.636364208619426 12.471752107213927 12.76842686671204
Sr 8.139390282921351 8.888841792567774 11.509388529491655
Sr 6.008822232152068 14.41498367687383 14.26158345443524
Sr 5.066968960023868 10.339206975994816 12.963375142944551
Sr 9.78448110546849 5.454823167343413 12.514282371738085
Sr 13.961319955179938 6.355636173343853 13.58318567260251
Sr 13.860216035712318 10.00105839626143 13.834753160166716
Sr 9.10438572427432 14.802972367529732 16.952501885828106
Sr 17.382678007602074 8.591069702289035 14.869906361033843
Sr 12.750823634324234 13.799768574753228 14.772303738273374
Sr 7.038572770372495 6.917303939382152 14.46622554665565
Sr 8.266644070023368 11.511956723390808 14.599729748292786
Sr 15.57994011060029 11.716797371314959 17.025687921860168
Sr 10.573202514216838 8.17966137824553 14.641326522614273
Sr 13.960967562347362 7.870554568485567 17.280775251036452
Sr 11.379546661775226 11.165091913352978 17.280775251036452
