35
Energy = -40.20267672 eV
Sr 17.29834422709511 7.655462915009709 13.008289300858953
Sr 15.578972824709252 5.191331188083144 15.558841193535272
Sr 14.180954799552701 9.187522048700353 6.342407693102956
Sr 13.978399896184248 5.207745686836175 11.669280140189521
Sr 14.648070274528143 12.614834020684874 8.452379500801765
Sr 16.099016239077212 9.580526490481587 16.92578528433085
Sr 16.22515677426683 11.62348111576364 12.776989357344641
Sr 11.918852607003833 6.320981261670382 8.047300145151645
Sr 14.63718461270145 8.844324725613122 10.09152029135215
Sr 11.777309685318984 12.53583894313255 5.555365086386739
Sr 11.358437644281034 5.021416617478694 14.800250643039911
Sr 13.061031134916904 6.668321197007691 18.229863755773177
Sr 9.963580236643445 8.410053589083633 5.546520946189814
Sr 13.497050657684225 8.616865164708132 14.378360675452702
Sr 8.294823464579347 5.021416617478695 7.279151242873769
Sr 12.341547629666218 11.781763893542346 11.776996624942333
Sr 9.676919496506319 4.737753479088255 10.76104608568041
Sr 13.26980618084206 12.93495336964616 15.455093456171193
Sr 11.285352378258713 10.345055560789849 8.252320113368787
Sr 9.059621561049381 7.2537951688552065 17.469394648335847
Sr 7.505507944339131 6.1131623999533184 13.716793840756727
Sr 11.719631561058435 10.447656761599944 18.22986375577318
Sr 10.713847335302315 7.962815402674521 11.71568048409327
Sr 9.417980584123196 10.46822794033072 14.812271876497297
Sr 6.075620728297506 5.039464469149708 10.184092537425684
Sr 10.726099066250022 14.28634291840846 8.869931206873247
Sr 7.909297972939571 11.749220695628106 7.283329283886895
Sr 9.931938370368838 14.64271651346045 13.18553256629963
Sr 8.03015445133622 7.925614044798204 8.818724056270117
Sr 9.600838643269519 14.019607472256508 17.16301484434041
Sr 5.830968177291491 8.700032448952578 15.94434853365134
Sr 7.4697050082486784 10.937862688425806 18.414205622827893
Sr 5.885505914067149 9.073675304891474 11.90239132887901
Sr 8.359533330947484 11.57665166137869 10.956146156648712
Sr 6.687167450030942 12.70267472278986 14.635715614076386
