34
Energy = -38.64771983 eV
Sr 16.919512410378992 10.099523740643173 10.226886535187399
Sr 15.612604837908526 14.436254127037628 12.113280198063697
Sr 16.557707249009578 10.79720977933406 13.890705156244234
Sr 16.60978556110618 13.739947793733291 8.267699942367651
Sr 16.52028002739969 6.750086489827974 13.379251562582505
Sr 11.744113000068767 12.258328355930619 17.981356297871468
Sr 13.702225956144222 16.678689881417363 8.994518081574483
Sr 14.578614563983106 7.428766537834169 9.672084084201238
Sr 14.673174651661185 9.280994757340139 17.189018118298897
Sr 15.585470275748632 10.15771123301111 6.676734302633235
Sr 13.714646098371299 11.211911211353046 10.456346438371659
Sr 11.476113249163804 14.488045904244085 11.661190312488328
Sr 12.993908673472731 8.425198604708896 13.494525091290555
Sr 12.715997229137477 13.25269317679501 7.053893914999924
Sr 12.877266369901623 4.624780692851412 12.084212917081716
Sr 12.970773395006304 12.324116842610291 14.88096525991877
Sr 13.316683133516541 5.499634187056152 16.158224704169374
Sr 9.607536638554702 5.950439047533381 14.13465074725746
Sr 10.628602388282044 8.836467763717424 16.828054189675672
Sr 9.46527635496663 15.53042270974433 8.060987063138734
Sr 9.389969809879272 10.965779475184853 13.48405878022552
Sr 11.636542609983659 9.182007382301375 7.005526945707693
Sr 9.511420302169423 11.719033194166258 9.309975494409521
Sr 9.387471417980642 14.395767017841138 15.621306106609508
Sr 7.399932402246525 14.318254779239616 11.657570971758783
Sr 6.556242517228218 6.194707805463334 11.307726183844297
Sr 7.7385120463809205 11.4073173780979 17.189018118298897
Sr 9.058230415280228 12.121877519146846 5.378056613934657
Sr 10.206566667388886 7.868329204514624 10.607551436597994
Sr 6.556242517228218 8.496224016978134 15.037379366109208
Sr 5.9334920142125664 12.897885038058902 7.985766549043203
Sr 5.612192875720512 12.57563604424204 14.825335888178492
Sr 7.327518354600188 8.781720241951692 7.631350281684356
Sr 6.112175264936308 10.285378773943306 11.275775244995971
