35
Energy = -39.92583456 eV
Sr 11.659314834585702 6.817891948358761 6.670341960715404
Sr 13.618358746278787 10.36053708297682 6.54311178763646
Sr 15.089210328304553 7.325988033007401 8.29746340795655
Sr 9.53429094059098 10.278329524002617 6.611195982809192
Sr 15.26585386455719 11.982248396754306 8.854555891553936
Sr 11.523591755008148 13.209780808146446 7.930696850158507
Sr 11.554933100989764 5.985833656071937 9.191488561478362
Sr 8.193820885265243 7.231004953384763 8.133834673231366
Sr 11.829417416226768 9.222700118304104 9.33862673374485
Sr 13.45150803842127 5.985833656071935 12.635987333528274
Sr 8.139884723097596 11.100669126504412 9.376690947577215
Sr 12.82795357414325 12.637538629049406 12.23356125397819
Sr 16.871064949485387 13.555641120856896 12.270841023183845
Sr 13.675101402915839 15.98963834408203 10.59773936109
Sr 9.415263728479047 7.111474700078747 12.134966470156305
Sr 15.608572286647657 9.437626758375064 11.966233540514375
Sr 9.291801567949413 14.598663792085878 11.132372684301092
Sr 12.096783551453214 9.328042206965774 14.286039945435304
Sr 11.05247538752391 16.76246944715275 13.957179629430593
Sr 6.5767078689135285 8.836467936788042 11.610519548195779
Sr 15.381267869936128 11.498994162922857 15.536627630244174
Sr 14.578171158197765 15.479916428119875 15.11090925926353
Sr 11.444963001995689 12.85372122778475 16.202967160753705
Sr 6.489523405481754 13.061022748081106 11.941016880323335
Sr 8.537299813979848 10.97965740365142 13.422385688737576
Sr 6.732433815266755 7.342593343378218 15.2905011688767
Sr 10.705651036659479 6.209949670301246 16.19341914516786
Sr 7.781687904252293 14.611400813380493 15.100526064016583
Sr 12.92118175374089 9.492949166874252 18.274742244577592
Sr 10.659204609785823 16.081263949827786 18.15622636017974
Sr 6.286175011502048 11.248952202074648 15.730531097773293
Sr 14.286782209740677 13.70458143894238 18.940609562869994
Sr 7.128156918577433 13.489666839625887 18.89722127262079
Sr 8.90808043275478 9.935125014910302 17.47618609804628
Sr 10.700836592985345 12.387479467469436 18.940609562869994
