30
Energy = -34.22212362 eV
Sr 13.977711899074212 6.580470122076487 6.379863909825321
Sr 11.276978830121898 8.918664582497996 3.9916753414866615
Sr 7.894146326645029 11.122554490459335 2.628274127858776
Sr 12.945891023668207 10.828492014966832 7.319710173321684
Sr 10.377338085221089 4.607480480052182 5.102177901454667
Sr 11.070438496764915 13.237377323536638 4.379311708957897
Sr 13.550764098013435 7.6808757824383695 10.309240018110046
Sr 7.421552108377979 7.531252279182957 4.72034100761733
Sr 6.2941681833046985 3.495811796571162 4.6099324411867775
Sr 11.507388206073616 3.9947893790047875 9.088291123639225
Sr 7.062732306856972 14.278248919953638 5.268860545651783
Sr 10.525140735676526 7.688690127785167 7.810613670038898
Sr 4.748567404247892 10.556330999941714 5.559274929110597
Sr 8.582475856460881 1.4038164521134628 7.43924653792559
Sr 8.713919191188012 10.943270268687568 6.597065321454201
Sr 7.5249614242037905 3.134549780307576 11.420638615210613
Sr 9.83913632253489 14.124445566327838 8.588331915542579
Sr 3.9020217388292413 6.5046048265322876 6.613416776694603
Sr 7.490653581087717 5.155624539513601 8.087658389860712
Sr 4.597325960048247 2.5253219632523587 8.306736801563796
Sr 10.64676087962507 10.667726271349148 10.720169581722349
Sr 6.944727830562677 8.98604407144289 9.947446803165867
Sr 9.774618720007986 6.585665294210775 11.773446491697937
Sr 5.709584791448888 12.747313364234326 8.95404635176293
Sr 2.8641417492726644 9.638424802730162 9.195431836600106
Sr 6.440973661664974 6.420109533331132 14.05846734920947
Sr 4.3019216579052895 5.97274015001169 10.711499925556463
Sr 7.833823044483314 13.107583780836542 12.314455885696347
Sr 8.775089695156561 9.700254736529699 14.262132254170094
Sr 4.740616346030755 10.213105662412753 12.998422627943576
