35
Energy = -40.38859041 eV
Sr 8.260063848319044 15.287824810054365 14.061032817434233
Sr 12.218724197207907 15.041928002461509 12.974956517260356
Sr 8.980514316149474 14.34328605020061 10.224177989491515
Sr 5.315032670727341 13.463642435466749 11.749139362009368
Sr 6.541774273514442 12.430366353872454 16.039983794867595
Sr 12.590948492633302 15.287824810054365 8.812591020006503
Sr 10.663838802361814 12.069300491995604 15.543965693806786
Sr 15.747715076308932 14.137595870374955 10.937374589818015
Sr 6.590939461640982 12.96582868900865 7.484106257675808
Sr 14.415819090644893 11.489554236177149 14.02239573374472
Sr 8.094818796360611 11.142118480839402 12.593322953392036
Sr 10.404181582299323 12.589571420913368 6.809716873673194
Sr 4.67112276449212 9.678260019092358 13.768433181559734
Sr 8.269757176304966 8.72611235222996 15.964712351711304
Sr 12.324243045931272 11.865563798779496 10.434001321274458
Sr 14.709491400767595 12.441915390992627 7.203049690172824
Sr 5.761459240555915 9.690968341395577 9.663150993492346
Sr 16.08074750719786 10.073092998023496 10.548852640611386
Sr 7.192472374969287 7.016588828483534 12.415912715259472
Sr 16.546654303659707 7.9487219226819406 13.968376362493352
Sr 11.230478775388354 8.539653756604222 12.911607426105611
Sr 12.87548249818645 8.143478252230816 16.37559667186629
Sr 6.7487429033695046 5.918769555852241 8.404359222248262
Sr 7.823657713740152 9.208270232779036 6.046770159481226
Sr 16.574322575188514 8.783276624689526 6.785037644418885
Sr 12.407631033900616 9.147655838279718 6.156237915267371
Sr 13.284741141757536 7.325799565556523 9.37264455718504
Sr 9.503430049399633 8.89667586298382 9.247058613567955
Sr 10.070694469534647 5.147737696210184 14.980666104912196
Sr 13.714888656109013 5.275020739478591 12.962288278471368
Sr 16.85778041161466 5.877093685235135 10.015330241980905
Sr 10.53459907534199 5.572025339579219 6.797000795630055
Sr 10.142453701527874 5.147737696210184 10.806097346275049
Sr 14.663120839005657 5.3535520216309465 6.304052236231791
Sr 13.510990221559174 3.4541629046809557 9.258022095334889
