32
Energy = -35.97596395 eV
Sr 6.08215396070383 14.190179870947553 13.626892332531174
Sr 10.263603635108547 14.380358463156712 14.80972338601806
Sr 8.288699889270312 17.03211560577286 11.988819525745908
Sr 6.337238475581596 14.495683476981217 9.144869552884458
Sr 5.437169464283855 10.945773367284398 11.322897114140492
Sr 8.090489818208889 10.681385114390684 14.61005524391732
Sr 9.170673163274483 12.74541590982823 11.286480779894983
Sr 12.34256979612495 17.004623873043005 12.258179542038873
Sr 14.55126072719313 13.94351142935316 14.283201107476103
Sr 12.205672600758266 10.580007670211042 15.541386970574294
Sr 10.355650320497817 15.676951954116973 8.777619113417414
Sr 8.721888308246553 8.558691253619783 10.991695824794931
Sr 7.386864350209002 10.621434021936441 7.682653535010348
Sr 10.007773110912062 7.078326956932961 14.513962016720411
Sr 14.035635818275459 17.45767205139843 8.30829452727418
Sr 16.41998090501323 16.722456012176707 11.482108630482262
Sr 8.837489315347225 13.675256060955208 5.611583793056232
Sr 12.628488441255467 9.311865152980744 11.725050327524608
Sr 13.93695550416489 6.669744302150743 14.633254717149724
Sr 16.81087769731218 14.271275208297853 7.743233432650473
Sr 16.81087769731218 13.098850159471374 11.769509905647165
Sr 16.07795865428704 10.064251607946353 13.700376606928096
Sr 11.449894974630828 11.1456131749915 8.17932900639444
Sr 9.64776295479319 7.149209696530933 7.324411436751107
Sr 12.94655420097587 14.252074019495208 5.887736074687523
Sr 15.832168736170848 6.748214935927338 11.046790695361741
Sr 13.785897627896267 13.761581364897605 10.310849841361627
Sr 11.726849005534776 5.563727061213069 10.881661818266942
Sr 10.936752938800032 10.118999698353669 4.58712952076261
Sr 15.94826505892024 10.47700819878114 9.463448963473924
Sr 13.567816936020398 7.636526766291502 7.674682578651284
Sr 15.020093745512808 10.885621585111744 5.6115837930562344
