37
Energy = -42.83283543 eV
Sr 6.766282496499554 11.428247500478724 10.523767612881263
Sr 7.515058784203278 10.7839402324732 14.716487921984331
Sr 8.187733469645526 8.65746735135018 7.536802139824274
Sr 9.526631393594391 8.588055198347975 11.590829838476182
Sr 6.771662094092104 12.99239984294035 18.274495109164615
Sr 7.743545313293786 12.672417507445097 6.357373647093972
Sr 9.251980486935041 9.594935113764448 18.366277843864555
Sr 7.53991050613953 15.07787099104855 14.318445843288595
Sr 8.176865811707673 15.063989793264787 9.722943322315029
Sr 13.014782784594525 6.439391695478557 12.46552069011204
Sr 12.17702793752562 7.6784971769865145 8.572599354658209
Sr 11.698511600233841 9.667585821611034 14.859033465296198
Sr 10.23851128179795 12.761944887927054 12.514238714937578
Sr 10.515116163265986 12.993346379658512 18.417613599522802
Sr 10.644207113720022 11.505282356679565 8.978246412662005
Sr 11.220822863114023 10.594833699158103 6.150772889202184
Sr 10.337533621888316 13.068438568983945 16.608500253767446
Sr 9.284364515116735 16.36089245632842 18.417613599522802
Sr 13.765009997791372 13.761974740385353 14.078391041453562
Sr 13.378538046672775 10.726117327016437 18.320596967678284
Sr 11.791322692953276 14.618759500040811 6.95954088183173
Sr 11.729039199362811 16.272679259687163 10.964761351877206
Sr 11.41356483819762 16.89464605351591 14.880198064582645
Sr 15.500616254820917 8.169729566987758 15.303466542542848
Sr 14.78087900921922 14.077851724424981 9.919398694067437
Sr 14.435235593693566 10.472063849115251 11.814978651803417
Sr 13.592809522247467 15.001961409443334 17.974263345111577
Sr 14.508032057564657 10.762516033220134 7.5546367385820385
Sr 16.4113998011077 7.561080497100709 10.093898374290076
Sr 16.64466506036886 11.99268303525764 16.242909303989116
Sr 14.540533434529426 17.730619153495407 8.23216175293379
Sr 15.346921434261557 17.233380138127462 12.564665827757297
Sr 15.972496771057346 14.31969380006439 6.150772889202183
Sr 18.581860010427313 9.785376095947504 13.044898675741356
Sr 18.007139782636163 11.743498160380543 9.283964665227995
Sr 17.76784520811378 13.841733646345173 12.786783126176791
Sr 18.205250502565384 16.112451823788323 9.307641949719583
