39
Energy = -45.3682943 eV
Sr 9.58706632006471 15.439660236318106 15.279854585158896
Sr 8.596817119291382 11.351789754675918 15.80086083473037
Sr 8.972438344983365 16.504235047663773 11.341832422921433
Sr 7.377780107728592 13.403740772658654 12.766922837652277
Sr 13.136910774363063 16.145001197945053 11.975495894823808
Sr 12.566454765727544 12.60036378779003 16.185548762851163
Sr 5.571666770626407 9.934298213748063 13.975791484188532
Sr 11.024235975460565 16.28253718073394 7.693830153040706
Sr 8.46100728896693 9.638692655574731 11.967815216332086
Sr 14.82320420306813 12.180821214608681 12.715945935409806
Sr 8.581819469077951 12.99461367405205 9.13721204629013
Sr 7.37778010772859 7.421853445288439 15.853842554630061
Sr 10.806563999616287 12.91965780003284 12.517838539694994
Sr 5.781587626669 10.633612311211268 9.887854770795117
Sr 15.161934976288132 17.29205105845283 8.207247879130888
Sr 17.303822175230497 14.75488539572743 10.760655861509186
Sr 15.68146463108554 9.789423444328483 16.14628097393903
Sr 12.479689401816037 9.108826225324648 13.455389176184367
Sr 11.413877304849608 8.511255207686743 17.130963293070145
Sr 14.269270203282241 5.948434506309894 15.256898524984953
Sr 12.065710495207595 10.128884220688253 9.474473577296617
Sr 6.961686231219239 6.624054167793774 11.553604760957377
Sr 8.303590787946886 9.212464647182685 7.558474666910451
Sr 10.350143515735647 5.791387527608269 13.733270297829986
Sr 13.809670769016826 13.634205480726472 8.722493486998584
Sr 18.92930488216276 11.467310560402375 13.093452114374555
Sr 13.734488842136393 5.747642929634717 11.056661333951098
Sr 13.930923550028478 14.868625648815648 5.647249926595008
Sr 17.466395542803333 13.8511887313301 6.697965846575775
Sr 16.546171959287054 8.130876295334737 12.552924034544766
Sr 10.846298411590444 12.230349547228348 5.930944400804477
Sr 16.93984915339282 10.73562589068388 9.475561472620173
Sr 10.009693448577881 6.42128707783083 9.741698280282641
Sr 19.195196121508047 12.514051459649243 9.189998712827192
Sr 13.027925624622492 7.118047899053357 7.040647084491512
Sr 14.834368136296847 10.767158432716785 5.935946010694138
Sr 18.94959725640988 8.541857281685967 10.334264701979775
Sr 16.938724765483652 6.647063636544035 8.58614431147567
Sr 18.94959725640988 9.720620353065854 6.3595759420011175
