36
Energy = -41.95306813 eV
Sr 10.406931164421403 6.045665016865782 8.138579462082875
Sr 8.396948345163603 8.957215672071603 9.573529463325762
Sr 9.795242863495885 10.408174231463917 12.885353641001121
Sr 12.908474571265481 13.001192694412453 5.96815087243513
Sr 6.058370379349784 11.142152656259755 12.173552321354498
Sr 14.566144519269807 11.45585569192302 11.735893274454352
Sr 10.25679066900097 6.045665016865784 12.369000856561048
Sr 10.913358207675332 15.65581392947516 7.989448459254936
Sr 8.120117814048822 13.386699812982634 10.116061848436257
Sr 16.740793661096177 10.76838078106732 14.430544575289808
Sr 9.120562571105841 10.164727940271224 19.136180890658594
Sr 11.283920191436081 15.723208348471358 16.305400732136373
Sr 13.433855787848126 8.61630798423381 14.283249088763442
Sr 7.02687979578679 7.6359222620976785 6.911318068573401
Sr 11.785415149279814 14.364015488066535 12.301446205112308
Sr 11.677255462786482 11.919616599488931 8.977751637275702
Sr 14.84078713595608 14.453732454580033 8.972354631144151
Sr 8.772934145947609 12.127867962916639 6.804023458689129
Sr 13.111802698274916 9.486188113024774 17.739754904040915
Sr 6.927313102906422 5.479301094820049 10.067748595692265
Sr 10.458758481324187 11.777673842684072 16.496930551869497
Sr 15.299321576800702 10.441904079492256 7.782725883694872
Sr 9.727777597270531 7.768023075576635 16.259771863771476
Sr 11.374839150017868 9.003818205910939 6.797815171165336
Sr 16.740793661096177 8.184744510287565 11.230313693110494
Sr 14.10491090156519 12.692826637934381 15.813146734937423
Sr 7.988367354451969 14.043777360431905 17.86031364760106
Sr 17.559293378517406 12.154495448866404 10.46742213179793
Sr 16.138009926874684 14.860383896494548 13.014705011689992
Sr 12.045595623834096 13.323087915116464 19.034432283454237
Sr 7.933032800180066 14.003274703280768 14.24578090214327
Sr 6.541970732765405 7.417721630340405 13.363989634464467
Sr 6.675267599049155 10.558535048696505 16.179248212638008
Sr 4.8179845220316535 7.873248352131506 9.909596456834082
Sr 12.708931725218594 8.216100380247784 10.095317504153762
Sr 5.767734214246054 11.33322642901473 8.00921792408
