33
Energy = -37.76045954 eV
Sr 4.982870715990254 13.230337175779823 14.033712747736274
Sr 6.514935227330985 9.331528431141821 13.54538778128124
Sr 6.081065801497137 7.432596691597915 9.858700276176014
Sr 5.518986572934917 11.658397444312964 10.163590953171793
Sr 6.517439950206155 11.51921582280383 16.713041025747824
Sr 9.093277064821857 6.647465746194299 8.283905886121671
Sr 10.843185709017238 7.625905296240686 5.4865120381391606
Sr 6.591577488014288 9.473579638458135 6.552700314498679
Sr 6.963056479038956 15.589401700717254 15.887209061900966
Sr 8.34796876781591 6.240747424280445 12.342336887936016
Sr 6.5149352273309855 15.473545427724792 11.29306411778062
Sr 9.556330228542311 9.230637349516392 14.969521794761597
Sr 8.031918056802386 12.650792033877885 13.49299547888409
Sr 7.0833883082285425 13.454674378156932 7.4915602367660385
Sr 8.250245589004367 10.053796060734754 10.45496663062163
Sr 11.896996247937306 4.891677818757943 6.41497966576786
Sr 10.293843881625614 15.615633420921533 13.52574690948219
Sr 11.839007284424747 5.402131968148779 10.60256202737948
Sr 10.45563701379107 10.731718013228548 7.1708882290661125
Sr 10.22526783506335 13.727777073445967 10.0103267167734
Sr 13.042668933643899 7.475280427780743 8.00511428023017
Sr 10.490433582236099 12.95858154204217 16.713041025747824
Sr 11.812334468247878 5.607982282356121 14.602665565717507
Sr 11.860904223778068 8.551009352282122 11.632141279570318
Sr 15.083077144855514 6.28158195616574 5.76075454067625
Sr 15.532032912520846 5.280808752331712 8.515013658914674
Sr 14.218223138555992 10.233469196280938 6.286422191681956
Sr 13.82952402291343 11.5889020620328 9.311122474802383
Sr 12.298644744869492 12.261560361415809 13.121540098958787
Sr 15.205025007932354 6.4784827692031985 12.141252771925357
Sr 13.66048910922777 9.195548826750265 15.490052597042604
Sr 16.43646283890959 8.526426273703837 8.564052525623056
Sr 16.11141043644987 10.428207592814093 12.39360264523153
