34
Energy = -39.73195334 eV
Sr 6.1256500614635545 12.869076438666045 10.979099563021464
Sr 6.2556702135609354 14.2831790501944 15.181760610117776
Sr 8.258914750962148 15.759761488833659 12.125928479641882
Sr 5.426967810300371 10.286800059114539 14.489066860143105
Sr 9.637697869471195 11.79176573590812 9.817826243371744
Sr 8.080270011116188 14.802493986899753 7.832894838814526
Sr 6.9352104915837245 8.82426772356465 11.084015243252516
Sr 10.025050322951044 14.682515665704635 15.915637022341464
Sr 10.24121748091414 11.658042510505723 6.373151309718942
Sr 7.8636328853676405 11.25964424890799 16.81042951584948
Sr 8.340952809618946 11.84810469759976 13.579288247220532
Sr 12.081669054712416 17.087144189612072 13.63359247154108
Sr 6.497977202844476 10.830036527421056 7.456314233233393
Sr 9.538192054859138 7.984488829628673 8.127550064326524
Sr 11.745530374561483 14.008078236415031 12.312083520049642
Sr 11.238419043467408 17.087144189612072 9.59299485049712
Sr 8.44879292511213 8.081491382657811 14.71029151083257
Sr 12.162469074054394 7.961264458119474 5.414682741862472
Sr 14.377216201101266 14.338025586804301 15.194560291284757
Sr 9.836454238494909 5.916771049525293 11.683291502587762
Sr 11.887392938646201 8.604931612892406 11.873488189302966
Sr 13.07549491692794 6.462893856239581 8.560488937283239
Sr 13.226073531075441 9.856341440444794 8.159600762237567
Sr 15.114057177524957 15.835563514147477 11.20160125029574
Sr 11.828332313566753 10.864183516258233 15.373485733755814
Sr 12.002419312515219 6.462893856239581 15.552698604426876
Sr 14.39618310896525 11.532245828150817 5.306883844217176
Sr 16.13338181588264 7.937926247340508 6.730667553590041
Sr 14.765599313022125 11.65214392386004 11.772758681006785
Sr 13.008370607724702 13.741108822703888 8.262003082593546
Sr 16.12691949204055 8.02348936086119 10.40279055195999
Sr 14.206941001925438 5.595713380218127 12.447986435753398
Sr 15.366231269458801 8.55577332312618 14.423435865189433
Sr 16.80177294094256 11.713868049762498 8.189124032364992
