36
Energy = -41.88327987 eV
Sr 12.977256239921266 10.093042137130762 17.33762491813449
Sr 16.427595375792947 11.494771746071487 16.445345261984368
Sr 14.8746710660329 7.370703774046756 15.664675618161779
Sr 7.695240895668233 6.470890222467686 13.327166424738826
Sr 10.780939097590194 8.972701705634524 15.14131074922446
Sr 12.00236037696373 6.108002071531951 12.688627931641811
Sr 13.440410177572643 14.22799771287251 17.38724315082519
Sr 9.760414067421587 12.548169656091224 17.337624918134484
Sr 9.453023034532741 5.7437327049098705 9.349306659408015
Sr 6.174348428245999 8.097659737433933 9.345094364583192
Sr 13.02879513533736 12.531298545848543 14.833623781599352
Sr 7.0812858401124466 9.44791845936715 16.644661472556344
Sr 17.01209770001847 9.077884770459658 13.348759303961732
Sr 15.971318568571535 6.1337842391530435 11.474603064174874
Sr 15.494019649206859 15.664743211254512 15.222009976345852
Sr 9.838505499387642 8.971034687576983 11.183940020050375
Sr 13.979464534925722 9.438161312361684 12.497737206142242
Sr 11.02024200407945 15.92733739418359 14.945013675388903
Sr 16.419683143332914 12.73760573105113 12.40468621487205
Sr 6.174348428245998 10.169225310095793 12.870050331413866
Sr 6.105705679224779 14.380159157070525 12.251548379634881
Sr 9.331345360061945 12.40895456117653 13.29037084535961
Sr 16.47452995871313 9.912839319367881 9.338138101811582
Sr 13.044774690780532 7.728419185574419 8.872837319573678
Sr 9.665606578139188 9.274249744703498 7.137814420795786
Sr 16.07224662745981 13.917369657926574 8.543868405077134
Sr 12.253601254033763 12.115455675165373 9.823183227418863
Sr 13.551447254952063 15.563836855277222 11.577742341175286
Sr 7.5874309222745975 11.886330668929086 9.624711474865762
Sr 6.173599539295443 11.107864527596742 6.412945524892807
Sr 13.559885117332916 11.40707300204084 6.4493873638610415
Sr 3.9171107577065447 11.706883721760857 9.62072992702501
Sr 9.540881788252584 15.416107184406064 10.319526994513188
Sr 12.625367067989545 15.66700067336074 7.4599028357879
Sr 9.56071115521317 13.323485141469607 6.493030849348312
Sr 6.154101269387995 14.98009346344149 7.9784641011330235
