39
Energy = -46.10525611 eV
Sr 17.550807565658584 13.462889630635077 15.183555337027997
Sr 17.587417720426377 10.919067745756013 11.840312196184131
Sr 16.717479399340757 9.608484908808476 14.728554154727174
Sr 17.38064466242524 15.019989190188728 11.049210800178352
Sr 15.252799000928727 5.994730719227057 13.413128471001771
Sr 15.770347457219364 14.1001881194056 16.870194853705794
Sr 16.719004812256966 8.345231394647923 10.50397883227711
Sr 17.38064466242524 16.908921884922094 14.063860207543893
Sr 12.86241016504451 7.759739240920562 16.283961142169975
Sr 16.52668511762802 13.180702432391088 12.917765510868888
Sr 16.78209167658811 12.335063250017521 8.930642935510882
Sr 13.095596050331672 5.99473071922706 9.533063399769004
Sr 10.975705215590153 5.981610607386206 13.227091475139721
Sr 8.759935531865764 6.51927304542907 16.70773130531065
Sr 13.29812903086731 8.83886563699178 12.369110067763774
Sr 11.161513198318133 14.71098665734727 17.02735100049827
Sr 13.087971440675615 11.692252522858245 15.10109115349031
Sr 9.792400288172823 10.747599532829291 17.788779998202422
Sr 13.377479783881702 15.693831327443448 13.751386474807736
Sr 9.689206378367736 9.402777109418825 14.211260803135149
Sr 13.43111436516893 9.8082032706679 8.23742735482643
Sr 10.065992168506922 13.319532862814063 13.064108299092583
Sr 9.926527666213293 8.540715127647386 10.361468333783188
Sr 6.4237139327824915 9.545586623606418 15.936477558175731
Sr 13.163384841541516 12.674877645242049 10.896463783467201
Sr 6.8781685457281965 6.926571217320698 12.654662675728488
Sr 7.191470460313263 13.633623683839994 15.552556356218671
Sr 15.38530542169887 16.0408910797485 10.17280847135914
Sr 9.374289859712519 17.143374400394734 14.112969558455248
Sr 11.027544653380067 16.206963210298003 10.260127761776854
Sr 9.2929818188769 12.259778541627737 9.004508683878726
Sr 12.559147989138877 13.798465201546083 7.039876325906045
Sr 10.118032755252884 8.42496027282462 6.372765137001663
Sr 6.621623056236908 11.06916639883009 11.960775888717466
Sr 7.040520613750728 15.207841777042928 11.244368540537126
Sr 6.463687858483986 8.998824022588702 8.31705819470338
Sr 8.27891185276717 15.641371990552543 7.148358893030919
Sr 7.860753776516776 11.834293616146768 5.639135288713563
Sr 5.61521248992034 12.913798307570753 8.272980312374278
