30
Energy = -33.09925215 eV
Sr 12.443970055646798 9.21535673598665 16.931756948454638
Sr 14.72206923987223 8.530723806806947 14.460892369254376
Sr 11.385152157271936 5.713113422222833 14.954754024503572
Sr 13.317113938940325 12.477069990471078 14.962709142002277
Sr 8.458368395610188 8.186489663623913 16.296528101678803
Sr 9.661059503834748 12.223851345699737 16.1414494175975
Sr 13.202275101536745 6.552459478323419 11.218432475544425
Sr 13.25613045441074 10.797817352350766 11.163165273588193
Sr 10.74897389411391 9.452122866177685 14.152373825933632
Sr 9.989687629580366 5.387069715490698 11.095189477603695
Sr 13.113071847852652 14.853924390923034 11.233996468745246
Sr 9.815251126704732 12.995652248466056 12.745544154655395
Sr 13.754042230550812 12.815175296862044 7.566079532755885
Sr 6.692284783597988 10.976568865384152 14.433452091270182
Sr 14.030445933741259 8.61043047440926 7.783085569115182
Sr 11.93034593312503 15.858577427622523 7.849281639854359
Sr 9.399376658956838 15.84964109045948 10.96735297176965
Sr 10.022205724089952 8.587626063434781 9.96784789704039
Sr 7.672653063773708 6.950228907520241 13.194846805399255
Sr 9.608930331246732 12.657999709643317 8.56986769295817
Sr 10.7219316715385 6.044087529870562 7.101467771122941
Sr 11.143563491379904 10.178697599408359 6.649004029074989
Sr 6.287156885081361 9.959265647106745 10.540283342175703
Sr 11.143911311020625 14.309769677371925 5.9193820439756175
Sr 6.241592726159985 14.04748154437942 11.124296842631967
Sr 6.882442534430584 5.987952384505764 9.256115057348884
Sr 7.745164664673345 15.849641090459484 7.171395549724561
Sr 7.478100154210445 9.061142513998224 6.649004029074987
Sr 7.7020329312926625 12.442759827255585 5.525996046663296
Sr 5.188325114685999 12.461771146894018 7.499144981055358
