37
Energy = -43.90337603 eV
Sr 17.27531662734731 13.419081336778962 10.784610620868852
Sr 15.059522113826837 10.026699895856968 12.905449992372251
Sr 16.65004552996539 8.962270462106467 9.235571670304761
Sr 13.749460718675437 13.863748207777896 13.889321202919202
Sr 12.588752073267758 10.572029763774802 16.395571284025138
Sr 15.077658408570217 6.619466117658147 11.754350782503526
Sr 17.064395851657228 12.0279357094036 6.522199220523071
Sr 11.79359918533046 7.318869649153211 13.738481529601984
Sr 15.492843768758819 15.660687186838864 7.357321973244413
Sr 13.851593593102717 16.61816845156194 10.954377768925154
Sr 14.237075438947816 6.210151508939539 7.779814072190737
Sr 13.80566224676232 12.472901230466062 9.4075592650783
Sr 11.252295683796412 17.356701831143603 14.28224522309748
Sr 11.068015515051338 11.070951263704435 12.633753351325062
Sr 9.717784617246227 13.62950019797926 15.48952109105613
Sr 10.808945752164336 5.700245228612758 10.365856012794064
Sr 12.726750476297894 8.40501731965111 9.915736987920283
Sr 8.658292154588079 9.384415497926955 15.48952109105613
Sr 10.704972281785539 11.006346427115263 7.587491475751443
Sr 14.00203557219248 9.174065287999007 6.012875974105469
Sr 13.113809084090182 13.03575388075567 5.800537274269245
Sr 10.020295796403362 18.560154404692362 10.497838037825584
Sr 8.627838019089143 8.687558262322217 10.6181058804004
Sr 10.368957249810572 6.990423797780922 6.842821010589688
Sr 11.19929850132106 15.433235409691557 7.773348546823558
Sr 7.139046605874855 16.355425099412056 12.860350202242005
Sr 7.640259646588531 12.637525236803407 9.160398623246415
Sr 10.334300241681554 14.654670587239444 11.535779560508384
Sr 6.889907905177073 12.06787625467995 12.913820986088423
Sr 6.641950963244757 6.662091671989932 8.573849806340519
Sr 10.471888783602559 9.91328081903081 4.525064305361754
Sr 8.552934454977226 13.430371082207202 6.0128759741054685
Sr 7.025732644061131 16.383352541996512 8.358829873588904
Sr 5.492588406243564 9.905674159295662 9.809591309729424
Sr 4.9747098046588585 14.149149335557835 10.604092281028475
Sr 7.1169426232332365 9.543212501246632 6.451713743186283
Sr 5.371011430829492 12.984578887737035 6.676284720356804
