31
Energy = -35.21195447 eV
Sr 12.120020289720337 7.460678157244251 15.435804110972136
Sr 9.364492055876644 10.2839687615753 15.949229474132053
Sr 14.539555506933386 6.1222033826868465 12.214013369409487
Sr 7.952849667040435 6.57796794645856 15.949229474132053
Sr 12.456321506345885 11.642377901371342 14.670409877593041
Sr 10.225457053375447 6.160156504804155 12.26174952256395
Sr 12.482323020541092 6.337017007040496 8.50287202333279
Sr 12.53545081427303 8.884539000780643 11.67357700463009
Sr 9.127014101840548 9.367549418006275 13.435959262015235
Sr 15.800333946581258 8.686413932299995 9.297188938597888
Sr 8.566482796502328 13.273203508974113 14.292333268043798
Sr 5.657555395302051 10.322897724604955 15.057035136095989
Sr 6.0718572578278875 7.08838474666945 12.235915022131461
Sr 12.295617314302207 10.429839766495672 8.122850983267222
Sr 14.584901094647963 12.35894211379511 11.083949014988187
Sr 8.981380122833736 8.307040767633895 9.422088184156324
Sr 14.364024284847435 8.701339260586138 5.831481422668601
Sr 11.895393421222767 15.20936270844294 12.54264163702996
Sr 15.543439704947684 12.340257403886536 6.936512319768365
Sr 10.181256762724614 8.443697091879837 5.937093988174814
Sr 6.428652996384855 11.161537381709985 11.011330086051323
Sr 8.460815372433558 14.648773692164369 10.384557108977914
Sr 8.281204464161629 16.02773120312519 13.313443765353018
Sr 12.087301101460378 14.464700041326143 8.372639589187289
Sr 11.845326455936789 12.359428605109409 5.284874416830415
Sr 5.59785542143603 14.735704514520567 12.545027994716976
Sr 8.590596438749815 11.896069489141034 7.339789440500131
Sr 10.383073890421164 16.75476519136396 9.769504488852922
Sr 5.657555395302051 14.103078519589909 8.280290779331514
Sr 8.568655141755277 15.967485154995313 6.560244357778499
Sr 6.189690643893052 16.524945842977335 9.7123548020214
