37
Energy = -44.37272553 eV
Sr 12.498320627200751 7.361344073510238 10.705891899291979
Sr 10.130108230239962 9.827392275482751 8.249942114564083
Sr 13.921306154153907 16.50479628208009 9.525962452037943
Sr 6.291873243067176 6.567271267194465 12.436568763021489
Sr 11.928175440193952 11.090428803426164 5.31071495757816
Sr 14.230380261660374 10.444702681705806 8.28996475697613
Sr 16.57876390008672 7.263672635164958 9.665352030819509
Sr 6.571530720689051 9.31352403310258 8.973982448446106
Sr 17.85035063497548 15.900993429918481 10.456938569971966
Sr 8.481147107971609 8.158125836385356 5.661273576168378
Sr 7.896532985084018 12.257542003946886 6.564820648884316
Sr 12.050198102033608 8.817209829451658 14.645133703667213
Sr 12.490062338473559 7.072565239376289 6.564820648884314
Sr 8.058336014743205 12.817933645312515 10.514750355620945
Sr 15.270351618519337 9.948413070123824 12.284112993030709
Sr 11.162040412701474 15.436558259386633 16.371121461302987
Sr 11.80583770541939 11.409153573235438 17.13886450824372
Sr 15.274295008210002 14.183683419915132 16.794071091879694
Sr 6.049376684422262 10.905338450948053 13.299616053664685
Sr 11.064573043852505 15.296797676629165 12.190269820562168
Sr 17.51559912125769 13.04866103744682 13.838000593666369
Sr 18.003904276832525 8.80523291729372 13.18801572920317
Sr 14.740497612247006 13.714891540773834 10.829450765092263
Sr 15.309078387870608 6.254927134394553 13.733179306733403
Sr 9.417160256434812 12.098382084290451 14.5618769095444
Sr 14.875859119131519 16.44975392400246 13.812132425228409
Sr 7.15338051613823 15.248864803939293 13.985864429626291
Sr 8.833100403685359 8.908356799723595 11.99483187959575
Sr 15.80793580496177 9.949026369973943 16.31782052497432
Sr 13.46102538808713 12.751127051890396 14.566488658052895
Sr 15.594162271338801 14.130402863132025 6.964931779877536
Sr 11.531771768821638 13.816780739579594 8.14053836625564
Sr 8.85117046367483 6.024040985925218 9.094695427174916
Sr 9.945956694353754 5.770782121266056 13.384828821952407
Sr 11.729858458101724 11.36967341445236 11.379089922787958
Sr 8.061425116008586 8.411542311393642 15.900286898057056
Sr 18.003904276832525 11.54969486376286 9.768682944199407
