30
Energy = -34.27958367 eV
Sr 5.206929687369302 6.5221563225282075 9.702907806416638
Sr 6.40509306922133 6.984352087071975 13.773287945618954
Sr 5.698439178456812 10.4744882105166 11.489743058765487
Sr 8.77762647982817 10.281798457238397 13.911291167782357
Sr 7.7451036035848 4.5209629032374625 11.344041356362402
Sr 10.735548759001917 12.995183530275737 16.195440628633815
Sr 7.690678180535188 14.230607508736917 13.33622031844649
Sr 12.303849260265885 9.213871433307853 11.921084780823964
Sr 6.6263376739163995 9.42028093511887 7.232251944571421
Sr 12.797801065206782 9.313899032526841 15.785771836940677
Sr 8.480498859765111 5.734633486038676 7.378560343293565
Sr 10.156032406203055 6.3414155672612305 14.014068808435386
Sr 8.265190081093909 7.9537702510255075 10.73456010397852
Sr 11.452306795150319 15.90520330842957 14.047795210970865
Sr 8.37220634374189 12.257520108349215 9.633188699335628
Sr 9.806322270786625 15.709240311085411 10.155711994968348
Sr 9.748211387264153 8.41295982602634 4.778761560901287
Sr 14.219012987754232 5.906065508993758 13.305602687032414
Sr 11.33025100481554 13.055155505569717 12.041996545455504
Sr 14.479784084769081 12.974802365484006 14.182507181036453
Sr 11.548872914566166 5.437411518715718 10.162953417638873
Sr 16.258833378595583 9.374883452249495 13.108591214882223
Sr 14.02894474618841 15.709240311085411 10.83211828533258
Sr 9.193701676588846 12.230356408325987 5.953182790966781
Sr 13.698435361633571 10.308712477197902 6.211153682660166
Sr 10.863279900070243 9.295505107346083 8.08647123957333
Sr 12.639418783222498 6.111170370055922 6.211153682660166
Sr 14.941577797442601 7.6401111031958555 9.303254462178414
Sr 14.966973634731392 11.716973278291078 9.939732699876876
Sr 12.055799030520426 13.497909325497153 7.944206838421156
