38
Energy = -44.38597005 eV
Sr 12.575403169206375 6.19148274066009 17.26236743136554
Sr 8.685348386472624 7.309627359630304 15.686314963033075
Sr 11.039284497595183 4.371647664755022 13.9446722600201
Sr 9.327902571502609 10.64465109120544 13.357291847077235
Sr 11.511287299077921 10.397759707687932 16.937659415337293
Sr 15.23742451944265 5.661596295481396 13.683132041127697
Sr 5.801511543913079 9.502596039699176 12.386672132790313
Sr 14.740413966116485 13.659788523284309 16.543714574536136
Sr 10.42937703141272 14.169144437390939 15.057399443777907
Sr 8.823868809039904 6.932559229040311 11.530638745923879
Sr 15.33104920779018 9.168515553079004 15.91202874014351
Sr 12.130025166173466 7.852601103785978 13.732702191137752
Sr 7.234878102215751 13.559088285043943 11.762455931659996
Sr 12.787043214484694 5.661596295481397 10.331260096693574
Sr 10.920233832715915 13.484887713893738 10.904832969670469
Sr 8.186620648722016 10.381111487339506 9.517424249807151
Sr 13.256841644419211 11.74928548070114 13.538753984435706
Sr 4.990491725694987 11.707368797579635 8.614629921027541
Sr 13.591397530371777 15.944864388352167 13.040494290034694
Sr 5.85440514209902 7.537458226397202 8.63795455291948
Sr 16.877339333461624 6.31275537259089 9.190708334848614
Sr 12.460222503871819 16.62144735216509 8.974452896876901
Sr 11.98188288400362 9.622413063496367 9.642608825048976
Sr 17.499951365903897 15.951437716882158 14.102920313449417
Sr 15.267042837966358 13.12694940695617 10.447895659450236
Sr 15.42334491532664 8.960934030412865 11.66957399051008
Sr 8.593393571424768 13.911375747146877 7.645872475917251
Sr 13.667562249038914 6.2768332685597885 6.43729012061072
Sr 16.441401932789084 16.621447352165085 10.185557210535423
Sr 9.62141663334748 6.841769735321899 7.485696932092544
Sr 17.584643610865157 11.910873452375874 13.684113473211179
Sr 7.441596578300638 10.06554550568918 5.993914891589764
Sr 12.735445776009142 13.0794583686369 7.168578829095428
Sr 15.364688110174644 9.911889987856359 7.423541139163393
Sr 17.07194694087492 14.018992457051045 7.180259713012836
Sr 18.889512240892433 14.361802610175802 10.813261317335014
Sr 11.594874624570153 9.669412230314823 5.6229835558767425
Sr 18.632985229843 10.47680957701312 9.725001194866971
