34
Energy = -38.8091198 eV
Sr 15.409116442868514 13.997064372764218 12.419813561168617
Sr 16.632195986110716 9.990253204933508 11.877952066229785
Sr 15.354515269181633 11.229650807364424 15.439370051973556
Sr 15.409116442868514 12.23786878388409 8.67895946231761
Sr 12.268935754169437 14.364234164016738 10.311590377536954
Sr 14.251999948576804 8.066052700399986 9.384832014049683
Sr 14.020336044609852 7.389208559217659 13.553702613311764
Sr 12.053432111513484 13.997427898851452 14.409043322762239
Sr 12.303979193891022 14.9463416565885 6.304749748037995
Sr 13.184588635542818 10.902635233947203 11.996101463125031
Sr 11.35331827818067 5.484373918127568 10.158423938323034
Sr 8.939103293731877 13.5416982538194 8.231864554948533
Sr 8.66637549503309 15.268815011633908 12.035877913572126
Sr 11.392660085314139 10.22121074872647 15.830415920726622
Sr 11.754661178308234 10.914837706016714 7.636893181953237
Sr 9.948958007818273 17.040868156129797 8.770005077520278
Sr 11.659709706419696 6.992582619669947 6.3893357986059955
Sr 9.667368556759293 12.564983903081568 4.635440243221073
Sr 9.807782069402856 7.222243547832932 13.41921382513235
Sr 8.003589002828562 13.526474194011787 15.824962010601908
Sr 8.052812288924894 5.672674439970234 7.102142216385901
Sr 8.141960200798826 16.19482058699824 5.741827944099194
Sr 9.10187848028954 11.287773257800437 12.607396185272425
Sr 5.300537636482839 15.561831892297475 13.195131384365968
Sr 9.121985503467126 8.346618327919229 9.57970109936518
Sr 8.205129172473528 9.233128449370032 6.2315840177920965
Sr 7.3879533724801405 9.364015685976092 16.161540175646355
Sr 7.161871294906335 5.408074692749865 11.025371163605579
Sr 5.9207820614468005 16.087218807820673 9.000927333027255
Sr 5.716157069553318 12.555618493163077 6.2315840177920965
Sr 5.9294170452758275 8.529773978025895 12.453949394279226
Sr 4.953780637229354 11.742516237126495 14.518577845226702
Sr 5.656955682116598 8.34656233866276 8.403401985127154
Sr 5.708923043006741 12.210547655255233 10.494601312615266
