33
Energy = -38.80129015 eV
Sr 12.845409953298583 17.237703143720417 10.999054262869752
Sr 14.143013640015628 14.388874136412289 12.664066180209998
Sr 12.781576031301846 15.038300850500395 8.67807692786133
Sr 9.960708782512912 15.151312712480241 11.849128662666221
Sr 16.554259781797757 16.01712989216593 9.790983253170625
Sr 9.219246333310352 17.169899079960167 8.250962104659042
Sr 11.873986095935066 11.698598870491605 10.729201572880907
Sr 6.612910186603409 14.554748320390244 5.767099119274937
Sr 6.162262858948825 14.560346582169501 10.15911721080904
Sr 10.916891749287204 14.855002213092993 4.955190631667534
Sr 10.861544688106498 11.932860609980239 14.591703237691366
Sr 15.616766302189712 12.070768687572214 9.410542638127382
Sr 6.76434248988416 13.620878978133076 14.38705689172747
Sr 14.71837624512509 10.121410132178104 13.112088401934077
Sr 9.221924636917771 13.150748078824764 8.167742369608115
Sr 17.189580295158255 12.634281889663558 12.37353597026515
Sr 15.549884105925697 14.050194190840328 5.806455540301278
Sr 7.3088410879795855 9.392283433007979 14.863316954503409
Sr 4.436603261765344 10.96180911415843 12.151472710217071
Sr 8.10711216432849 11.292028863872183 11.546328897296926
Sr 16.554259781797757 8.51582643301056 10.358752954866944
Sr 8.852194197768231 10.986116116190377 4.955190631667532
Sr 13.61613586159966 8.48639087996414 9.383017951853901
Sr 6.024237868415798 10.808741768589805 8.101971374415408
Sr 16.155465381807517 9.355019544749672 6.321030482724424
Sr 14.522541201846416 6.000118222374062 12.149960330379809
Sr 10.821408009242488 8.180723798221047 12.507872186435486
Sr 12.575518358742524 11.408011229433859 6.6206575592238215
Sr 6.895519556753514 7.514007227218744 11.022930820623756
Sr 9.65768990640741 9.036742043238071 8.451392480770322
Sr 15.408871093914861 5.518993061882486 8.030265233833248
Sr 12.305757348967681 7.370171839615749 5.718221336182157
Sr 11.175344694067135 5.4359103834857345 9.424004087076648
