32
Energy = -36.36051855 eV
Sr 16.91022303509419 11.834906044556755 8.519369073537831
Sr 15.060593331135463 6.866249206065597 14.02754357731356
Sr 16.91022303509419 7.704617570824437 9.46559680141509
Sr 14.914368230574679 10.41625339473849 11.876397799392029
Sr 13.40140621963066 13.886716243654993 9.571004884027353
Sr 13.817553214342615 12.575584616705475 5.660431274020779
Sr 16.566998820858515 9.358719549079725 5.277834695021359
Sr 12.033223605800027 4.7028695693712175 13.621555655325961
Sr 12.810242845689364 10.329842263200572 15.390270509080068
Sr 13.728639136492422 9.294644342599241 8.261905272903075
Sr 12.295428339713347 8.89472511671071 5.277834695021362
Sr 14.90169364657258 5.83445782088094 6.26037586570473
Sr 10.962141095054806 6.460694014753436 7.377353797542961
Sr 13.81488389641856 5.3943092547860525 10.186358514994579
Sr 11.171264423522627 6.804626538771135 16.074125253045157
Sr 11.517967644348625 7.742450372683687 12.378602590169555
Sr 9.904965227280064 12.302413896931707 4.763298577408663
Sr 10.448198413332323 11.636461251711099 7.941553680893993
Sr 9.62375260176525 4.7243376907180545 10.185289689073182
Sr 10.783868469638259 15.142606239115079 6.444330622401696
Sr 10.99155746579047 11.764736285320996 11.961766540316756
Sr 8.191483321258806 7.726384831109991 10.057365222044698
Sr 7.013147203663561 5.292272451217151 6.914280955863824
Sr 8.11998433431034 9.126058008375116 5.9675078023778445
Sr 8.571400921403335 9.684039747993731 14.399833255226627
Sr 9.166874303819426 14.961915865974392 10.087167677280467
Sr 8.12370541020588 5.623140054087235 13.662971923416285
Sr 6.893397169251289 13.156392877881972 6.844670226894106
Sr 7.065533894505533 11.471470823682985 10.63615381050792
Sr 6.14048041786076 4.809181821833399 10.542168007239809
Sr 5.500246910968202 8.719889126697574 8.328976079986328
Sr 5.835821280316519 8.375669522686625 12.538708500292039
