32
Energy = -37.37398568 eV
Sr 12.96607999027332 16.956459476994844 10.355017380971404
Sr 11.130618218493556 14.068981045739415 12.601962496402745
Sr 8.894639293229272 16.956459476994837 11.78206907922809
Sr 14.958825888253996 14.187329534920044 13.327788505149575
Sr 9.89046537584818 18.044795783570105 7.631463451634968
Sr 12.025911757826707 12.263002566755068 15.695612680275588
Sr 8.280780627743455 14.3401927226361 15.56689922537449
Sr 7.045957909929231 13.641193531522445 11.615820300445273
Sr 12.677808519058035 15.687012877958557 6.189760455648651
Sr 13.633641925752382 12.949331289956655 9.369336714023913
Sr 9.883953144147002 14.828284897793639 8.802966755556513
Sr 6.279330830733691 16.423326681852483 8.434050266250981
Sr 13.109203636619688 10.331873690465622 12.613393794307562
Sr 10.055955335093904 11.16234397012299 10.081083713263897
Sr 8.297727158648268 10.436526563853937 17.140322501125034
Sr 8.563047981742628 14.979942163970104 5.8913992286353905
Sr 11.150467020707104 8.023225693050357 15.67504997980933
Sr 9.06535900640303 10.760615758688063 13.82901472469624
Sr 10.963292872470348 11.751111661145044 6.162426604585479
Sr 5.254589729005394 11.287013264865369 14.765546669681035
Sr 12.859643149562796 8.72205789815671 8.520408622584698
Sr 6.885657342711454 12.198275791148982 7.631452674022266
Sr 10.077982959435287 7.3836787537738235 11.563536162703718
Sr 8.771622698053003 8.464631985170927 7.684562963526644
Sr 7.026324132547817 7.323953528412923 14.435754775662717
Sr 11.216821960923182 7.703956727325538 5.555580814438641
Sr 7.683191736234849 10.1140873927668 5.025879306126824
Sr 6.3372337472824185 9.504830855806063 10.948661777360675
Sr 10.67701860690515 5.898218309746008 7.98312957328279
Sr 4.87511501279414 8.467808344698835 7.069522678939023
Sr 6.761391751601422 6.4662544574931795 9.754819530789744
Sr 7.487158611358793 6.620150956276761 6.16242660458548
