30
Energy = -33.94233803 eV
Sr 15.113370158879604 12.3620085122574 6.646783470342769
Sr 12.102773910554445 15.123700274264866 7.189695862021141
Sr 14.90518355152163 13.756166144289946 10.166647716517176
Sr 10.74069316515622 11.756754164146352 5.345178372003028
Sr 15.645580089135262 9.547268990178756 9.433240875433869
Sr 10.918493209204966 14.13818715375076 11.137236729352564
Sr 13.51045077771111 8.529081087317664 6.453061974001901
Sr 12.0959078306912 11.28122573180223 8.3751401288329
Sr 8.28997071474642 13.347206304596867 7.987844397864825
Sr 13.377403373959645 14.124866029128762 14.421128877149389
Sr 6.436212048380715 10.820002212967115 6.047124470896531
Sr 12.937539963639821 10.758852614219075 12.217150340259957
Sr 5.578709128780525 10.945517182467531 9.688927413973104
Sr 9.61356827372084 15.629840600602142 14.416099990826824
Sr 9.410488310999018 8.358391176013887 6.825226663155593
Sr 12.171162088150762 7.417796072733774 9.864830781006393
Sr 5.5787091287805275 7.529631893967641 7.734300753917197
Sr 6.955301171324593 13.735256027428107 12.067718379814567
Sr 14.335992832195357 7.110735206790383 13.330841906889423
Sr 8.840257955961954 10.301535777418282 10.592513446351662
Sr 12.878664320832758 9.955782993455495 16.256193692608683
Sr 10.370686770066694 8.068856296856124 13.540669198248247
Sr 9.813326427928905 12.087067374537478 14.492070244766246
Sr 8.227748951807344 6.127059424283773 10.426853658335498
Sr 11.240365225537627 4.831056534702244 12.734328786056809
Sr 4.990827847600443 7.002851655762899 11.631544233158234
Sr 11.60763529898337 5.819975333178495 16.549409700799924
Sr 6.3494669438800075 9.784041118747714 13.723094875957475
Sr 8.776235859391008 8.909029543701731 16.549409700799924
Sr 7.4769905362634965 5.657228621656435 14.544507009132403
