35
Energy = -40.83987518 eV
Sr 6.182139222555604 13.55690254370503 6.903434719974785
Sr 10.161835838920911 14.567879634757162 6.17880619236503
Sr 9.330294118183442 10.571266048400785 6.8028581228236185
Sr 10.769732292916732 6.745783135905554 5.932455172954383
Sr 12.979586256134438 10.362369156517536 5.190070980767957
Sr 7.8774734497292735 16.697570155735388 8.305032971053084
Sr 6.182139222555607 14.594212428341834 11.032721652141918
Sr 9.014732897786846 7.235436929485125 9.312913852270368
Sr 6.622881594916675 10.588050319837803 10.039708720728198
Sr 12.10619414398263 16.59296382968702 9.107981811705915
Sr 14.95287253652755 6.642586170709591 6.3992954846763395
Sr 9.208087419363125 13.643807812890904 9.435775630134948
Sr 12.874393250711856 12.665989308066983 8.102775814867048
Sr 12.661015230781635 8.723446991995017 8.325253565677803
Sr 12.379264738469796 5.257785531427542 8.880594494533833
Sr 16.25761981474583 10.417104130297774 7.539718446431816
Sr 6.00235164648661 6.783122074360878 11.730016596698063
Sr 15.88768016481694 6.945425413986316 10.128904432754203
Sr 15.819863778006674 14.518332594819846 10.383892666291361
Sr 9.406682015606327 16.608720080610393 12.330931753713806
Sr 9.167737971030348 5.279562825928218 12.718924075841635
Sr 5.686194031221761 10.419915011872039 14.009717407208157
Sr 8.694454901704987 8.746094517297363 13.06707119124168
Sr 12.226410046076156 13.728143387170178 11.966299083003257
Sr 12.286746653517726 7.38091326316143 12.053846064464981
Sr 13.705877041213494 16.608720080610393 13.190446669296497
Sr 14.62741957144413 10.656918089821277 11.318987197802818
Sr 6.69359094919191 6.701685347871597 15.766984627973807
Sr 8.538826346026749 12.693366773856814 13.285263363290817
Sr 15.326544323420714 8.300174789315284 14.594424537290402
Sr 11.301094990714928 14.54278858000363 15.779218416660905
Sr 8.566384426199058 10.47299562610099 16.254728466237395
Sr 15.275179882371523 13.238881063172558 14.525937774225937
Sr 11.026580926000937 6.97832248068283 15.940415458546386
Sr 11.995907929475374 10.674017951766618 14.461935522440774
