38
Energy = -45.04082958 eV
Sr 15.783340512360905 9.682494014542591 15.111304273588829
Sr 12.96735698539785 15.688894307893806 16.74400634189833
Sr 13.967516689175627 11.728465560320709 16.74400634189833
Sr 13.087247413036806 8.805447051817419 15.217001733641485
Sr 10.077642154283705 13.780298003633083 17.760528538855805
Sr 14.782014793660453 12.841129664362914 14.0317871913012
Sr 15.23668977448388 7.686683048584596 11.648336235905319
Sr 15.835619238382561 11.262599440325378 11.214593249196763
Sr 8.767614965295827 15.876475075046674 15.49839892544952
Sr 10.026135483444198 9.68628823921577 16.876551354619775
Sr 9.83146764952118 6.073938440591774 16.356922966081534
Sr 12.326306800970158 10.586477700709446 11.460334572093853
Sr 11.251974510542597 6.237829364184122 12.42086526566116
Sr 11.049045626106878 12.500862341188538 15.449607815961684
Sr 7.05370773602284 12.205084824286232 16.27213499739846
Sr 14.027802612497345 13.820818276385834 9.558162811585381
Sr 14.964976287241385 10.049814122937168 8.03587434481127
Sr 6.225242192017516 8.080521614467001 16.73822233040871
Sr 11.801557095124014 15.377076638928571 12.695294197622758
Sr 9.13775891723233 9.25104865706755 14.301863927245588
Sr 6.988663933702444 6.23782936418412 13.067471123609895
Sr 12.035836401619196 7.251561902931064 8.56021365203432
Sr 12.21893295054614 16.434928399988262 9.286685500495453
Sr 8.565416878693634 5.075741970259745 9.286621000883946
Sr 5.134134515819015 14.883814104530845 13.374182281360802
Sr 9.882307580877649 14.55212410971418 9.13143805115929
Sr 8.366668459240262 16.03099977818714 11.553487200954592
Sr 8.732482928176074 8.699231745959805 10.449602119973548
Sr 8.416040501203907 12.943093577216866 12.319045931822602
Sr 5.43669678965783 10.148673221504497 12.806137982333365
Sr 10.935634402274152 11.133348280621556 7.526482904581558
Sr 12.051392270305758 15.038895891734349 6.112014647998864
Sr 5.844618255821467 15.32712045708731 9.141235102851821
Sr 5.126280500724208 7.403718065304033 9.435066781946219
Sr 8.151608758554937 8.214580671751811 6.725643362253272
Sr 8.68716208970437 16.33406072688709 7.067307365976415
Sr 6.586423955096804 11.409600411842518 8.787788968198859
Sr 8.049372928716771 13.645340456965968 5.83996103595068
