32
Energy = -36.52678244 eV
Sr 9.917891678050694 12.440348236177002 4.323944642736246
Sr 9.686977151391053 15.681746801625074 6.094797103596948
Sr 6.202790315874609 13.366360901719519 6.03352570369377
Sr 13.052690602777547 12.921410499384603 6.753541632752709
Sr 7.40934631962778 9.157033468458211 6.0947971035969495
Sr 11.960024065022033 9.353505251676484 5.897497307232838
Sr 10.9616114770476 14.63528728636725 9.931236873282822
Sr 6.869779177638304 14.949214520445521 9.122891646907583
Sr 9.20886978738499 11.865878468451886 7.4534023501823325
Sr 14.835704713970431 9.31324078713085 8.149182769602072
Sr 5.335312490330057 10.94344967531985 8.650287276822699
Sr 14.77932412891109 13.220032856092663 10.820969683237948
Sr 11.864213390216563 10.491460568668636 10.331835984111603
Sr 6.2094268397557 6.96589921409319 9.286699140055992
Sr 10.08106559687165 7.577612497189328 8.075241287433872
Sr 8.12599714372232 11.826312890033941 11.442689961700129
Sr 8.65928619080947 15.836754984887087 13.035605780518798
Sr 13.058692956988072 16.30800509015558 13.227572640088173
Sr 9.280245637847361 4.937174926939898 10.386649265117041
Sr 9.070773991592858 7.816943743974066 11.914099540554119
Sr 5.318799803440466 9.342351964403777 12.842581473738317
Sr 15.596513052900422 9.562060136677843 12.319816828020304
Sr 12.881165474495926 6.521991012773357 10.97660153228515
Sr 6.443958409583242 6.037774378662595 13.32065311149163
Sr 11.255904344863632 12.8055936917453 13.587948489788676
Sr 7.601808869555702 12.461807793494797 15.430985669684787
Sr 14.665182789327675 12.690241429209028 15.216071268231902
Sr 10.903974875575065 15.252946132789507 16.63271978350497
Sr 10.559624473631208 5.804215422917848 14.290273561207298
Sr 8.30190061731689 8.380550761462374 15.75528946917031
Sr 12.169078018423939 8.90840302715132 14.331317239436665
Sr 11.067120207378242 11.212154954329778 16.63271978350497
