39
Energy = -45.43549434 eV
Sr 8.316787156124201 6.222736231174311 5.870037243761061
Sr 12.430002234173086 7.846124074649204 6.042094049332768
Sr 8.98222965294453 10.314371864005555 6.205063860710647
Sr 5.66653344048057 8.526882089094132 7.352011372143568
Sr 10.828728508379836 4.610507609391006 7.257252421644031
Sr 10.039643894368707 15.165458325772224 8.101062468171868
Sr 12.473147153776972 12.317714275474957 6.700023789459553
Sr 10.18232380115034 7.592566508297425 8.358079245525007
Sr 7.191628315520935 5.751899570414769 9.194555459395122
Sr 14.038678794391007 5.801026543677678 8.752189886832705
Sr 7.126886494794021 12.163135487750987 8.369114428065066
Sr 12.976749622480128 17.258709970384988 10.098677717004593
Sr 13.920878521600972 13.846416053042379 9.560272171094654
Sr 4.985333606690401 11.353035697794002 10.90314312607302
Sr 8.954238626404996 17.950507200242036 10.882804042757764
Sr 10.763396246736631 5.8010265436776765 11.439471649745615
Sr 6.289367678592319 15.473891965965603 10.568069282974998
Sr 10.828902141707355 11.25704174933832 9.666786820727586
Sr 14.669867690310486 9.89409098015039 8.360445264819559
Sr 7.36775101044626 8.709197102080847 10.91823784021025
Sr 13.097032081848663 8.335093409832327 11.738434208254402
Sr 16.456714486570203 7.674796407395311 11.02100996806587
Sr 10.794004398916977 15.21516589542475 12.016997412088186
Sr 7.600523633685298 5.821829177820182 13.989656741019493
Sr 14.77005545721092 5.625151855481089 12.900271401017966
Sr 7.912363331389492 12.449419629057164 12.4656346455171
Sr 16.45671448657021 11.62248000609663 11.88995634211341
Sr 11.636030974212762 17.821659293608317 14.094732566867906
Sr 14.694332218991526 15.531439140667429 13.251580006835406
Sr 5.685127197407497 9.559711787528935 14.645000599475848
Sr 9.728237584508056 9.262107347641324 13.965937568124534
Sr 7.912490506307294 16.25212558457846 14.497675273566799
Sr 12.714727888999679 11.922309056363403 13.404772491743723
Sr 11.814648356442325 6.347134889521908 15.431757674708473
Sr 15.398073915924913 8.731661236677438 14.895207111510281
Sr 8.400437303381004 12.239240657502698 16.447539005415546
Sr 8.424606454167442 8.093744890331065 17.536520095475737
Sr 11.622002342500252 14.724564314262425 16.090412791904814
Sr 12.065128604415797 10.36915354901865 17.12326381346994
