33
Energy = -37.62314214 eV
Sr 15.787589189870642 9.368330641955527 13.784515703994604
Sr 13.129252237317141 12.037373667159006 15.649703260486275
Sr 13.597536513577088 11.826116976901256 11.284970809229224
Sr 15.56411171716008 8.576352897141318 9.401139557568914
Sr 15.577724483519564 10.133324279031568 18.241365602793593
Sr 13.00159788298035 11.728378660329827 7.599983637356811
Sr 11.782285092563455 15.21685664627375 9.491324368520917
Sr 14.326180467677553 6.726181694111147 16.39520381803673
Sr 9.310803245642772 14.035199685935444 6.826258037901395
Sr 13.179680267504718 7.8176193023709715 6.002129489059055
Sr 14.004367878032024 5.936308197091179 12.40110213534536
Sr 12.470696677060028 12.59908998775664 18.90466318607747
Sr 11.389851450155769 8.962672540819657 13.276054157656745
Sr 10.282266505936986 13.656761558674045 13.108716302338266
Sr 9.765644219774034 11.773855037684227 9.618091463482608
Sr 13.475116433022707 5.292508929804404 8.467513413280898
Sr 9.401978039619726 9.791185568178166 6.53322386885348
Sr 10.305835692746815 14.617074168200926 17.150630358750067
Sr 9.707402426651818 5.698182873268972 7.378877128276129
Sr 11.71255121052118 8.325629816079653 9.216782600764699
Sr 7.542896396339575 15.041231927891737 10.351856253413935
Sr 11.50280993712171 9.099764602494195 18.04336121591561
Sr 8.903671528267616 10.913413955733873 15.646880123053803
Sr 6.67320134704899 14.238110011791848 15.245455775821041
Sr 10.056293766810949 5.292508929804407 11.275334179696719
Sr 6.115836674763617 11.818241764151038 7.98514935446142
Sr 10.522009742797689 5.696453222479531 15.542234545926673
Sr 8.080619617842293 11.845535857669214 18.241365602793593
Sr 7.632380079241744 8.230035015099768 9.62500791564461
Sr 6.684833354677117 11.367240362115322 12.235129136110707
Sr 7.658716518961171 7.741290492107746 17.90570268921274
Sr 7.277749749982259 7.576146436190446 13.752920205040708
Sr 5.501525428271594 10.465640472963539 16.17844204991005
