35
Energy = -40.88629948 eV
Sr 6.039049258769214 13.130369851319877 12.690828837558163
Sr 12.915129631477878 16.01528682494528 12.941158515003274
Sr 11.282864103992923 15.229049755754621 16.488597412378162
Sr 15.427087199953593 10.34801789723856 7.425014955774605
Sr 7.9985647201960814 4.016733056301178 9.633708219075212
Sr 4.494014553755523 9.22822172389883 12.539870112206655
Sr 6.467435270391599 6.040710539806768 13.21861760312475
Sr 10.670126574394976 11.822474306402379 8.509658295268139
Sr 7.862617790660549 9.74725193492228 14.38718831421776
Sr 13.84082363243856 12.870697756154183 10.593122822279172
Sr 8.516244965355593 16.30586558761832 13.140510822543465
Sr 10.144283787607202 13.147360918470447 12.871914734970611
Sr 12.797057047323706 8.47162954538819 9.430426555985047
Sr 7.701846870932312 10.337803481697714 10.486998410199307
Sr 7.315531318744922 10.708041665339373 6.438864065913357
Sr 16.10139813693491 6.330871359863922 9.181139105227622
Sr 12.207046975510472 4.718848202085666 9.080469575005402
Sr 7.26035755467263 14.172498639911659 9.07690055419211
Sr 10.464174016155406 6.74068608510936 15.439769321461736
Sr 13.665901785384994 6.040710539806769 12.680760894306502
Sr 9.674135864784718 6.917225137681751 11.37848244353354
Sr 5.993387120780241 7.274812033144837 9.137350837640946
Sr 14.155124332622517 12.666770758916366 14.730524740197536
Sr 13.478979752471894 13.97235535930579 6.518471892046782
Sr 10.975430490224733 11.014582532752375 16.488597412378162
Sr 13.598673040219957 6.775956732769805 6.128633767494062
Sr 11.928459055116743 9.726731882557303 13.07204115020449
Sr 9.561241613452228 7.317766673218409 7.372321212852468
Sr 7.616823418775029 13.553507435422073 16.323250795175287
Sr 15.87339281460464 9.534315539934056 11.985525735327203
Sr 11.59581681697194 10.418648957707802 5.277233494338388
Sr 9.509180702587669 14.240309065366981 5.7985398125350605
Sr 4.356452242180975 11.380777449458147 9.063989259250269
Sr 14.403487537693701 8.574711790674428 15.996155781037078
Sr 10.924606249036014 15.783958586503054 9.377857810232747
