34
Energy = -39.25758209 eV
Sr 6.49553441886191 6.1635056129215835 10.598309808883839
Sr 10.304480730863597 5.454714626011815 9.664598884314547
Sr 9.405990734357122 6.800479998396335 13.340115692176601
Sr 7.890921001726316 6.535063300499898 6.464074914139245
Sr 6.020419495453277 8.949071606021013 12.809427114521323
Sr 5.355938762533668 8.295843366562442 8.76536789636636
Sr 5.499600215200596 11.974942716985124 10.207131393009599
Sr 8.866798534534025 10.473765954159687 16.228357104377128
Sr 8.783173918983946 8.687588438209504 9.50807826259698
Sr 12.86033195223139 7.323145653720174 11.346453586235643
Sr 12.53071828860088 8.669837667145204 15.227805130234598
Sr 10.430669195353296 10.359211174924635 5.646356443235801
Sr 6.007337787311675 12.798604155799987 14.21314590031493
Sr 9.861834520088053 11.121019373319909 12.564594710513793
Sr 12.436101887806364 7.15595242705201 7.200169989242516
Sr 6.436083406107039 10.953853493506454 6.271484830881923
Sr 9.11294269962934 12.893081149326134 8.596822424928378
Sr 5.961677457336221 15.103385390937017 7.46060853175233
Sr 12.576376518016325 10.703433719959 9.128113180107173
Sr 8.989571814130441 14.223853966665775 5.646356443235798
Sr 12.860031613377885 12.760034412162497 15.356941089472194
Sr 9.480217662717049 14.894242584710335 14.831227461979877
Sr 14.837098888878069 10.723863197288619 12.492919573154532
Sr 16.06207732029104 8.716725975340575 9.020983481034634
Sr 7.484257141877108 15.374025281376273 11.357372237546588
Sr 14.623215937286215 10.658364128167992 5.699696748436693
Sr 12.050365079773712 14.320408852541664 11.41231764374144
Sr 9.853522135830188 16.855643231666985 8.2667253537932
Sr 13.200998307588211 16.903791152574577 14.528016436925492
Sr 16.060445243465615 14.563803194583052 13.005059661623157
Sr 15.866800029977083 13.051040578748408 9.192327492859636
Sr 10.293454961208944 17.2743543995272 12.117813294007686
Sr 12.641585225283883 14.170264807605486 6.938706496509538
Sr 14.113316586755445 17.274354399527198 10.079095829242824
