38
Energy = -44.37939954 eV
Sr 21.128299525620076 10.536733877278518 7.114246872173717
Sr 20.570592558624217 14.543466761050558 6.864900180520009
Sr 21.995319041986367 13.226666265902054 10.277044930869456
Sr 20.570592558624217 9.100348644610776 11.15006954418201
Sr 17.93800692417744 11.438585964522195 5.559330740401433
Sr 18.553477179325274 8.051313390687762 8.05030971766247
Sr 19.16050577193176 15.848369790863618 10.652701772723995
Sr 19.092212180225214 11.939750574382034 9.48661334678984
Sr 16.345824220931966 14.556441218118382 7.817698247484759
Sr 15.16189327931302 8.41004614433886 5.540433154620068
Sr 18.374143177061192 5.894532788080173 11.414633638955436
Sr 17.444596905999013 9.421194205780543 12.732606067213585
Sr 15.351475782280401 10.337992879494617 8.908408914338326
Sr 13.68209327513138 12.43649301597843 5.540433154620068
Sr 19.908175688100627 12.650842008474875 13.412619247851044
Sr 14.79421542555963 6.368887147636996 8.965329426179142
Sr 14.43943084747894 16.83412649749153 10.695201243540046
Sr 14.594239392835611 6.3674031691016575 13.111082372147873
Sr 12.549233195837557 16.2744212451989 6.985133082958234
Sr 13.583176150939753 10.36705890658765 13.034838083547763
Sr 16.15352633957304 13.29720363012345 11.747550659908697
Sr 15.870062219192228 12.63816781213139 15.638745362205114
Sr 9.56462560681695 13.216670501752114 7.176543526485024
Sr 12.69475072904655 13.140478686287931 9.59596384839346
Sr 14.941419615899768 8.70723859347695 16.503556666931967
Sr 11.58339624178354 9.42920386095571 7.356400890232026
Sr 10.148089706319055 16.098516257919417 10.52465321832848
Sr 11.230905684912079 7.616699835214973 10.926824700275724
Sr 12.465768791211394 14.389687851518525 13.536990467717736
Sr 11.069088223491077 7.794753885128056 15.114065382703702
Sr 9.641886308896105 11.073278623355334 12.599955144459287
Sr 11.654065608858755 11.6307331906399 16.439970383224814
Sr 7.07905711449419 13.774584545370836 10.246630438894508
Sr 7.971889485592323 9.80987399084795 9.308242071338872
Sr 8.37550681329364 14.205886233757855 14.359364936465887
Sr 7.94611451165704 10.160051779778133 16.175151508038944
Sr 7.746578811577262 7.490489653704058 12.93841281127205
Sr 5.700182867299525 11.050037294455441 12.853669655692743
