36
Energy = -42.3179419 eV
Sr 6.132522374368794 9.03936809362822 14.191637631236333
Sr 5.598406536567932 7.536793764066761 10.18446070124691
Sr 9.0279062424919 7.152723902271461 15.888770481174312
Sr 6.55841468712118 5.593932819278934 13.030256196714104
Sr 6.388979329016136 13.895028426736557 14.448093964901187
Sr 9.146795701065104 10.985512663286832 14.311292761593126
Sr 6.344461690635756 11.421906390072985 10.881809508856819
Sr 10.852680527536213 14.414759236734538 15.350343778077272
Sr 8.64256888424448 8.058794617920796 11.891818506090035
Sr 10.776171807835793 5.377395897810954 12.757634399782177
Sr 12.340387858945384 8.44011687237851 13.876293527029208
Sr 8.585188216632792 5.636439854322192 8.90571874525824
Sr 9.165185131212564 14.177812036363 11.528198661162419
Sr 7.863836265944251 13.740794423741319 7.680380190497572
Sr 15.144207303255103 5.789934403650547 12.650209753242112
Sr 12.326445315389728 7.403883584975279 10.0850216604884
Sr 7.18858423571238 9.32168696680659 6.96474362740677
Sr 6.344461690635756 15.852002307990007 10.758453067241925
Sr 15.528087961802175 9.702970732478242 11.594873180528301
Sr 16.149743311476335 9.066382678292465 15.444738244056214
Sr 11.210415967409052 7.75912351399813 6.252818973149707
Sr 9.361545847640416 16.171189557913042 9.303576716601833
Sr 12.312603573581368 10.755643910409209 17.042700099674608
Sr 8.571823549359037 16.248902192761985 13.469758657671234
Sr 16.14356765225247 6.981604967871496 8.642193676149454
Sr 10.599305803392493 11.723367336680017 5.928130595038775
Sr 17.570156683535497 7.677326146559584 12.015035879395173
Sr 10.08382509213697 10.63403241841691 9.145184864148186
Sr 12.354696203209588 12.003839489862395 11.99665384507307
Sr 13.9927698930446 10.639218365999628 7.9476468909446485
Sr 11.994930674395352 14.277886427768602 8.416322764350305
Sr 17.356796671096255 11.761218544470337 13.045641170094843
Sr 17.05121801363758 10.61277889172019 8.95716844811498
Sr 12.650771249080957 16.171189557913042 12.107857724211865
Sr 15.755676673913522 13.657203984453464 10.492239018658765
Sr 14.947125172132441 13.089420244133649 14.671469496272643
