36
Energy = -41.99711087 eV
Sr 16.162722057952045 10.49334767242804 9.11475293993971
Sr 13.718972253932666 13.464225973216434 9.883523689738192
Sr 14.9343511719512 7.955206147804485 6.216384559797772
Sr 14.910257626000629 6.759183337139803 10.44899735681531
Sr 14.07740810660177 12.242087522443315 6.002602635847394
Sr 14.212257016793718 10.24635119710092 12.7376629444493
Sr 10.641217391643217 12.591325385128187 12.440448055043765
Sr 13.488170087962125 6.320170323686443 14.554351565355958
Sr 12.61342217902265 16.721719355693526 12.003821843729822
Sr 12.523319867411423 16.46291242419238 7.5269875551387955
Sr 12.680093586758531 9.833711247560926 8.882124592038519
Sr 11.950307514657371 4.456668463377199 11.620888835320198
Sr 10.088333674478967 12.72036941161621 7.24083583754567
Sr 9.518161621559342 15.441399561192556 9.920753749854754
Sr 10.823931177470689 9.501175076475928 15.47851206897269
Sr 11.634527716443127 5.9925261671253 7.983174699584181
Sr 10.883804850115785 9.143228975391985 5.280077044855165
Sr 9.034891241229102 5.723562698028135 14.308702903495913
Sr 11.149825790953994 7.695240930041473 11.736528163397232
Sr 9.97538850240581 18.82388040699149 9.92030184883898
Sr 8.079206438040492 6.0990883228992345 5.847892540309671
Sr 8.472619425205046 17.028646758165557 6.538604363161804
Sr 8.576957721532924 8.91236060081298 8.81943721380681
Sr 8.172080295989401 5.723562698028137 10.126331792637021
Sr 6.7206958537361094 8.53148491121299 16.405520915234053
Sr 7.822330097335155 9.7471296668676 12.812729676067656
Sr 6.135754419764844 13.831882314795255 7.9231015869059025
Sr 7.830576639320924 12.630369862712621 15.666923834419288
Sr 4.894438537890181 10.88567193784721 14.057482295628242
Sr 8.726558599574965 16.647115533096173 13.534959388890373
Sr 5.551452641027788 6.805143705580941 8.199575736912097
Sr 6.157488462123107 17.028646758165557 10.116779391525304
Sr 6.491147237420589 10.107265013369158 5.791603160397611
Sr 5.831634737924036 6.966867783808364 12.458755832370151
Sr 6.506297249637487 13.609650013286283 11.92136276743425
Sr 5.530651607779528 10.462511096624032 9.903758648908127
