31
Energy = -34.75940094 eV
Sr 14.395044760661554 7.795127006981206 6.559370516320897
Sr 10.332180699450838 8.976696386249149 6.126960506698993
Sr 13.640896971041657 11.875224688205709 5.489049084651817
Sr 11.478824046755946 6.3447409660415985 8.550436674174632
Sr 16.56576498354923 10.986372514542445 7.451895342459124
Sr 10.34325289097066 13.49976187510163 7.451895342459126
Sr 15.32317185043468 7.726306713824239 9.83280460782068
Sr 12.618202620635133 10.3199623528299 8.063581979461887
Sr 8.123716628418821 10.675430840734174 8.146369834121929
Sr 7.379254445659011 6.888740524816378 9.18040406354865
Sr 13.93301207861211 14.228054180981765 8.448021086387424
Sr 11.913364106114779 8.634554414529047 11.82288300781309
Sr 10.776808071155857 12.622738310215777 10.706482095661531
Sr 14.785086503121473 11.574528705865724 11.32555662924232
Sr 15.612445662508994 8.723543143876825 14.012769331813947
Sr 5.468779324301735 10.03381786493211 10.283622832799031
Sr 8.105457443160013 9.860762595991583 11.954578243041714
Sr 15.913472751750843 12.805174161371694 15.13106078362107
Sr 13.11914723714634 14.909683335696425 13.01741254014926
Sr 6.730645373716992 13.557635601248514 10.830260701369326
Sr 9.43086450650851 5.687418977434003 12.599891378939716
Sr 12.130686457200763 11.029745364370827 14.808741423087211
Sr 6.4251829966395295 7.136059742121274 13.104755429110789
Sr 9.178270948226707 13.772519883585593 14.267343810747814
Sr 6.432583960179771 11.443306669178522 14.416960292431519
Sr 14.76561253751364 10.053549034562424 17.87923258918423
Sr 12.370760143266741 6.991622061245181 15.80726819192735
Sr 12.279218638923906 13.747424711464568 17.4756916137721
Sr 8.596389690124994 8.651393279885152 15.61113089234491
Sr 8.082199743900743 12.212188740420649 17.783562739104344
Sr 10.944285868758037 9.614024433083665 17.879232589184237
