36
Energy = -41.93580786 eV
Sr 9.317043145953122 7.535222039325674 16.811241442194216
Sr 11.928891402007645 11.366107069045052 16.71533884773075
Sr 7.2151938770001225 10.607615934334335 15.020213251276505
Sr 9.757726361112637 13.533277709881094 13.712673618671774
Sr 13.41890812727404 7.307567251216128 16.54678890596991
Sr 12.27603639389588 15.560348976778219 16.40632007043229
Sr 10.96108631410083 5.067736642721183 13.996351641162331
Sr 15.762261129423878 13.268155871517218 16.713552606268003
Sr 7.57734968911776 7.106254047775851 12.850921077110145
Sr 15.414418930082396 10.023349480323898 14.209892259588253
Sr 5.800235848852173 13.599629749412355 12.327233638964788
Sr 8.306189319568544 10.764247527915943 11.197857210285514
Sr 4.603387218211625 9.742741940343345 11.56998880313925
Sr 13.693313207432436 13.394859796880981 13.196362129777736
Sr 14.441778513319088 6.5565476392449265 12.578586144752938
Sr 11.866683838885656 16.852972399945852 12.34334388658439
Sr 11.247364753275923 9.155457913921138 13.518611442868204
Sr 15.690717730378159 16.745910808617566 14.413039865867507
Sr 15.496519680023901 16.251263942751823 10.310845103306763
Sr 6.079660812808003 12.12783225350053 8.271254642041983
Sr 17.58570875227854 13.167650919080366 12.65056971801728
Sr 12.60151600945243 13.762093609082047 9.217964590407178
Sr 16.502316437003252 12.522598029121623 8.586149625406035
Sr 13.682952495651852 9.718874033417967 9.717273717931148
Sr 17.479707058209797 8.92791088043843 10.682402443828146
Sr 7.0861019545678126 8.018762129126664 8.576595494317404
Sr 11.820914363331733 16.85297239994585 8.287801002932857
Sr 10.830142826508592 6.849705964743832 10.13595764068065
Sr 10.04096089693446 10.866257522805796 7.753969153903736
Sr 8.87223309686318 14.76770973684018 9.802709155643706
Sr 14.817885771087338 5.8173637974808425 8.701190818066866
Sr 13.499734941327091 11.625902356564698 5.808606185158283
Sr 14.642018933924355 15.543461395235227 6.252599844549964
Sr 16.33886671202892 8.811060317547785 6.557574578303442
Sr 10.417418373169316 14.524551932430294 5.944269750107781
Sr 12.195363964873762 7.690038439144942 6.252599844549966
