41
Energy = -47.97823429 eV
Sr 10.881403664716403 13.202687428542243 18.824915102288927
Sr 8.0859630350087 11.711796525251078 16.324161992765518
Sr 6.791064347858261 7.647064334911347 16.984187983055246
Sr 10.363814355303175 9.054918428457489 18.202329470283527
Sr 10.344038910685226 15.010170526773999 15.388598684662556
Sr 6.5389889116307325 14.422755809328493 13.605281656779507
Sr 6.067904835961076 9.786717324879556 13.699629300743688
Sr 13.514865267300518 16.852664550614374 13.351466524287048
Sr 14.387155049365147 14.47221918814704 16.99385790029889
Sr 14.077106198670647 10.70569871771856 18.971592111993274
Sr 8.614445914332876 12.098825886719558 11.607533560262564
Sr 10.032214230395688 5.629417048633536 16.634183750144118
Sr 12.29627896277251 11.524553036452891 15.532673436076317
Sr 9.79428027050764 8.658696323705218 14.083161772400048
Sr 9.717147217487323 16.104409482066828 11.646493938536189
Sr 4.789637912252443 11.950822085693494 10.495927470799954
Sr 13.468528991089086 7.658231727118101 16.142577997046747
Sr 6.538988911630732 15.197080092451346 9.343592556805648
Sr 7.512855217022756 5.986629560074005 13.176548689399873
Sr 13.20572156165667 13.735842342901044 10.772324040640262
Sr 16.340466937662462 10.545185101606942 15.836405382359647
Sr 16.401323517905823 13.776271412842695 13.360400406015529
Sr 12.517847049823475 17.212871368085175 9.063615022127577
Sr 16.303170212154825 16.48593729164801 10.115710972466069
Sr 10.339904470718507 13.988282869092265 8.030389322954774
Sr 7.1525298399795965 11.587184804756651 7.366886699559187
Sr 6.778486328911633 8.42120814860382 10.062995491742676
Sr 11.96574403127669 5.764462442802359 13.003104721033985
Sr 14.533114582829596 10.064183701666565 12.073826874050184
Sr 14.36001106787603 14.492264738552334 7.175317290773029
Sr 18.517805050613585 10.325660157412782 12.568923416042804
Sr 10.540402716069435 9.567986684941417 9.014076294448348
Sr 16.369236832061937 6.753844286175692 13.162624507960183
Sr 17.168821544303036 12.549876502771983 9.451679146323459
Sr 10.83497736967239 11.075509236271683 5.521048935818107
Sr 9.765866254112456 5.939323165152611 9.394423454584528
Sr 8.148922690324241 7.820179965318501 6.455666280409012
Sr 13.737222692422913 6.799876659250491 9.720696510327912
Sr 14.147841307461917 10.512639114946127 7.736407746143436
Sr 17.168821544303036 8.39182484113352 9.272123925761154
Sr 12.154542264751225 7.216322525916677 6.370162555394629
