45
Energy = -54.16794154 eV
Sr 12.874112173077219 16.016610160696892 18.20557443675348
Sr 13.367209020127861 12.891238661017749 15.237491556989546
Sr 12.53972406496406 11.969722187080018 18.722656939901093
Sr 15.80451318459202 12.194213876672881 11.799245859500683
Sr 9.665646230157416 14.960122310840699 20.18623030062978
Sr 14.745379178463924 8.644990680509391 15.43932926651095
Sr 15.31489587261574 16.19514059087225 13.28373046303261
Sr 11.463333568999165 16.529961370348175 14.505246110094431
Sr 16.860084933131482 8.376921506708413 11.482419658917635
Sr 8.487027823518803 17.48017131671497 17.10582128986985
Sr 12.419227201497714 14.24523167691216 11.380541100133142
Sr 9.657189941550667 13.774966696660458 17.13720494548107
Sr 10.617802696282752 9.941721431299415 16.305042900295057
Sr 14.005683265715643 6.06659789427634 12.251578192560896
Sr 8.343262242295566 10.89526282547464 19.011567118715632
Sr 16.75572936312222 10.933985105010425 7.849467998881141
Sr 15.488485989129448 15.262888403977707 8.95665158472028
Sr 10.907853750915413 6.640924127910793 14.74033412610763
Sr 6.034743345063865 14.389734514670183 18.722656939901093
Sr 12.48245372081642 9.649023319991974 12.426870515181754
Sr 12.27142217377676 18.041735744282814 10.602647786325434
Sr 8.40174110470651 17.169004582164085 12.21585276009601
Sr 14.730402594100196 13.652867800615159 5.4817514496431246
Sr 7.296832252131511 7.3772453856344615 16.76657223912359
Sr 5.8942416421754995 15.050720784839724 14.496293575829934
Sr 13.041052117324858 12.055272002776741 8.27697177276354
Sr 7.084591971528128 5.633265726567861 13.030202747248726
Sr 13.647175910004034 8.055228090241169 8.800484126680452
Sr 11.8707935969547 16.07943515784053 7.302357834362964
Sr 8.28965921280168 8.922451503368919 13.192647246998963
Sr 10.263143065865835 6.9437186953794745 10.547039000609242
Sr 9.099391352024409 14.48863307889998 9.163602817442955
Sr 8.608269659436463 18.441545534758433 8.337027013220133
Sr 6.5054236022124154 11.298498904746005 15.912397330138427
Sr 13.594343701898019 9.691505449285179 5.495111237107341
Sr 9.653044496256747 10.61919254094619 9.78142242505369
Sr 9.37677874627022 12.916018027110391 13.332670439024733
Sr 10.342095127005058 12.44206073148307 5.905109627411596
Sr 4.838223915644919 8.39300965518503 13.613983835483019
Sr 9.793457123431766 8.382259152111969 7.076725470777992
Sr 5.860064333708077 15.744415810816463 9.586586809729381
Sr 6.453630516662428 8.059303634191258 9.701148260439986
Sr 7.517487048498383 15.537170549792464 6.096549995501749
Sr 5.931353369106564 11.928976030219346 11.528106808408126
Sr 6.591679884813082 11.754606390548362 7.302357834362963
