40
Energy = -47.59331307 eV
Sr 17.000365071741154 11.474218331535926 12.775774369882761
Sr 17.012786752712834 8.244481433356999 10.221343891219687
Sr 15.067568859659113 11.0366963590797 9.13432949785402
Sr 15.9656843572529 14.063256746311065 15.618988272354416
Sr 14.763675906584321 7.426484893412351 7.1930526959606835
Sr 17.012786752712834 10.555521128324013 17.083931377782697
Sr 16.243737479170562 7.826839310591937 14.213518941274591
Sr 11.323963515269234 12.758970344023794 9.15862394446647
Sr 12.675242819651219 11.209760325598811 5.931625926735776
Sr 12.883398106705283 10.447113865593197 12.586911337178265
Sr 13.743586322925468 14.61683393795419 12.071276846234573
Sr 14.221080436182003 6.818274351495752 11.011089437772313
Sr 13.882188917372085 12.899158187988798 18.19613053065452
Sr 13.00013895802384 9.351556958353035 16.559330327828324
Sr 11.882384502369481 13.453772571293566 15.777862720720421
Sr 11.55994708084091 8.77590397641961 8.747922188859317
Sr 13.681743066068814 16.885380320528853 17.27593348424235
Sr 10.693605854705382 7.322929373340319 5.520051282847203
Sr 14.017151139964456 15.046779941662766 7.640094758652281
Sr 11.511564963995554 5.103958631827754 8.591213633618336
Sr 12.919652761136932 5.751559366246923 14.880538252975999
Sr 8.564004643650755 10.769470611642658 6.945399185722734
Sr 7.862836187964922 7.043257253887026 8.652964493614462
Sr 10.227885135240523 6.935649890903429 12.266532683411409
Sr 10.118633676196469 14.764829981257469 6.274703090416967
Sr 9.254596363856601 10.441715221796896 14.627164268627011
Sr 8.615992129079679 10.375318769878014 10.742665212807346
Sr 9.644194629452262 13.776796152135308 12.540785288218995
Sr 10.465037602357645 16.68165079764573 9.941433877441389
Sr 10.43174861692994 17.071429397805474 14.676905038163499
Sr 10.31176296195286 15.433377186115013 18.07427093577527
Sr 9.187222590151531 7.089770495522588 16.50694002029402
Sr 9.747445592183018 11.181910825917544 17.672508036888875
Sr 6.244218876740942 8.07032999148657 12.97011412509673
Sr 7.285426104467505 13.922401401446761 9.19064658132908
Sr 5.279206849294448 10.206013518478242 9.240863970137362
Sr 7.7039432776110575 14.059169114914008 16.10559510011613
Sr 6.244218876740943 10.12723380506407 16.742664496050462
Sr 6.802787024777764 16.486184951244056 12.54715234684196
Sr 6.059950496775211 12.268622948731451 12.91497921367549
