45
Energy = -54.03142682 eV
Sr 17.66833720917 11.749808670757986 10.722108235782164
Sr 16.771503998569575 13.914149161756338 7.52584456953924
Sr 15.192557325369478 7.015844123924695 10.144472993294794
Sr 17.122470491042595 15.939725201462018 11.175198264005056
Sr 15.008453567719554 10.033193811891909 8.839641684250124
Sr 14.041784849907053 5.975855344340832 13.991773451798375
Sr 11.199996655139753 5.375668627612956 10.83665891573315
Sr 15.92375151333771 9.253212223148648 13.163282852781919
Sr 17.122470491042595 13.357852715687681 14.473472117265635
Sr 11.753665203961154 7.579999354003593 8.15832033225029
Sr 14.337738155233398 17.120853030049727 9.38824018573868
Sr 14.942348743615353 13.43017851539168 10.987345021604245
Sr 12.623670596274712 13.577650514174202 7.582642748017041
Sr 12.695255929276271 10.372580626824249 6.270969912235472
Sr 15.520882567464582 10.827354250181878 17.396732358520783
Sr 11.318825163422407 11.167619548487353 10.437309019609076
Sr 9.570722359558514 7.082818347253674 14.347049381383362
Sr 12.714003223527229 8.25687240219423 16.072722780966203
Sr 14.333421974688651 16.5070262680864 13.623127155558546
Sr 12.33102931659577 7.8906674495943765 12.110695201518338
Sr 8.417320389798038 8.245079343562253 10.779224476946888
Sr 13.183145520170218 12.149004069845883 14.293425229782208
Sr 9.795743448041389 13.68576212237896 5.507116397003015
Sr 11.033620540132754 17.19528739377252 6.722886872924035
Sr 9.638933925980613 10.21659816467079 14.29034679441249
Sr 7.780834597561174 12.62591549498346 11.756821932095376
Sr 8.894048183104262 10.530691388002282 7.127283043718788
Sr 10.667352560580259 15.27376683224618 15.09936135033093
Sr 10.704507707786464 18.881878995072224 12.894951587395267
Sr 11.145511332744954 11.853014335845593 17.784353472951867
Sr 14.098204762347674 14.799939881550745 17.447942820799362
Sr 11.081599673340811 15.316458112530077 11.04563835271338
Sr 7.235905285806109 16.390866652610384 12.77670822115682
Sr 12.323676920254483 18.608788228304594 16.803077457710273
Sr 8.533661651598885 14.37426800447457 8.207344710938411
Sr 6.651551222421855 9.76610355129816 13.595528897841652
Sr 7.22253389886662 13.475646510371657 15.905171100577489
Sr 6.760555393005121 13.051918702367832 6.722886872924032
Sr 6.973750270730784 16.960075252007456 6.669437338287307
Sr 10.13727071304053 15.74191601223962 18.16228392233507
Sr 8.159725262915682 18.197535150944827 16.342384385054206
Sr 6.11572538575967 11.066266918839055 9.41512287670649
Sr 8.21768732991958 18.36847898231882 9.426855637746998
Sr 5.092921378823604 13.559144097427577 12.881680517005545
Sr 5.966410313218975 15.466282148055125 9.221991435731763
