48
Energy = -57.99099794 eV
Sr 5.975900118764499 11.04230404618372 6.947495387623589
Sr 5.304783741194604 10.82130850101867 10.770683511512912
Sr 7.8774833652453315 13.431581165938496 9.184117183830386
Sr 5.3291392942131 7.254627140079464 8.109297333184907
Sr 9.725265903777348 11.603197123044232 6.354776278829225
Sr 8.025352265693032 7.779198591162182 5.791291188246518
Sr 11.328874974067311 15.215592786760483 7.411360792733917
Sr 9.332843158218258 16.861630570942033 10.768289653901423
Sr 8.147218718278728 9.447691690192437 9.046966302906315
Sr 6.904124560338578 14.305389181452393 13.052608975231932
Sr 12.849085409130973 18.21027700749488 8.88484839402603
Sr 6.686925845566955 6.715389421180303 11.992882873181191
Sr 13.960337085758816 11.896069876379482 6.5831805194804645
Sr 11.939401572499293 11.841521025312693 9.514683310522226
Sr 8.877118730726865 5.9441405179377265 8.88729921313238
Sr 12.162713678860746 18.816427898935338 12.862708061810938
Sr 11.71213120206319 8.28987801322162 7.46718303995011
Sr 15.547152414832485 15.43474792426602 8.227741622088345
Sr 10.29055091595791 16.003491476847653 14.695861777711096
Sr 6.904124560338581 10.093917614565873 14.342445579976465
Sr 13.107093307222952 15.594749854680115 11.518125882092336
Sr 8.210732439023259 13.125773198984737 16.828361103552478
Sr 9.937702377400186 12.375228198618435 12.814176750364853
Sr 9.973799555788778 8.064915558000724 12.203753920745772
Sr 16.10846816592647 17.824715357233817 11.416555467242624
Sr 9.707013289900884 4.44463015813226 12.627502058095043
Sr 14.240507786902318 16.87843765105159 15.456352947342335
Sr 9.99365704821464 11.504477466673212 19.807253254025643
Sr 10.911982651578853 10.119378301347801 16.18983202598743
Sr 13.566446840272523 9.541394105312238 12.45378955068493
Sr 8.583569186279437 6.501828818195668 15.728244350263127
Sr 13.685291098885306 12.907541719565815 14.461513404832301
Sr 15.928035090088201 12.295420244484834 10.612722875769398
Sr 12.09264944803137 14.190375409733543 17.984519066375107
Sr 17.9545717821916 12.00245887742854 7.06726326857691
Sr 13.025573947668212 6.2606103240684625 10.610059564684157
Sr 7.378431005289903 9.234819074934242 18.454758347744658
Sr 15.555950685164948 8.793889779269696 8.787862914527052
Sr 17.031739882652822 15.01399589008897 13.390732669042803
Sr 12.64500705564143 6.271109710760801 14.802452832986084
Sr 18.76782017171641 14.369856353590245 10.182092793331014
Sr 13.860146963962707 10.897467995601279 19.161997563089475
Sr 16.29671299825762 13.39290479074825 17.345832503682338
Sr 15.08997607239576 9.185586769960981 16.3077953058179
Sr 11.40778383628272 7.499964864450579 18.454758347744658
Sr 16.68979782953984 7.252297547669594 12.691806883040924
Sr 17.779751163096268 11.163435555617628 14.003339691293432
Sr 18.73831349195834 9.980043771623418 10.398815206274941
