43
Energy = -50.94459046 eV
Sr 12.921156775402466 9.498269545660198 18.032409040943392
Sr 9.644838542130387 10.526470854914653 17.071655225686076
Sr 12.732542040858778 13.191837394057776 17.713572510904626
Sr 7.451501492011988 7.486750056813767 15.136508904866279
Sr 8.951256432817637 14.434873839433745 15.710352591759051
Sr 6.755330973909903 11.512838516382615 14.4124636398469
Sr 15.882361437881912 7.23716015682603 17.95140376713736
Sr 11.791213740776668 6.810710062974127 15.845856701972568
Sr 16.68082597313709 11.387468945743485 18.032409040943392
Sr 6.4932385475915995 15.564919198799846 12.888992371478706
Sr 12.379144054672965 16.865737482050722 15.778358589312578
Sr 12.209874820167984 13.412493341471956 13.590416034277009
Sr 14.358701840037297 9.881525055605904 14.977143971341533
Sr 9.250841266370175 5.942257376465205 11.638322553777748
Sr 10.305070439903366 9.670308295192097 13.301494264151156
Sr 5.2177901449359165 12.64384262205847 10.360626562760562
Sr 9.988435317220961 16.66944651711409 12.269603104941272
Sr 7.185404491036231 9.073265162040455 11.13885765726469
Sr 15.842924306120343 14.381628938051787 15.319972816663824
Sr 15.79967454693742 5.942257376465206 14.360856385762661
Sr 8.659422426030797 12.807887769317766 11.458073733027033
Sr 18.27737964421153 16.217904917638727 12.691786370670082
Sr 14.218616064459402 16.678876431578196 12.127907172729415
Sr 18.74610816502241 12.98040445693695 15.030699738672837
Sr 18.44228034988494 8.912320277239173 15.153371633121644
Sr 13.129801442584876 7.053303353929648 11.691119256710197
Sr 7.667267268929272 7.1104733083993175 7.6853472967322505
Sr 10.677689809003898 9.376309649707931 9.338530843897672
Sr 17.426212395673677 12.007900345996793 12.481806565733626
Sr 7.634633642780951 11.309895856358525 7.610998738366177
Sr 14.105705055647814 11.015992337971614 10.712380282273758
Sr 7.7341316618946125 15.430667737295455 8.690557929766895
Sr 11.384010078396267 5.940996188156273 8.016370753315886
Sr 19.1062744042563 13.69475666499843 10.381839265573607
Sr 11.859020533789549 14.285250381465582 9.347216712825293
Sr 16.22100690765096 14.43326288944863 9.42384799463821
Sr 10.815624659506893 9.207090844741067 5.887268123490806
Sr 19.447737449235223 9.930360034576543 11.841686772759022
Sr 14.534292106742258 8.104800150003687 7.870846537062772
Sr 17.03410618672115 8.004220559844464 11.38824532281834
Sr 10.335010255660384 13.551063714521579 5.954112764279962
Sr 13.977257358359207 11.95471529204546 6.681328695101257
Sr 17.818761712936695 10.779180709412316 8.54769584527482
