49
Energy = -59.73283374 eV
Sr 14.47291406648927 9.715797445909255 17.80683770313378
Sr 13.912498749009389 16.153364997214908 15.606613683217487
Sr 17.933661668676038 15.655496777001783 14.40657654284059
Sr 15.487016859390566 12.341334715653613 15.653198721764237
Sr 11.798914583251742 12.633738071134463 17.41045894699977
Sr 16.98736067076291 8.347193311653957 15.269735632245402
Sr 13.5839548197789 6.976453513727936 17.640560044885426
Sr 18.421905051172864 11.740230370269183 12.756670304389774
Sr 12.449634825322619 18.900189898694762 14.710274085456176
Sr 9.913324427355626 16.565338324049467 16.06218244047467
Sr 10.111158264471852 8.768000806207217 17.80683770313378
Sr 15.452863085883402 18.378944404273142 12.18725853321536
Sr 18.285569617018773 15.260929181539925 10.193252593642006
Sr 13.21394021896601 8.842703532035156 15.27896115568873
Sr 11.266829694011168 13.356271294330885 13.539606809435199
Sr 14.890079300466235 14.489876975734521 12.061799883682292
Sr 14.653824096871622 10.612013601741742 12.025607655487375
Sr 14.57590277068617 6.367689916089312 13.557581052143966
Sr 7.837625342984391 12.609411570062171 15.998586655805214
Sr 8.65160519834925 18.665890543519907 13.246387480979218
Sr 12.060253361343854 19.2395680926387 10.287001593379944
Sr 10.324617781301992 7.060769363795323 14.660804005260703
Sr 11.413688957840169 17.024697580700277 12.159580273675521
Sr 7.361737380997516 15.69689097155223 12.991297560875667
Sr 15.585160839627282 17.66881860269222 8.055945402094709
Sr 17.807175877111383 11.262605871770955 8.718888105127032
Sr 14.584643642778788 13.592439835521425 8.2828758108889
Sr 11.749016265692035 16.664387642699193 7.854919671759819
Sr 16.96107355116354 7.609081891313902 11.02686977719913
Sr 12.238811877080645 7.428123958923313 11.388375786824723
Sr 8.14737145041251 17.931751874665483 9.469877988693673
Sr 9.462656527963624 14.238789647784573 9.751273649985592
Sr 5.284070578407057 12.843901346728252 13.690844561707957
Sr 11.057068679520224 10.851837575581412 10.12102204726718
Sr 17.867747662323918 14.671188214090687 7.230855867647877
Sr 7.310404705233209 8.93509891192391 14.580377069070956
Sr 14.310252403889361 9.221927032105986 8.204285295834303
Sr 7.396216078199115 11.77178514789298 11.976270195396594
Sr 6.5558956084763755 14.261263996928273 9.564616950490793
Sr 14.139282352216869 6.156744755315351 9.034003306131808
Sr 9.947456942420942 9.765606371871112 13.939038834061902
Sr 13.966651283576127 15.363028449989368 5.843372073589534
Sr 11.362719618261371 12.241361682735095 7.4709097131227145
Sr 8.141838434216645 15.0689338093865 7.34433006481496
Sr 15.490616243272273 11.468487976279704 6.125974076315884
Sr 5.436568527743089 9.988067500600483 10.599454724247629
Sr 10.617780326855714 7.7675776826274525 7.470909713122714
Sr 7.567631362934111 11.003178463807995 7.9160416850112325
Sr 8.072448449877067 7.836999490940674 10.90942265873944
