46
Energy = -56.29778744 eV
Sr 11.488212934835943 6.17717445861077 6.5469909605008425
Sr 11.052500440191546 8.10690505644135 9.777838025237996
Sr 14.622851454216699 6.611102685623114 10.606234633854166
Sr 7.49471910974937 7.736804483998428 7.320714228046233
Sr 14.385548856588425 8.863052166240934 6.961413827200746
Sr 14.437470499785098 6.522019441732977 15.41679505457644
Sr 10.629513929455765 10.09297662336666 6.137388269589272
Sr 10.570818753041655 6.757017947555101 13.557419514959488
Sr 16.46960289536728 10.09429693469479 9.934526278642581
Sr 7.010346786922898 7.925039122661925 11.538707881858105
Sr 17.55644934359088 8.327646053269927 13.455429677780767
Sr 13.648380647352093 9.192586656891422 13.087652973440926
Sr 7.010346786922895 11.780142052679768 5.862214953061401
Sr 8.322493756785738 11.030394776862371 9.442248900736953
Sr 12.687750962718749 11.874040298263212 10.032055637687158
Sr 4.801015455241363 10.36360429903563 9.143688536710332
Sr 7.22007476174617 8.921957253916776 15.602009601762889
Sr 17.911323316161862 12.491171210770654 6.720733702502979
Sr 13.7663666573862 13.085726050957096 6.210286220544841
Sr 11.316430777321548 9.17338754305082 16.602613150975863
Sr 15.383998128444208 10.243196859649004 16.702510821288392
Sr 9.802448980390896 10.362384384613636 13.027516652214562
Sr 16.318054980727165 12.318417572099117 13.328098488909175
Sr 12.503160590608479 12.62568432840738 14.812412033043643
Sr 9.801216120525009 13.916982676906782 7.3659421636932345
Sr 18.563596631667462 12.58226525708173 10.834172234748694
Sr 16.127777038520367 14.239249621836107 9.671099821297158
Sr 9.917209322813102 14.36574084525885 11.711928626957379
Sr 15.70712150058253 16.811436008842872 6.429088633547931
Sr 11.430156926735588 16.82308756440844 5.529375270355031
Sr 6.487420427253135 12.098482412834114 12.722033667860368
Sr 15.314260472857521 14.982799134390417 16.40106534788907
Sr 13.915941225974837 15.53559789017288 12.666081310317983
Sr 18.233634332542657 16.31304953023736 8.779265700784055
Sr 12.645788953354081 16.086822197107402 8.930196012928326
Sr 17.93872830390727 16.111164127179293 12.96825676046723
Sr 8.646195974464874 13.069905027290037 15.87359623100137
Sr 6.529446575413071 14.476376430106924 9.248093039325884
Sr 7.108712058103636 16.04857710782638 5.6417842769117
Sr 11.179932998470964 16.464206000441244 15.482028890064381
Sr 15.679879076853616 18.400027617594073 10.36847769955189
Sr 12.581657413088534 18.811762748313416 7.858100999958605
Sr 7.258664889171229 16.627505696859284 13.204982707113151
Sr 14.81654494967638 18.811762748313416 14.611005476945381
Sr 11.434405636397486 18.61894949731339 11.909024133360907
Sr 8.889477889056517 17.635574448461835 8.789674667656111
