42
Energy = -50.4482284 eV
Sr 19.183382793040643 7.315406899460222 8.973385505465018
Sr 19.88133676339485 9.015895156450103 12.405935981516269
Sr 19.810615191338186 11.229280199420272 8.821941092372732
Sr 17.55374287421311 7.039130093387806 12.835881556352552
Sr 15.773054285161404 5.328199549795722 9.744928688978206
Sr 14.794092315438096 9.993508906313233 13.491821884188413
Sr 15.92055250856037 6.6918216590851705 6.1026345124556665
Sr 17.41197710203856 10.703074507996988 6.941633910532329
Sr 19.183382793040643 13.290273156148396 12.454221733444134
Sr 18.441677841971988 10.843785165438325 15.056341548947156
Sr 15.311310548558113 8.28393991866569 9.62593243202118
Sr 10.00224881959264 9.778713651705948 13.989313295320107
Sr 12.829113681510162 6.519701925019469 12.455387642687795
Sr 18.171573305440795 10.694390341024052 11.04770366816076
Sr 14.879907540437758 13.18443289766617 16.388960737326773
Sr 18.15972145124126 14.299184624579695 9.029376047376557
Sr 12.478702443563176 9.937762467165436 17.032279595007072
Sr 12.02811507663037 6.358182310842626 8.155309779493805
Sr 12.447247079362235 12.880193109804658 12.951904512125955
Sr 13.241797915550661 10.063629472127124 6.479904317567787
Sr 14.668804132471271 14.1837998092396 6.286409702381346
Sr 8.564408243065463 7.338993339319017 10.835238583150892
Sr 16.477654676411294 14.092252761195336 12.840546594100907
Sr 8.087478670194207 10.621225124059935 17.378986669238547
Sr 14.738796898550119 12.22849756996231 9.679798685706727
Sr 11.702731440510687 9.750424438803908 10.31673091091425
Sr 10.69910215204817 13.706100821886283 16.399408006954747
Sr 8.143121348992914 11.532290325885048 10.892024596587314
Sr 8.964979174705759 9.625266184169833 7.301101688733136
Sr 6.704256347344316 9.55212663817261 13.508763111772272
Sr 6.006433688114455 9.511185458416124 9.205192236642889
Sr 12.982533747114097 16.62202902944151 14.282768582390863
Sr 11.001358706424755 13.204901318338528 8.27177858568108
Sr 13.560601508387164 16.11330626588467 10.064867580574282
Sr 9.877383929016503 15.234577393261421 11.71525494972089
Sr 8.087478670194205 13.424411968093283 14.316890063817576
Sr 8.79295033437451 17.250062447745385 14.970630129824086
Sr 7.623623689829354 13.66876097007492 7.997293966487514
Sr 5.056937721442567 12.92410814618371 11.34541780919869
Sr 10.547979157501242 17.5054684983518 11.647196371102742
Sr 9.561171342231516 17.032355046243072 8.151825232180151
Sr 7.273678793590397 16.664840180778196 11.218766450817727
