42
Energy = -50.14752312 eV
Sr 6.416586345312938 16.784817671134903 8.852919947963452
Sr 5.413468374460948 12.695924944862067 10.075176371633653
Sr 5.708065028543927 15.850486994363049 12.952501715305319
Sr 8.110657018633972 13.637284277211792 7.002791590722101
Sr 8.592023557321218 18.43311995371109 11.843238176223208
Sr 10.5225966091338 16.786890326985056 8.258115317094536
Sr 7.070512102975796 11.913353133277447 13.738598099525271
Sr 6.234156040524079 8.289570805382173 12.18102387306723
Sr 8.556833171880116 10.586428961186334 9.749616331948594
Sr 8.463249891289678 14.523829199936989 10.951223434909556
Sr 9.076810049897338 15.27772181491667 14.987375751495193
Sr 11.213138594003746 11.257503792051624 5.975061494040268
Sr 12.718343849502451 19.434284274799573 10.262263089461952
Sr 10.894342771735166 15.434692978853585 4.83357103519749
Sr 8.928959026253276 6.645835272096303 10.145385558122555
Sr 13.131649557181454 14.454935976625883 15.816886259998055
Sr 7.173001644952867 8.474012588707946 16.288456785635574
Sr 8.551683814494755 5.55657899284434 14.082499456245513
Sr 9.696577706795429 8.799161625181009 13.245016025493122
Sr 11.897082024954331 16.148569920700123 12.155177732666509
Sr 12.324558740838025 12.90690419191774 9.022169761329206
Sr 10.209178853462095 11.384799286827748 16.613816324155994
Sr 11.254827666179448 12.274110186909406 12.850324573044547
Sr 11.924081582756092 8.639753733716782 8.927317881970549
Sr 13.904977895400979 18.28331299958045 6.171709634608563
Sr 15.377997635214555 17.83229484278222 13.145364028797909
Sr 14.82584011519188 16.249030116176947 9.382089746553643
Sr 14.513263113218372 14.06176592577597 6.171709634608561
Sr 12.73671938866348 6.861654030450349 12.487568925247343
Sr 16.900045584815718 19.345537993864028 9.514548392797185
Sr 15.030471314307817 9.89726162953421 10.912817162627748
Sr 15.09461102516695 13.665914625707465 12.407343807117622
Sr 11.334659748125546 7.633873516515154 16.524128167402317
Sr 14.109560076728279 10.142346021061613 14.842791770235657
Sr 15.166036755188458 9.922718468116644 6.814039534738645
Sr 17.879698142783916 16.444411871801346 6.879442355375157
Sr 15.333986327661213 6.660232144793051 9.170868125474344
Sr 17.089389193282226 12.788960992342947 8.91077423140684
Sr 18.249106472645853 15.875775399644212 11.164252771755146
Sr 16.932470386769065 7.574679778230384 13.06578637153841
Sr 18.249106472645853 11.269578801679787 12.843775817051204
Sr 18.327835789222483 8.808101799595274 9.405567552476448
