40
Energy = -46.91536485 eV
Sr 13.396758737758091 8.93167019574906 5.880318242387498
Sr 14.015358439785297 12.842981549628787 6.575292156435294
Sr 10.321599028553834 11.444765385336646 5.650015410092432
Sr 16.479773679466362 9.634256897000553 7.296729849597619
Sr 10.307283480466074 14.513848362186053 7.26318409240517
Sr 13.603161174120304 16.55839904127348 9.112494580423405
Sr 16.632253138191544 13.055620250967623 9.977611019377223
Sr 13.694595034579178 6.480448202299054 7.817562742166927
Sr 9.491246154315157 7.441776776172733 6.657081836651586
Sr 11.316131789248288 10.358320723605479 8.293480938509173
Sr 7.308259707496269 11.470170266003054 7.176907111338432
Sr 9.324006331656554 17.670609993713676 9.91721869728203
Sr 14.434660242020215 9.285043980561948 10.745172402893084
Sr 6.2186802383994975 15.376121462295778 8.297380939171484
Sr 12.844510902917468 13.133590335302241 10.65882309024292
Sr 14.837763711166392 15.783407904936716 13.118428170130635
Sr 12.546629924241232 18.130079667359333 12.171960908562125
Sr 8.74431176489207 13.237337811221112 10.594816332041404
Sr 10.982053763718964 6.961257152639525 10.861119706364256
Sr 7.792436274347724 9.318495831763256 10.534134305044757
Sr 10.338678660557875 5.395084465114511 14.100328402890744
Sr 15.229379674318785 11.574074254910746 13.89770935307707
Sr 13.197134287791622 7.354933892480709 14.363901249199296
Sr 10.779271474283933 15.784793600842582 12.999250163804536
Sr 7.202972027781123 6.480448202299054 11.419758608947202
Sr 8.66373206540462 7.868430851178989 14.173541942001707
Sr 6.008354751910866 12.212763510582628 10.691641016532166
Sr 6.493707507346224 15.826329991848084 12.561523446535315
Sr 8.769643930557738 17.87935522467669 14.015062645553408
Sr 13.479595833527746 9.936705607011236 17.463453210425484
Sr 12.212331654880808 17.879355224676683 16.058802408611122
Sr 12.525816861660365 13.751664509549602 16.04120167755277
Sr 11.191319240429065 10.734952948234945 13.2948502447535
Sr 10.286592413054176 6.916106329937082 17.568873783654702
Sr 6.503561062972463 6.182610248799643 15.65017159897615
Sr 8.615383694219073 15.31902500586885 16.334502820468607
Sr 7.119877259153507 11.834545156897526 14.108150452872058
Sr 5.9619656222334445 8.355627071413913 13.246482489515346
Sr 9.668980169576594 11.078559485729429 17.231535777418173
Sr 6.243786696718006 8.840613146478459 17.20043270048881
