45
Energy = -54.0119668 eV
Sr 13.84729680141359 6.648904016968706 7.37601131875086
Sr 9.83925900463659 8.033765542883227 7.134674662877405
Sr 13.026053213685424 9.39342784720499 4.867104959369512
Sr 17.427333725239738 6.209313921925953 9.485100231235984
Sr 7.4838047240026935 6.9191951735243835 10.470213333071799
Sr 16.60094084334783 9.455896905950187 7.134674662877402
Sr 11.58019230955419 7.048628829722037 10.690180657826664
Sr 14.625757183738074 6.343354220280646 13.374819042024768
Sr 10.060357960626453 5.789176992463798 14.154262444793654
Sr 18.632531927695563 7.427909039845553 13.067541727180737
Sr 5.886420805174545 6.5025213482870665 14.303119293946068
Sr 10.143591635427615 11.982777440421536 6.547501218990267
Sr 9.579903635137411 10.810374805921771 10.332070616126666
Sr 13.09966649793482 10.264964374621405 8.597553021103284
Sr 19.418676242278256 9.580389012058767 9.551965042184063
Sr 14.266393550835987 13.164271416399238 6.239870634400009
Sr 8.057389623105278 7.38116308706737 17.41043482878329
Sr 6.598359476417753 10.508513156307782 8.187644612902774
Sr 16.133450024911106 9.466865697871864 15.292021740640559
Sr 4.811663262481651 9.451074756335052 11.889912320045003
Sr 15.961247592675004 9.229104254533365 11.128876298414092
Sr 8.333329784864636 9.055031875569583 13.704907636104902
Sr 16.601920412369783 12.939484264069064 9.423237745851498
Sr 11.96793893258865 14.15852572237114 9.562014487808202
Sr 5.686159886127178 10.548597155177742 15.908918680575336
Sr 12.327954201704738 7.8084202782137275 16.925412350161846
Sr 11.20068948206909 15.912250226358447 6.060006437664457
Sr 12.336641703586055 9.759648856915518 13.518375029242252
Sr 18.463257781513537 11.73600014460414 12.898820869604869
Sr 14.790447780480594 12.903593939936684 13.11645446193388
Sr 7.076052610009518 12.792121315454443 12.422440450007342
Sr 7.999414477050804 14.557573227359633 8.587446235723432
Sr 14.76534058232747 16.742329715428586 8.413791331943125
Sr 10.936521252689092 13.818293228348404 14.196456951573113
Sr 8.709529341071566 16.454460048669212 12.154450012090635
Sr 17.42487110167956 13.403219974128248 16.328645886590884
Sr 9.481720802758819 11.181195702215824 16.917551273172844
Sr 7.41666916549338 14.794734470461352 16.003377860086406
Sr 13.504306002128953 11.967996082098427 17.0233445140373
Sr 17.208949839711465 15.889541650874174 12.59111958912801
Sr 10.708033327204348 17.80501020553073 9.07026353458934
Sr 13.055756834176739 16.931304739494365 12.256105475626532
Sr 14.244057488860996 15.935144537098244 15.993974620042234
Sr 10.517306060311046 17.805010205530728 15.545988528955572
Sr 10.890530436247657 14.862893055878498 18.358579423246603
