49
Energy = -58.38055437 eV
Sr 19.01299618187346 8.976137592676144 8.36262077555629
Sr 19.022642387519642 12.241363429964588 6.570489854146966
Sr 15.909053010993858 10.486135612134373 6.38465023748783
Sr 20.312531950212197 12.349882181029944 10.15816580919766
Sr 15.075047157314847 8.773401488485526 9.541268541183376
Sr 17.86492036448722 9.916468138849284 12.320249073451087
Sr 12.694484172169181 8.058559865413304 6.926751409875334
Sr 16.004567917015383 14.547268673723558 6.469624577635781
Sr 12.944732965583956 5.761572374027022 9.315611171032101
Sr 17.033515976189264 12.522246288738222 9.262503762143753
Sr 19.01299618187346 15.755644746262982 7.944057287912204
Sr 12.280861157032172 12.606820192121756 5.192474577717841
Sr 13.855275669202822 7.071777676410555 13.08345049803117
Sr 9.323937524554594 9.926589236872323 6.638543253616214
Sr 19.654448870283133 12.638271305937533 14.36525861867403
Sr 13.653086551379223 11.062398921397358 12.765632055615844
Sr 12.870368730458972 12.05676460201944 8.450574473112054
Sr 8.976220083860387 6.720467343766196 7.910758687908446
Sr 10.863736865381304 8.776320756697185 10.101087524848758
Sr 16.010448410179613 16.47699580833458 9.703703654863972
Sr 12.46799663576114 16.088517693688313 7.5106511863291505
Sr 16.989357256672328 10.99247460613398 16.18644864047169
Sr 19.024003270123327 15.944190744778446 12.042740469626995
Sr 9.9488825961045 5.843216813223311 12.15141130327757
Sr 11.326349386098842 6.05882853800351 15.991562219708875
Sr 10.136687821217773 8.978924597123804 14.075321161057914
Sr 16.396996554903325 13.930524064432541 13.280773178423873
Sr 8.959293365407685 13.69214454724373 7.365180733286847
Sr 16.435231920652342 18.103253300394268 13.39091907073616
Sr 7.342155815433682 10.473551453973899 9.088999073174165
Sr 17.789482465100953 15.497956737608384 16.484067661758395
Sr 7.117477111281101 7.087719692528598 11.240723072909569
Sr 13.141265435858116 9.387756668335623 16.733830083457086
Sr 9.228923886501038 16.82978610798333 9.799853975759872
Sr 12.655989984694388 18.154628485155627 11.384101685255944
Sr 9.479625139553145 12.63352300301437 11.357326817894425
Sr 10.801193127540587 12.911320430536076 15.137096482073414
Sr 7.767443455561968 6.861830864952675 15.43394364204169
Sr 9.744219349660877 7.943204696109836 18.105852423033358
Sr 12.73404358412048 14.916232784072752 11.600329313734544
Sr 14.142491820108466 13.490215042900212 17.311760573589588
Sr 13.25880164023616 16.755910038139422 15.345921464015237
Sr 6.569493321402353 14.328568397715815 10.750450693915814
Sr 6.962419486830909 10.61598272222786 13.21605104126687
Sr 11.11038392374837 11.753536174036471 18.772047754891258
Sr 7.767443455561968 11.032396975852485 17.1341474885598
Sr 9.635144873932699 16.7017311291839 13.682270516612867
Sr 9.852844017823982 15.4544408009621 17.801149374274402
Sr 7.38112622402398 14.306289061119049 14.899547851762382
