46
Energy = -54.96333021 eV
Sr 18.497935554154516 7.945762370368634 14.356390121309275
Sr 14.88686771280317 7.35628604776051 16.085104046119024
Sr 16.57144209836512 5.126037762429023 12.83666094882154
Sr 18.3636828828587 7.380466289818254 10.235528215262129
Sr 15.410702668618244 10.856295293656025 15.344714401111657
Sr 12.080655637095644 6.070403023934533 12.843440661885372
Sr 17.419453564944657 11.233018767583783 11.746953571375226
Sr 11.653711394207702 9.10331171369996 14.802250232011984
Sr 15.001609612764446 8.081995397400167 12.484339253961519
Sr 14.34224397491733 6.19493016471056 9.367756264763841
Sr 15.255058608679361 9.423085706896542 8.68216873079602
Sr 15.035260924754738 13.542815138448134 9.229737158317853
Sr 18.612472826240552 11.637765303597496 7.879683150566765
Sr 15.887311065764905 14.572023993109868 13.536039483044934
Sr 8.447153044782986 7.7314298241095285 12.542644923256184
Sr 9.670768149816267 6.323555373356146 8.989791762139983
Sr 11.932695408965108 13.440981112002554 15.792863307599706
Sr 12.399292316732234 7.6595135741505915 6.32394992604939
Sr 8.116552561004104 11.377976055533239 14.767056675280264
Sr 15.32960627818264 11.772610808499998 5.340870887748957
Sr 11.672883918957481 8.633062472784083 10.28654106050116
Sr 18.537168223306335 15.207983798658638 10.352976435559556
Sr 12.567336493545875 16.614211529341734 12.989693649567892
Sr 12.590145338756727 12.152365118838786 12.155937078215354
Sr 8.40822175658044 11.631827829951517 10.671570265980199
Sr 5.587347102281355 9.621463248771688 12.531413817420987
Sr 16.489635274623723 18.613717932408637 12.3615144975974
Sr 11.954082299283932 11.557520735866126 7.611089943105019
Sr 8.884920884860426 14.976331992870854 13.119441874629064
Sr 10.892165587150638 14.930280282868734 9.563454308288103
Sr 8.632527720008868 9.322193226213274 7.369227140962601
Sr 6.483303528833422 7.356286047760512 9.404156697994267
Sr 5.750687410508447 13.555832924518885 12.436310323813592
Sr 18.111050938559682 18.894330731961492 8.488099159017668
Sr 17.055414741371404 15.570471575813965 6.370492831562731
Sr 13.808538569611962 17.846308601954682 9.365160121932657
Sr 7.643963029193417 15.557946916176085 9.370029472239704
Sr 5.778448908731405 11.632893342166785 8.584650602271267
Sr 12.772620985319401 20.314284076729873 12.473343991792012
Sr 8.734135960757063 13.57092430550032 6.40347239512802
Sr 15.493974858555067 21.256742256755878 9.578535276512556
Sr 12.960758440232349 15.301277528834984 5.98356294723125
Sr 9.548711422371634 18.578917639999368 10.901751191940933
Sr 14.62366406030428 18.894330731961492 5.932314957538575
Sr 9.955133966726937 17.882316174064986 6.949892887392496
Sr 11.606814290852844 20.917187345257755 8.48883171153535
