40
Energy = -46.98923345 eV
Sr 9.657584638869189 19.114445683551477 16.137298396996318
Sr 7.931787183485754 17.943344342931933 12.422458714756505
Sr 12.111174852659245 18.684308040956594 12.612070533563658
Sr 6.7937840994224326 16.38651712876481 16.175390340457888
Sr 13.555826307946024 17.943344342931933 16.3450982271176
Sr 10.284956822609372 16.211313837322553 17.890158400939242
Sr 10.501509619206882 16.228863855877517 14.516783172950674
Sr 10.580702448187832 15.768269216589344 10.47324135204096
Sr 7.173551602264097 14.135849234107983 8.658224980034628
Sr 7.246232127828357 14.563215471451738 12.679700897030063
Sr 14.284265602823247 15.412457917165508 12.78319268498329
Sr 10.686741821027487 14.929206595711678 7.263970324793131
Sr 9.013684128181252 12.673066660000462 16.009924322946382
Sr 13.035257411279403 13.776075093988073 16.505556711930744
Sr 6.004100277066469 11.70434251490229 14.89161475148548
Sr 4.939558609096146 12.279062190915399 10.955928179523143
Sr 13.58809650831156 13.24480310422845 8.859317024304067
Sr 8.066765465258934 12.247582547205525 5.767390328140628
Sr 11.565085147078957 12.415226372255088 12.730915402159988
Sr 10.082719208122224 11.228062119622205 8.477960377512293
Sr 7.855561830294026 10.872276572285896 11.795787047668789
Sr 8.021696171775222 8.520453201130241 15.294970173790002
Sr 12.113501495734862 9.700336007577295 16.027804723088956
Sr 6.0292300867870985 8.143971888175505 12.028489142472026
Sr 15.589552673647292 11.430143502319924 14.293065232266626
Sr 6.1143371318682735 10.075449578768632 8.05012523209726
Sr 17.156413299981818 12.900413437349375 10.733485074783305
Sr 12.418315967244068 11.2378990825963 6.040606603429474
Sr 9.218672588592206 8.428483792820257 6.305937842834738
Sr 14.2783232232206 9.870582374798955 10.927519329873752
Sr 10.90067834693207 8.284480196535968 12.456836092783135
Sr 11.28583289769685 6.4220529286271315 15.41322133024109
Sr 8.143412820389964 5.94918129061499 12.873373107117132
Sr 8.666593422511584 7.190448325237572 9.42587940895925
Sr 16.25073308936833 10.08056465890212 7.577143358797806
Sr 17.506259726609134 9.058863652037587 11.732997180006008
Sr 12.516629751702212 7.941579891663445 7.953608646077201
Sr 14.78652990302435 7.1390167545965175 13.741320902346699
Sr 15.882407250459305 7.139016754596514 9.680201565272997
Sr 12.111316917992442 5.70481393632082 11.110376507432738
