42
Energy = -50.16146297 eV
Sr 6.60044398395932 6.738547893214397 13.848154045314278
Sr 6.7703353657638825 10.907737523514275 15.436679292030343
Sr 8.723925852182031 7.6238142581728825 17.220069625980035
Sr 6.509727732356494 10.137419473658793 11.384723836653732
Sr 8.86557926422452 6.680996533179305 10.283084911067416
Sr 10.598577265626512 5.238384499565007 13.861584203769802
Sr 5.657931597550057 14.244438924976025 13.037981682079764
Sr 8.621253850322988 15.288278494298705 15.78309821511591
Sr 9.783321076597007 8.899341522168523 13.55935341871806
Sr 10.147804754207561 10.489231944350252 9.654555653678598
Sr 10.54949680280914 11.629968961052866 16.582980267230738
Sr 12.716232571305609 5.302329571307637 9.462265940242325
Sr 12.749781354585785 8.09087527528571 16.46036734496245
Sr 10.897537895277042 8.002818937684518 6.708390866082883
Sr 11.284296441837572 14.109740858014296 9.659184123163405
Sr 13.916005510114642 8.93374259389644 9.60153854329023
Sr 9.191889110130631 12.737538132512938 12.811060396606845
Sr 9.020952330336922 16.68679787520108 11.925061680869813
Sr 14.468518013902413 6.720761794664946 12.946637075511015
Sr 7.286361584446375 13.748653580049913 9.321380605223347
Sr 12.730247564070993 14.521817599198144 14.021149517880605
Sr 11.974325041109598 15.3443610524951 17.597636341634296
Sr 14.504957540315928 12.11421091540917 17.311158255953426
Sr 16.708126053961426 9.054744788454146 15.650690114147707
Sr 16.937090258597816 6.4260884037224635 9.576269194187997
Sr 14.894604508316824 7.253501393006643 6.243829118230741
Sr 9.76655300888492 12.915171743643644 6.224434517681194
Sr 9.443798845040204 16.970419048996813 7.665865890492627
Sr 12.797564212626664 17.666252717310122 10.35777669487676
Sr 13.468565037679882 10.712363122581188 13.319398465764507
Sr 15.066659510264682 13.312718979534177 10.075094080784043
Sr 13.533737354053574 11.440688800738224 6.708390866082887
Sr 12.177860223828725 17.666252717310122 14.799248300145715
Sr 17.325984480421358 9.817141481061084 11.743698809777587
Sr 15.61431888057457 16.12658970348694 16.634625292158436
Sr 13.260977733182953 15.643003352487678 6.650763613290909
Sr 16.90299501001099 13.058511535571421 14.11543978374302
Sr 17.39340280919719 10.218640777041681 7.8138778951124666
Sr 16.577494487394112 17.163681127629907 8.56597399931764
Sr 18.310607665293492 13.839537126851646 10.233791838206601
Sr 16.094598285063253 16.738618466994506 12.603260099444165
Sr 17.020921933786575 13.946771510616692 6.360388409767954
