44
Energy = -52.86621583 eV
Sr 15.085147800996099 5.898770305996748 10.544711965320158
Sr 13.686939472993975 6.635536466688608 14.33592701410007
Sr 17.813925330669605 8.450945214706667 9.951056818290436
Sr 17.813925330669605 7.1822091985064445 13.825705650964808
Sr 11.334179763077758 4.3683343856628065 11.61644390115703
Sr 7.964244622802558 6.596215465465018 10.349771294482538
Sr 14.697083083392979 8.931853233171925 8.025759160513392
Sr 9.605171312154335 6.795749307258657 14.51737872821439
Sr 18.022816732304893 11.354388637715589 13.237881243328243
Sr 11.642681341990041 10.295856292420074 14.2004648803882
Sr 11.253322943127422 6.206731154312852 7.6339709405281955
Sr 15.196143549964578 9.567675907437346 12.015130164253067
Sr 6.943658404361494 9.552170806670363 13.172489976787501
Sr 11.501376334876072 8.269272017868223 10.87034711329959
Sr 16.815990535072523 12.35535689416948 9.709477489647433
Sr 15.512865156819782 10.363546974218576 15.971424038764848
Sr 7.390705996334257 8.094763554548537 6.408515712441799
Sr 11.17907313364822 10.130623644303462 6.654809547913671
Sr 4.7221112827053755 8.617407833714987 9.675298544473854
Sr 14.62911190315669 12.70234273633544 6.362944212265766
Sr 12.134846403385446 8.476416290008924 17.710669862307597
Sr 8.127784883160157 10.53561425643098 9.102700153105875
Sr 8.26859866580362 12.405688570301493 5.2933659952000385
Sr 4.938395193287957 11.678209827864258 7.01658903935801
Sr 17.525217168898333 15.400486379720085 12.58965146160772
Sr 12.575230329227153 12.220241973474884 9.705553617112226
Sr 8.684812879825541 10.538178219718686 16.862433445010925
Sr 14.029024221842286 13.405735741837356 13.18600080223577
Sr 9.17274019692674 12.752859465410424 12.09288439276703
Sr 14.72098646891628 15.801834939461996 9.465291343872975
Sr 15.68417222905251 14.974196639775295 16.513169101232126
Sr 11.263439206679884 14.826687625158588 7.016589039358008
Sr 5.257104430519405 12.68844044254399 11.167809009916063
Sr 12.309221095379604 12.758620170883804 17.386448361525293
Sr 7.626662183776975 14.635993140298211 8.606803988230936
Sr 10.30156157865895 15.165871800003181 14.966765612073074
Sr 6.587768208771307 13.467292277506111 15.203199692719883
Sr 10.977439274374117 16.222863232969203 10.882623362531008
Sr 13.871845299050976 17.381670315372993 13.677033696305157
Sr 8.746040250951753 14.264679955601828 18.14382777414988
Sr 7.166832720992004 16.402425327761502 12.459530623836374
Sr 11.930624233809606 17.151615903435673 17.716811536467773
Sr 7.4175859532298 17.481160833345307 16.62166422490757
Sr 10.158398248791501 18.529482918109593 14.056162133686914
