45
Energy = -53.85393998 eV
Sr 10.350380705640976 19.140497228632555 8.00814857216912
Sr 13.648672146432354 19.14049722863255 10.472375838668784
Sr 12.898473670786393 16.553664089634893 7.15905943348692
Sr 9.922469856175335 19.805460725564583 12.033606364095018
Sr 16.77161217787418 18.463628540490742 12.982999674524121
Sr 12.66483210115182 18.92983834469653 14.607223860371949
Sr 8.787683234351158 16.363918872213397 6.653877745826474
Sr 6.954041827945105 18.321208570988848 10.126093867404009
Sr 16.23928513020075 15.774851514980394 9.621497520010012
Sr 10.530768064423718 16.645845175234896 10.562047661570443
Sr 13.893916086722527 15.526432753942062 13.074446531011478
Sr 15.663367739446688 16.83778195616336 16.56912453842239
Sr 11.245701970499125 14.145298572077603 5.042554178990999
Sr 8.795854251512685 16.999733682325104 14.155113527738393
Sr 14.933889245633562 12.860654220676519 6.37546724417864
Sr 17.685377964518445 14.45593862081307 13.478675213853949
Sr 5.81591603270472 15.486903445610386 7.856843489378888
Sr 11.710366443201744 15.114380044394943 16.528013120569884
Sr 17.026938769198022 11.69234986434998 10.263140504981205
Sr 7.192876501241193 12.602859654152802 6.225787237069696
Sr 12.927028543627497 13.185187767788278 9.6837316315565
Sr 8.531073275662106 13.082525326346316 9.132897241814604
Sr 11.081786810866774 10.875291790828438 6.661056704627529
Sr 18.185172945550317 10.509084427137857 14.242208384789802
Sr 14.243087293588701 11.229240068926998 13.119336034877936
Sr 10.840928796848543 9.726431332597404 10.675366752559672
Sr 5.298099421846387 11.736595867601087 9.036636735742684
Sr 10.326979539996263 13.202030168774794 12.98232150753893
Sr 6.954041827945106 14.565347958683507 11.987110237574026
Sr 15.403244859999814 12.81811567137067 16.63270533345597
Sr 7.7197534696818035 12.875858406414538 15.840999812874342
Sr 14.246309500904887 9.098714003367935 8.780410940386592
Sr 11.581345893678117 10.937916669517499 16.40856587369664
Sr 10.831624501617917 7.525263051193034 7.760795936045939
Sr 15.182171981089216 8.646902501549235 16.342298430755438
Sr 7.11439679728905 10.52701677249074 12.165959533474894
Sr 7.551743382040644 9.158913500669831 8.199249860576543
Sr 15.974958059909616 7.621602442221417 12.307419410100197
Sr 12.084203667827099 7.734871990841922 13.9326440839045
Sr 8.689619707191305 7.2575867745437055 11.476598198899033
Sr 8.457199226780048 8.360582463922434 15.396260846579583
Sr 12.691842284715024 5.97022281751507 11.082849691226592
Sr 11.716997340880143 7.532994379872572 17.732860023914988
Sr 14.386673409631943 5.5067472456881 15.05748569136555
Sr 10.24342118821145 5.069002339783362 14.657915816429785
