47
Energy = -56.42012059 eV
Sr 8.031957596750559 10.969420184805141 12.270378989983476
Sr 10.966187261667322 14.14258527241479 17.324585084340267
Sr 10.91081598027099 10.064825719780346 18.12661601281218
Sr 8.29369146023253 11.812357444708503 16.242456796349646
Sr 5.869089758833268 9.875641224066964 8.945409134597876
Sr 13.553965621060343 12.622096072106608 19.937184024456716
Sr 8.39228936419245 6.8883616927757 10.991354506834124
Sr 8.043799740957683 13.618031859718212 9.057708648565468
Sr 13.204483518187425 7.855942959432784 15.476599901807782
Sr 8.795655028531007 14.820933351444339 13.478074343814177
Sr 9.147086047942231 8.036841451678276 14.773201860425639
Sr 13.212072547304496 15.140773692611013 14.058137137739152
Sr 14.861456420737845 8.841125364126205 18.87921549368723
Sr 14.216067982614284 11.70257890188183 16.546288358593202
Sr 15.240414692283377 15.490181267728815 17.68186077152462
Sr 9.42101469560116 10.009177435915142 8.890368305432133
Sr 11.102759711477509 5.184154985413905 13.091235267661498
Sr 7.895866430236343 7.147248068172282 7.25058913443594
Sr 11.19030470908636 11.461563826209899 13.890684381341718
Sr 7.9669846993875515 11.086179358500067 6.113765306619052
Sr 11.41775572068883 14.130224843920434 10.412386971623635
Sr 17.61939213904993 12.173468557390654 18.292373243900535
Sr 12.117698837292538 7.972882686379901 11.407970596952563
Sr 17.388571051050803 9.062915169927305 15.919165579416289
Sr 13.998138915487658 4.561710008477088 10.120695995047873
Sr 10.705904219038931 6.211507733122013 8.391136617886458
Sr 15.65019278008379 14.084876238116115 11.028961847024815
Sr 19.468353879948804 15.66861447884895 17.15592485629198
Sr 20.30443610377287 11.765140979121634 15.316585985742112
Sr 10.997871763654572 12.955350850269236 6.961442892397539
Sr 16.843034911179505 17.330300347231137 13.946277419103737
Sr 11.208271527310103 8.892012832389298 6.113655520807152
Sr 13.566486497264306 11.117346636311678 8.969856429148196
Sr 15.834520089347363 6.211507733122013 12.919248085387336
Sr 13.988716016763481 17.330300347231137 10.805691836565185
Sr 17.269503134571025 13.423286986870824 14.731400942473304
Sr 17.860990610608884 6.143966456074907 9.43513148524764
Sr 14.349266818597318 15.180709370750211 7.431616538733242
Sr 14.441022451895956 7.273770896428173 7.686017443875391
Sr 20.13409079580934 15.652250463612006 13.22230765005211
Sr 19.369158774549955 8.451662739881995 12.375207271971938
Sr 15.420536081283453 10.318873917391556 12.628658194354275
Sr 14.96325196854381 11.09428202877776 5.940907900616114
Sr 18.140537447094193 16.842618110533497 9.89843153805593
Sr 17.388886524105917 9.625722849562706 8.940243380575025
Sr 17.88162733754179 13.352290000709782 7.5795385060656235
Sr 19.314073393775413 12.37051944283223 11.293396679772412
