47
Energy = -57.18704277 eV
Sr 18.09340960706023 15.196565860607532 12.922350057935299
Sr 15.730546766338417 16.89997895078622 9.635429851054147
Sr 15.37895914699045 18.082355547762848 14.113053742080156
Sr 16.800524954514625 12.966574623783206 9.301343120904907
Sr 19.02550485192154 12.4063506059057 16.644792044363307
Sr 16.078975767238564 14.657911015172864 16.427904297181872
Sr 17.36712900421303 11.244247958370236 13.418828261209208
Sr 12.171819033564596 17.29213353419445 11.62276457011867
Sr 14.798269577846044 14.302291018541128 12.673542799356381
Sr 11.446091311042462 17.36401215217597 7.786395485314211
Sr 12.809562083452798 14.02774447122515 9.3047448236258
Sr 16.497900211074885 12.15882589322575 19.043254345375708
Sr 13.979059654757188 10.702297475185391 11.115279858189163
Sr 12.232832600959744 15.828288444545578 15.408759396140706
Sr 13.879044183330864 11.015241241702228 15.549816956588385
Sr 16.92603891717591 8.826808019871029 16.95054778398609
Sr 8.682825099390758 19.24152732288711 10.563309740565066
Sr 13.200787710683628 10.79144919523359 7.2599346343151465
Sr 12.464337829998279 13.53957333065753 18.61647956910418
Sr 14.473700449829419 14.735671694698832 6.184246210855551
Sr 9.100616268486961 15.15537699203078 10.028646332027478
Sr 15.2099471756011 7.7637963291829175 13.106293738222707
Sr 11.212346640820344 19.25696874743303 14.794708350782436
Sr 6.735523052146509 19.241527322887105 14.478103084965914
Sr 10.036535032027361 13.474448658532948 6.642351356704175
Sr 12.609134414725348 7.589815809786973 9.343658083058031
Sr 13.651360123220664 17.91950680383239 18.229356509164973
Sr 7.122115651126693 16.807139206683246 7.443094304862614
Sr 8.746556752733168 16.57502062767188 13.70829492055353
Sr 10.094415601904409 11.018614952694922 9.793212228279398
Sr 13.499625933713785 9.435476420414181 18.96958718718789
Sr 9.217817557812415 17.51372968550774 17.64534407366099
Sr 5.769690476666167 16.70692509896384 11.25337728604172
Sr 11.931113068472623 5.012649147857906 12.746982019038954
Sr 10.914254207446556 12.849638093903492 13.193039789539625
Sr 12.805259481198593 7.1104249337755325 16.311768179845764
Sr 11.118380153027978 8.6346397553953 12.977156910174415
Sr 9.037580200052618 8.879551421012092 7.14470447624281
Sr 6.735523052146509 12.54121038188124 8.585733437788944
Sr 6.843689261101752 13.127646695506192 12.726166606861607
Sr 5.671458613162259 15.772952638403904 15.613326286815852
Sr 8.752808045596348 13.635195308050744 16.555624793542254
Sr 8.895779771243657 6.415020859332535 10.343819493187041
Sr 10.148278989148677 9.907518089009537 16.897596778343193
Sr 6.8782883066155405 9.305431931029911 11.677676099347638
Sr 6.509993540148283 10.410014385771966 15.61139955738497
Sr 8.389615770339425 6.869436514557781 14.732990187447227
