44
Energy = -52.65340145 eV
Sr 12.203557854837582 15.410143443894372 6.781986101165269
Sr 13.795578064475057 11.419375190015487 6.986226801319835
Sr 15.156550540336752 14.586375164592122 8.701317673271218
Sr 12.137516405557834 20.137202977685927 12.033427827165243
Sr 9.646299497790684 12.23780995342217 6.112855939988134
Sr 8.491937399977227 15.687666763679152 8.048982421481819
Sr 14.992289240136879 10.71462988262875 10.351657964921962
Sr 15.38190899047703 17.579235449361327 11.853320426497737
Sr 11.899560362855608 16.87304410853011 9.850267907531665
Sr 16.991449627849022 13.759555700406509 12.15396043606575
Sr 11.251155874395005 8.612732321822378 5.4173290670972545
Sr 11.207614620910325 12.543997702785774 9.14399557095263
Sr 8.537116483361915 18.582008236186507 11.53130134039966
Sr 14.401243400135126 19.38842485855722 15.358723647332553
Sr 13.163607657778645 7.70380371986543 8.32136648906444
Sr 13.417966964262133 13.908823183835574 12.286862608324205
Sr 7.045482006803726 11.957935555582148 8.273617621186942
Sr 8.960145470691252 14.589458418638037 12.118886429550447
Sr 11.89426434398949 17.03085588502455 13.980085109431975
Sr 7.075819135162934 8.419597947683073 6.420097140450726
Sr 10.21229921864264 6.026775667670288 7.265877106008745
Sr 15.548816383029347 15.603365594568979 15.465125398133335
Sr 9.776199454246962 19.222559183578323 15.692529674683163
Sr 6.84516411670481 5.869388549336284 8.584130583062398
Sr 12.750702390692574 17.356689930609182 18.10385149481999
Sr 11.431517648153177 8.896666635304971 12.342166681975684
Sr 10.871845224864815 5.857281980855967 10.585735403922328
Sr 15.083663168384602 11.069363970738443 14.50744783078325
Sr 5.765216813842133 13.374645470404266 11.668333998917987
Sr 6.305021484674839 16.750407325867073 14.45522925527288
Sr 10.774347863932041 12.02420867314133 14.751874545381584
Sr 9.222956316997589 8.454630224390852 8.782746371363785
Sr 14.65283184171792 7.703803719865428 12.740042300597235
Sr 13.11981676716335 13.185919529423826 17.71689349348382
Sr 7.917032657161029 10.663451162884904 12.01798322772633
Sr 5.9034864920879055 8.74454628221726 9.688150268827107
Sr 9.448429478907192 15.379177231206143 16.779743018899033
Sr 12.414505847071473 8.888039517703163 16.668209663292895
Sr 10.968172526417241 6.307756319976341 14.714725880331205
Sr 5.371789974669786 9.425176001528781 13.808132563439896
Sr 6.72521219207686 12.651975851015676 15.3832741272954
Sr 7.520311765753599 7.402296987519417 12.364077926100084
Sr 9.435503361877565 11.49393105332842 18.103851494819985
Sr 8.41275428664711 8.761451154563002 15.65218446389711
