40
Energy = -46.83094402 eV
Sr 4.851727409259156 9.872830899894684 12.52224048468449
Sr 7.406696765656302 6.924449682164099 14.667254068681935
Sr 5.932133144619683 6.625420720806351 10.410772917991146
Sr 6.46630066199574 10.293283562370561 8.54306139577453
Sr 7.488321208086575 10.872302251259946 15.218756092472466
Sr 5.932133144619683 14.832850298901306 14.940284557799123
Sr 7.438158271117491 12.943432631559707 11.747996853376003
Sr 7.607816730284329 14.265734767332772 7.807125387157521
Sr 11.749459836207361 7.3767837149122855 13.682196271674021
Sr 6.589542075367312 17.163747110368508 11.173169913233028
Sr 9.426798218488544 5.004376318709022 11.4508367530794
Sr 8.566114692669746 8.944940895925363 11.729242456546073
Sr 9.365818089740754 7.340229476469974 8.133592224387597
Sr 9.830072078010343 10.98852595551353 5.696145810946659
Sr 9.673808763980041 13.930936849641283 16.613093216533088
Sr 9.191410645527707 18.14752998791064 7.80153356250576
Sr 9.28099419218022 17.440474054645872 14.535349738735908
Sr 11.416095384002015 11.64260935887062 13.638329128104322
Sr 10.794609835089458 9.624837202415282 17.20455509368354
Sr 10.465409586984098 11.525609464004251 9.302165012424307
Sr 11.543452221772187 14.797809486759192 6.9703924378441116
Sr 12.771279497974849 7.842013242181827 6.361330359262705
Sr 13.844464949354201 9.865687974344556 10.911224052471672
Sr 10.177258985283082 15.648334339463116 10.817476925492725
Sr 13.17452386849177 6.2096541077089045 9.92516488277709
Sr 14.675292851019123 9.280338311486549 15.744204486458644
Sr 9.992077538376169 18.904710379813867 11.375780834325024
Sr 13.600517836370122 13.005052805330342 17.27531308035087
Sr 12.263748677493988 17.14847748019951 17.510691681970105
Sr 12.811583620228742 15.364969879116714 14.041277597561844
Sr 14.07618371074245 11.52398401511356 7.102938183881435
Sr 13.696810282991686 13.847682656218261 10.37732547117333
Sr 16.38972826508529 8.214566797544586 8.225554430080223
Sr 13.453315249448973 18.147529987910644 13.779706779708379
Sr 13.230026942511426 17.906066637275142 9.576196334783193
Sr 16.826162030975414 7.998064772945244 12.416659823336142
Sr 16.060793277089214 16.278946379804026 16.079429933288928
Sr 15.806756949589946 12.520923126324332 13.743321074094894
Sr 16.405649420117342 16.30563041629847 11.937189199613877
Sr 17.268629574940483 11.93489480205095 9.980513616179653
