42
Energy = -50.20900553 eV
Sr 16.617102042793015 7.788220785677509 14.64166466971422
Sr 16.23782048216183 6.507941515006079 10.47289939555271
Sr 13.235202486661953 5.939107198366054 13.71647385703737
Sr 15.69641663370175 10.59856404563139 11.84551588447317
Sr 13.71003577315153 8.057617184620899 17.73200390350024
Sr 15.640916084736904 10.27569202346586 7.772379987821114
Sr 18.05968380586617 12.10655192397858 9.986979051974949
Sr 15.360100750442626 11.570731705973108 16.052757469354233
Sr 12.78345048547817 9.226120336367241 13.931658635868326
Sr 12.868156747464049 8.101360089213319 10.021747725535189
Sr 13.73150733815327 12.01673022536083 19.016820260926362
Sr 17.625213233370868 14.003376797433823 6.9479794760612466
Sr 17.136587335711273 14.195414273705554 13.399030844164214
Sr 9.585582336914497 7.06017641319976 12.062198987050673
Sr 12.131366619533068 4.83020781103858 9.772436417821883
Sr 10.382294892134919 9.427543703169885 19.22488706416882
Sr 9.836045059100636 7.581439882382369 16.25009876812075
Sr 15.405660044855251 13.962717293766904 9.733393641895029
Sr 13.928896753562114 6.4052710964737685 7.15086684118583
Sr 13.184447073165822 15.221906024675157 16.739990549332656
Sr 17.625213233370868 16.309498561076794 9.978709925689456
Sr 11.973418989223505 9.936454678359688 6.422849134404778
Sr 11.443181980156904 11.405397120879833 16.930624116750696
Sr 6.59037277033054 8.421606935204865 14.08779088457341
Sr 13.341840892335856 13.704245165139998 6.780407564011173
Sr 9.602021896785088 7.485765413141926 7.950068866471124
Sr 15.246897273089653 17.305228916481596 7.657945453753282
Sr 12.768227145932151 13.571220106074831 13.156542768113443
Sr 11.676773166342489 11.641157084168404 9.829161062696349
Sr 14.7419175983947 17.225438243232876 12.029719887602651
Sr 9.759025717340784 13.710052932181284 18.65847565132414
Sr 9.111693872766862 12.846599249520317 7.150866841185827
Sr 11.718697906643008 15.819014105966339 9.448955266325116
Sr 7.409923395292143 10.896377047762238 17.365466572645087
Sr 7.310187472150108 10.303003762800147 10.254183577043918
Sr 9.250750990497753 10.800654679425834 13.634351274547297
Sr 9.10719759908089 14.302446269831613 15.55208333785916
Sr 10.745979821046898 17.25779376575567 13.339599033912213
Sr 8.596975561528708 14.169219389828225 11.424247363796551
Sr 6.249446535565342 14.738256470325437 17.726154139432104
Sr 6.141210052194952 12.640016280184543 13.94727565325904
Sr 6.921503820800248 16.8266973034758 13.972768507889942
