47
Energy = -56.0629925 eV
Sr 19.679708741138587 10.700302474047183 14.531532664267383
Sr 18.563812906380775 14.315883976785273 15.047877408067896
Sr 19.336453962511783 13.740526383760129 11.337800604952998
Sr 16.472054430851724 15.040946546489053 11.654755432217325
Sr 17.17403258606608 10.812376389821221 16.81133403481331
Sr 19.23532600998058 9.51969387660274 10.58004703177095
Sr 14.992936208146128 17.88059449539329 11.157113251531673
Sr 17.7144644567723 7.521678474838634 13.601596178975804
Sr 17.32755183087391 11.242974897809617 12.603736201029475
Sr 17.62413027044293 16.784194221608306 8.382282434751803
Sr 16.289896828274685 14.671956782666014 18.44025754724176
Sr 15.414231767606154 17.189599936965724 15.039839814722274
Sr 17.66818852808456 12.398453127430137 8.610074392258367
Sr 16.102514304560074 14.656790538641761 5.491547658908552
Sr 16.46135159970261 8.43093677820339 9.577677593360807
Sr 13.542072245295012 17.708500791199732 7.2702397875975375
Sr 12.983930651904252 12.087320026365047 18.135016156256956
Sr 12.504016627212348 15.831917738964886 11.869619140796937
Sr 11.631354499977876 17.708500791199732 14.455241607895951
Sr 14.032457288247267 9.00634376140787 15.066190215876835
Sr 12.685574468607577 16.498368451991436 18.118895071542777
Sr 13.991384308599354 14.113803578982855 8.593434464225885
Sr 14.52623175717234 13.337951597168752 14.806277740661674
Sr 10.92183090015787 18.209003683453407 10.22593096678128
Sr 12.040980579447826 14.192252451505842 5.309324231245952
Sr 13.474608726006926 10.891438458424455 11.219298317640158
Sr 10.588942445732092 14.776753181615048 15.34356298312526
Sr 14.558362059214055 10.804445929165128 6.644418266748922
Sr 10.91334028977913 8.468708956600478 18.097839556255238
Sr 9.940880038297248 15.522063669264604 8.502186593337552
Sr 10.470207118386325 10.800369996880193 14.888691971542663
Sr 8.417384219450522 16.67367247978639 12.352556743993874
Sr 8.912152913399462 12.26608979723852 18.383605400716068
Sr 13.693538856615168 6.625879935244795 11.96443919526821
Sr 12.58923843199957 7.681149318049409 8.33349591604741
Sr 9.591000646800747 12.884099352907816 11.648728885895288
Sr 10.437301401541472 6.749416668067475 14.325363595349437
Sr 10.921626635901951 11.4942497548522 7.999490722785877
Sr 9.484984710087247 8.862780276861068 10.899563032763844
Sr 7.098724652918732 13.057562617023999 14.778781917722783
Sr 7.179936154925359 8.91374981889042 16.160998934746285
Sr 9.70624713319245 5.298157001491463 10.113726946790292
Sr 6.88652610418972 6.202036749270025 13.09015256300556
Sr 8.93478449789673 8.13597943986722 6.769607758245866
Sr 7.179936154925359 11.547452285949529 8.771148199687053
Sr 6.084951961508753 9.927850357182571 12.465632320363907
Sr 6.178714279470517 7.301769813135978 9.285505116136262
