46
Energy = -54.92345167 eV
Sr 5.692183314751221 11.659717482433214 9.801876260251701
Sr 11.438418788875422 9.754679398445676 4.456789515625086
Sr 10.45925336621316 6.6903190743089755 7.1550123553130955
Sr 8.876234456176228 10.554990718858209 7.527846755295462
Sr 6.275993010534896 9.098363597180878 13.227651693252025
Sr 6.993018682156034 7.535096088152776 9.43413659715662
Sr 7.047890076216516 13.936919471810263 13.177817910467832
Sr 11.625071297870239 13.460835584328342 6.617893570010564
Sr 8.662072494724294 14.471216047645203 9.205959635203874
Sr 10.337305269559472 7.642839241738087 10.638669962913797
Sr 14.536679771750576 7.2032771010506 5.764694641442144
Sr 15.295995706906444 11.169572935032381 5.142159926923639
Sr 8.873738078711614 11.117118466447717 11.537601120049166
Sr 14.032020317382774 6.690319074308972 9.508232957145102
Sr 12.582890555513114 16.77426377219716 9.094096279288093
Sr 12.839338375303514 9.958751177732855 7.964797874116678
Sr 7.324715433750657 7.3580829566833135 16.972524447082908
Sr 7.673025898985068 11.382246357563579 16.326314398894947
Sr 8.124805236641157 5.740701549867019 13.275372549294786
Sr 10.20849920511302 16.391610726170963 12.59077755963805
Sr 12.292971475541599 13.226881548573331 10.774666365413076
Sr 15.212247515136495 13.483076077171612 8.064079302573798
Sr 13.924348316087055 18.712407629077 12.711436323861298
Sr 12.579691565254581 5.895793773699671 13.329114065015377
Sr 10.024477467556283 8.67452925330384 14.640250836404022
Sr 11.298500958613095 17.823517794918214 15.970315234432606
Sr 16.489824194002473 16.120013738722914 10.759270699636733
Sr 16.794496012474138 9.505688250481052 8.667482277747665
Sr 10.700577134230757 12.936960761533687 14.673252007585958
Sr 13.225882676960186 9.623617708187153 12.331926789204442
Sr 14.12032896913278 15.500328831121374 14.093178613551208
Sr 10.730282453488044 5.998118094183825 17.11227626387885
Sr 8.527801732089548 15.339016209838535 16.913183470615824
Sr 18.740196675813024 13.167863730972735 9.011449500602382
Sr 16.373958659972352 12.09359027487255 11.913653617772125
Sr 15.145375738822674 17.79973730917882 17.05399262519334
Sr 11.054709495019424 10.39982559274461 18.037914550912177
Sr 17.865517731897274 17.799737309178816 14.142673590103831
Sr 14.26669459266609 7.9307518512673925 16.203016227232883
Sr 14.363062935260933 11.807348051133742 15.572744858259462
Sr 16.597337369521398 7.656588247942124 12.696307386858368
Sr 12.70177053781971 14.731191398178836 17.91244608915088
Sr 19.161031681856464 14.06428704757445 13.179669235788904
Sr 19.548466785350268 10.062027553656252 11.638392171243437
Sr 17.17542221554468 14.536371958018574 16.65076360097743
Sr 18.130835841009226 10.499499740571071 15.378126706559168
