41
Energy = -47.94558873 eV
Sr 9.71435524779794 12.614634876005955 5.654508742884737
Sr 6.533379034924861 14.122229453970176 8.689159617072846
Sr 12.525277412509071 15.781407988205649 6.063449756095121
Sr 11.02135316329984 8.939311862200437 6.50418143488731
Sr 14.169558006006177 12.043129692614869 6.199521767499527
Sr 9.237102791800574 15.43300131464224 7.493249032102568
Sr 7.870410516695043 10.707055670142282 8.243853910016531
Sr 7.533840751619381 18.118262460532076 9.424700391025553
Sr 10.574651506792517 18.501884468405397 9.296466901631158
Sr 6.541116980740891 11.548356260782107 11.915778324195678
Sr 11.671177956112109 11.973220430837832 8.408865758574102
Sr 6.068394939282473 15.816864081772856 12.422823924566117
Sr 16.578721385013736 15.379773906864859 6.5041814348873075
Sr 10.924535427355 8.012874766567167 9.570996424870035
Sr 7.568679943626914 7.679235980534168 11.771979675614741
Sr 14.543424113326948 8.818395828054307 7.783686358956319
Sr 9.69823833531275 11.326702377818604 12.008554869845595
Sr 13.189781586262363 15.838681340180194 9.049709961369729
Sr 8.483909693723419 18.382483181878683 13.18713612612925
Sr 17.549306420577814 11.061663573680907 6.550256140149892
Sr 9.309922145965183 15.482560200856568 11.393219319557412
Sr 15.602310768577539 12.582140439970754 9.2544789806847
Sr 11.327570062955385 7.839278830853916 13.63095762763937
Sr 7.5885373337241795 13.743608629752922 14.794190393962161
Sr 10.38531819865255 5.334136550775801 11.642874023074517
Sr 13.84345854159443 10.091072509939817 11.787659203645998
Sr 12.85888232052 17.94249373150193 12.606287027411762
Sr 8.833535761851266 6.400130526754829 15.405067634834177
Sr 16.52764327917149 15.984236063067017 11.563848390052174
Sr 13.111534055431694 13.851848915199959 12.609735646012853
Sr 14.245488580250047 6.950414858648881 11.169896355399763
Sr 7.996394797948825 9.591961618835873 15.379279649933741
Sr 17.549306420577814 8.97071796764607 10.572757967128297
Sr 11.174894605576247 12.085229408971625 15.854844979772176
Sr 12.975318866309193 5.519372524973967 15.051797186476081
Sr 11.795810133075587 8.126656075886189 17.431666796537023
Sr 17.024695832519438 12.166038930052068 13.33929799068213
Sr 10.790009725328147 16.10641960312682 15.443035376147584
Sr 15.758019710901515 7.794296820487176 14.49868651644343
Sr 14.969570180048551 15.232718388788522 15.708261141343666
Sr 14.82050340920801 11.105378140554405 16.492398611179446
