48
Energy = -57.21354859 eV
Sr 7.6182196413332095 6.24576113911845 6.9192872485258485
Sr 7.302930910501138 6.5307312953711385 10.951789936140706
Sr 7.024434792131849 9.956168739125673 8.50550764319471
Sr 9.35409095965812 9.974214190924428 5.800629011655248
Sr 11.31602278512005 6.167561455543473 5.664003279710574
Sr 10.849305041743712 4.52792116419326 9.28132605261656
Sr 4.7044091094446845 9.368743316001364 11.850055660613933
Sr 7.302930910501139 7.848253446568787 15.003322536835244
Sr 7.775492729375339 13.854183171981868 6.749528714121651
Sr 10.813675715587841 8.090970257528193 9.185726393663423
Sr 10.526861454002125 5.933527428170884 13.345352503534409
Sr 13.31399198366069 9.73489876280428 6.073046224542404
Sr 11.841408102264515 13.523703644119117 5.9160280391207065
Sr 14.595134282062544 6.219335046696913 7.784367726711023
Sr 5.827844946178392 11.949902215478014 14.782619834919338
Sr 6.47158469828025 13.352135957290088 10.75153338760788
Sr 10.458902201232078 12.051419609178689 9.127245077834171
Sr 8.397590616050667 10.396809081233453 12.308106979978609
Sr 14.243337320227525 6.348566508970122 11.7275077226834
Sr 9.338234000786985 11.171545419394823 16.308235018430334
Sr 10.352168220781195 17.203743499574944 6.2745705353244725
Sr 15.895183744165514 12.9231558971634 7.028712945463043
Sr 14.562817873601434 10.22758517819142 9.92606119238235
Sr 10.522078503223561 7.313131290153408 17.173438053295165
Sr 13.35923192250148 15.37645002671947 9.07059526512078
Sr 8.685910124786334 14.567184076179416 13.917945201283038
Sr 12.106029347552834 9.57513520298895 13.734421821267834
Sr 14.39802423483183 16.87440307670583 5.833244955917458
Sr 17.34757697212319 9.025772161187337 6.563109816243175
Sr 9.558727245990127 16.00254963680087 10.061588708515275
Sr 16.870126456786185 9.263762147142067 12.915671309887514
Sr 18.09039307498683 6.959883234435181 10.000107650181523
Sr 16.20287931533244 13.829650521404036 11.475956923722743
Sr 18.830113163146013 11.153706843371895 9.855734181617969
Sr 13.102801763984987 10.378203677631854 17.264765868997912
Sr 12.282251377930221 13.441669443742718 12.535787705435768
Sr 14.494706490104056 7.194585487722464 15.735628043803034
Sr 17.371798914315143 16.479828601345865 8.426799842106265
Sr 17.99523892266606 5.921455267298262 14.036890004981556
Sr 12.808722205085141 18.411872385504456 9.042756449433842
Sr 12.090838016463925 14.251307939433769 16.48146338805638
Sr 15.773788981039928 17.342848913310124 11.72371471006947
Sr 12.052321814844346 17.342848913310124 13.184150356091113
Sr 19.951341547788513 8.69132857466056 12.981497706206637
Sr 15.18505184274549 11.842842082989378 15.07719164937251
Sr 19.081732265389324 12.533945808115215 14.052235573055276
Sr 18.140891586209843 9.181090232888733 16.608915635098285
Sr 15.667186795898049 15.784827429029644 15.044619640654467
