43
Energy = -50.99512643 eV
Sr 18.187265402186878 18.203122428705278 14.132455926683312
Sr 15.602208866554369 16.171196914949398 16.672233143322362
Sr 17.89665548937178 14.156790391708624 13.976241498836155
Sr 19.70483793522102 15.79289777575304 10.953390055247015
Sr 19.5395314516846 11.34024328385677 11.892923660450213
Sr 18.36950934554291 10.286034119922986 15.69826035624967
Sr 13.885917806866907 18.32073491701199 13.94132952991028
Sr 16.421720859290932 17.637618263401684 10.54421161596901
Sr 14.571790690922425 12.17415106536912 15.825007244816645
Sr 19.900725982045763 12.62968416437045 7.787923053349352
Sr 18.272524471885383 16.08801833287288 7.0177809349724205
Sr 14.13038884162163 15.065966311906113 12.560738567366645
Sr 11.662957028800378 14.869734284222588 16.42346073738721
Sr 17.12020724723523 13.552641745298391 9.861329547385644
Sr 17.714783781455495 7.361188509230801 12.743511736466843
Sr 16.015926468842036 10.682428886519252 12.495583673549516
Sr 14.771913237025709 7.9165180737533385 15.957349707389906
Sr 17.80302450302608 9.59221126036913 8.980913099798515
Sr 10.237371556407224 16.642053792325104 13.102140715933347
Sr 12.242652748311125 18.32073491701199 9.985651787343084
Sr 14.190338194597588 15.451068452222314 7.730780242069332
Sr 16.153106523340806 12.181097225392126 6.26064238279551
Sr 10.828045012885417 14.569336470499744 9.68531259184235
Sr 10.958898323913289 10.179041443932551 16.402717429747934
Sr 13.626336223091686 11.439506304274566 9.36997283632441
Sr 11.216507308968072 12.486505881631581 13.076894006230773
Sr 14.570536094296454 7.361188509230802 9.828761730159783
Sr 13.959620577949151 5.207501754429593 13.100949149861783
Sr 10.347216057449748 16.747095653231035 6.401227563866423
Sr 8.139048527273179 17.35749862278484 9.732939619832765
Sr 12.537461997353741 8.844372102827368 12.898424526637873
Sr 10.284778375408466 6.316099998109099 14.78248965091094
Sr 11.389065892361138 12.623662916012215 6.242881423498899
Sr 7.648817338190465 13.43998972607115 11.744114185263523
Sr 10.674698947431311 6.489853771642575 10.55428362367166
Sr 9.697703606270634 10.549110339565107 9.352480202592373
Sr 8.419840942421812 9.348274778816805 12.932215619409977
Sr 11.795147724717593 8.396863000161225 6.746287385019983
Sr 7.629877777421147 13.719427650262855 7.576862494789697
Sr 6.953502323386939 6.001202455528221 11.672979040219468
Sr 8.101826098816556 10.178901236276362 5.749708539245629
Sr 5.987840852158435 9.931971950846734 9.542102394573813
Sr 8.023071139824875 6.946716859997319 7.808263535273825
