44
Energy = -51.68545176 eV
Sr 21.1473015136609 11.045620643392882 15.72431135786634
Sr 21.00853998063977 15.149010209663132 15.162527905761744
Sr 21.58182137834843 12.595110407528605 11.911356611589746
Sr 20.21208322886675 13.305781723267604 17.81693014010361
Sr 21.00853998063977 9.190093355195943 12.35526916849288
Sr 20.992775401220797 15.89096997732537 11.450404159845105
Sr 19.484955779466485 9.215015386279639 16.31512137404225
Sr 19.16800564063001 16.73673808630797 15.071876376659096
Sr 19.95055432333799 12.723844053204571 13.969497876878497
Sr 19.98367461176479 12.306933268910072 9.86479516624645
Sr 16.862984957753433 10.923406371448333 19.00787895757887
Sr 17.456127787448548 7.157067806945539 13.204556193921963
Sr 18.77944022081312 8.332154982781077 8.759356052261177
Sr 17.891309456882922 18.617740737573204 11.46272109526652
Sr 16.223353748297434 14.37199994919617 16.583742126292687
Sr 15.587476091935866 7.344854316499585 17.047217228981317
Sr 17.750234254190747 15.652721041749599 8.403979203409905
Sr 16.445790743506752 10.536231415902007 11.002497336014006
Sr 15.993463585259061 10.685971465215255 14.963466082338577
Sr 13.052636369377145 12.279333552191778 18.02059017207537
Sr 16.889536116802542 14.630102838940262 12.2372978690463
Sr 17.434544885695136 11.962944417972857 6.818393183833419
Sr 13.165639547173544 13.316571149860188 13.929709214182806
Sr 13.793119097613676 13.40926332868588 9.8704038266991
Sr 13.327108615131987 6.600207565027047 13.53400735744501
Sr 14.879297736117882 17.54706408581988 14.197479843607894
Sr 14.312397380564573 17.376481609317437 9.914323048252799
Sr 14.096562324735977 14.47341462092619 6.516257027052133
Sr 12.184777693096994 9.335767664426317 15.645946018822409
Sr 12.303520215279352 9.720950884246728 11.353922073027103
Sr 14.257086346111928 9.86769523946144 7.539180005994022
Sr 11.685157465098081 15.971536634929626 16.627907902421118
Sr 15.09037437248286 6.600207565027047 9.885575384648117
Sr 11.159745594498746 16.78829868099166 12.577807703104966
Sr 10.636215435766625 15.91145741840546 8.469933405610243
Sr 10.77119556119311 12.004132192834604 7.509044231584452
Sr 9.747197665173497 13.110963869777668 11.432044409384694
Sr 8.78349960022583 9.109101161835925 13.567742933150848
Sr 9.51242824115001 12.541391461372411 15.611060391641034
Sr 8.436912322307833 9.76831918911875 9.68287458143764
Sr 8.137563621027219 16.06153539769573 14.94204787605033
Sr 7.657891479001463 16.55082884957696 11.00066974498374
Sr 7.380747814497949 13.512614938283221 8.394383208637347
Sr 6.433190246776324 12.600093314166035 12.67013619113675
