43
Energy = -50.78833671 eV
Sr 6.044006854258522 13.065274187959899 10.122307604337928
Sr 7.9543653163399926 15.72102739727136 12.281986781260791
Sr 7.327218781707554 16.6847920177338 8.182390237732774
Sr 7.0198211146219585 12.568463356911362 15.108708781661218
Sr 11.19681922716127 18.08368997778533 13.77359772393226
Sr 7.047376533220393 13.23242072966772 6.273958823844934
Sr 8.733389641366255 11.294332622743505 11.872270213055327
Sr 9.69805624818487 15.260344365880885 16.572207846640325
Sr 5.920969084117824 9.403450437747727 12.739855791526509
Sr 7.525878750411315 9.804554694974762 8.362714557038187
Sr 5.991252977509872 9.219374444298296 17.17204686566381
Sr 11.392461055295486 14.152363526276018 13.004030487932333
Sr 8.943097113980206 11.14590290643226 18.50346094810268
Sr 11.313075771164536 16.82499490441275 9.76091837532182
Sr 9.383563394128204 13.43125238711676 8.896919933202748
Sr 13.911107770856102 15.66770281901993 16.009434547562954
Sr 6.581759432389929 6.372131671771833 14.88728541976942
Sr 10.953114194505572 15.448794664032052 6.3631008973660705
Sr 12.062297257600529 11.927952356170918 16.303327907434934
Sr 10.960325929541986 11.296904660423325 6.277459025786516
Sr 14.772257638611038 16.410188561770152 11.936320672108309
Sr 8.819100149177823 7.129396754372434 11.583412343184515
Sr 12.113249036845508 10.052644222884865 12.86341407601598
Sr 15.028430897834047 12.648584997421974 13.564847829729054
Sr 9.049570352090228 8.881680426375322 15.19064063070816
Sr 15.098828757236845 16.11317793737498 7.632527845157391
Sr 14.310536709171773 13.430811135672837 5.099940013200664
Sr 17.9204860210979 15.051917796221943 14.461298848290898
Sr 9.897930834949529 5.104740005977071 14.748369457360619
Sr 13.236707528882057 12.924890980890657 9.42955058729024
Sr 11.673148710510143 9.03644648856183 9.14068710319433
Sr 16.133668821310586 12.219787425539995 17.35962867035212
Sr 12.984439141447938 6.716459499689609 12.570991099403606
Sr 9.097111171059233 7.129396754372435 18.401503501052822
Sr 15.009635590809218 8.875947001105585 15.284666468773402
Sr 12.742110093050218 9.06239751462612 18.769183405549217
Sr 17.24557290550233 13.444892455817326 10.301899690563504
Sr 17.920486021097897 13.30618149696113 6.759454878723063
Sr 13.088421963335152 6.052287387658311 16.874769712631988
Sr 18.37945699004934 10.92448615106265 13.497967112425078
Sr 15.554776772437114 9.494785082867002 11.023763339146676
Sr 15.246083442089185 10.3147289180425 7.487654755551532
Sr 18.88571751645659 10.08271829829119 8.960038438567496
