48
Energy = -58.76281559 eV
Sr 12.746717629803962 5.273216853838337 11.520881211647955
Sr 15.357318172355102 7.875655741342432 10.028732277937618
Sr 13.18249238147348 5.916739222270085 7.295861170280442
Sr 16.214994342349694 6.684466891108109 13.893390690541999
Sr 14.386441577786396 9.60239326168803 6.52533599349734
Sr 12.60989865399503 5.946241886071313 15.865838252092193
Sr 9.216530350265886 7.1270857810795345 13.30807121781288
Sr 10.615813602595477 8.42643686384175 9.218730453773329
Sr 12.949654858353576 8.532338448174594 13.18663398350054
Sr 16.48162309268175 10.740343098636933 13.029154983364846
Sr 17.402415064068386 11.53890380563338 9.199473684591277
Sr 10.747704435936148 8.238209762335345 5.2143394300226245
Sr 10.701115957202665 9.419511912348456 16.59046513506544
Sr 13.08950332600043 11.46701764244224 10.06314711914398
Sr 14.903306279853666 9.417642561361808 16.7207405455721
Sr 18.371766312785166 15.591136917805036 8.531641865199315
Sr 14.983211929794491 13.842779056145693 6.969491636173482
Sr 12.985291992837931 12.240284738208517 14.50055669309586
Sr 12.966111504886102 12.905836564405332 17.744238538769242
Sr 7.460858947625979 10.605349458929764 6.449887928167862
Sr 6.893528340280165 9.922431874782522 15.125986077146969
Sr 6.722194286417142 9.713382657186434 10.714492612282985
Sr 9.685281225549662 10.742893743859536 12.82786456178257
Sr 11.274497776530673 12.197577051689962 6.311903535130461
Sr 15.058985799880586 14.651905982171725 11.273378771130476
Sr 16.27277011568812 14.036369410704761 15.804226221270724
Sr 10.646018687894209 14.495695459084862 12.43087841162778
Sr 11.683446959003792 15.358933810099312 8.705762306522262
Sr 9.255827221595522 13.311719574282352 16.109090534740137
Sr 8.93946273961747 12.590781142995944 9.413260766208985
Sr 12.362246418715042 16.44638188678245 5.272860947455982
Sr 6.9039592126621345 13.565630594309443 12.778867471329962
Sr 18.886215555302016 14.35109409497884 12.432322916156192
Sr 5.465841308340078 13.539691280969349 8.733429539887318
Sr 19.108169856198334 17.24674470274686 15.480100226280095
Sr 8.36288356138168 15.237928963705098 6.311903535130463
Sr 15.530109818846444 17.606008392376182 13.749471823229543
Sr 12.41537521050965 16.061866005210888 15.67918114385309
Sr 14.860849267452496 17.890724523400156 8.61005527424247
Sr 11.908973346408791 18.11641968637834 11.763759825429155
Sr 18.366660304455408 18.54992584777341 11.376228471519017
Sr 8.637829032412531 17.332960271423996 14.41999095518097
Sr 10.697419282300881 19.083432319095756 7.841575715033782
Sr 15.552381746491323 17.814565732213595 17.744238538769242
Sr 8.002187507547676 16.633423855021828 10.193899050473057
Sr 17.08810934760095 20.236909289815664 15.080801753072416
Sr 12.82313255990735 19.508294245048774 15.283099487038179
Sr 14.77787922465088 20.296568020238084 11.518071390748146
