49
Energy = -59.01128294 eV
Sr 17.969590945221817 11.89706335610554 18.3657325492198
Sr 17.389385350489167 14.656760786008961 15.083794676782649
Sr 18.139311390046313 10.598661975981166 14.409318834785829
Sr 19.29390047739417 13.12283927261252 11.31257089242276
Sr 16.5504951623196 8.195681133379194 17.200658020293915
Sr 14.84934104530501 14.553046236451816 18.490106815449533
Sr 14.239939657170416 10.4905815334867 19.451651597806404
Sr 14.625090813075218 11.734589691922002 15.851409363007203
Sr 17.931682971925248 9.39715286117702 10.252499306358088
Sr 13.499542753137892 16.479615279767014 15.477387125619332
Sr 15.185776322558048 8.490795225152404 13.220675541518442
Sr 16.97698325555261 16.197450237722613 11.21616804181076
Sr 16.619362912482416 13.036828756842054 8.128382629696636
Sr 15.738835634145868 12.401808441644265 11.917610986982648
Sr 12.401098792648463 8.353725344841227 16.716515575921235
Sr 11.18389560630777 12.599098079562745 17.95428209840479
Sr 11.743492922131606 11.463264617042872 12.287567613055183
Sr 13.844068863404729 9.712480683853137 9.315387917569463
Sr 14.818716637660275 16.91894374885737 7.974445235695304
Sr 12.985410727936713 15.455692582995685 11.767876799479
Sr 14.112860429827133 18.810490248626245 11.681772151319484
Sr 10.221365436337319 17.743369632791318 13.327325393682463
Sr 8.673594514902101 9.2121627336251 18.424804487892157
Sr 9.54262950133372 16.691056882044105 17.477141132678497
Sr 12.363483862469849 13.53633011213513 8.554576692384936
Sr 10.991852811003223 17.743369632791318 9.011750266168837
Sr 10.035271978926485 14.227475567954263 14.55152988814311
Sr 13.682446473183875 5.956685679011895 9.92213722791511
Sr 7.0787106056999844 12.955645622485884 17.06545726940105
Sr 10.406865843410028 7.615171217452246 8.810698480745712
Sr 11.468223957325847 7.443158638047366 12.778419177760851
Sr 8.667264905965748 6.646036298056384 15.5803081855055
Sr 5.9543969799726755 9.150809038051092 15.598940370878864
Sr 13.234148090270825 7.117194102803141 6.4447093811144915
Sr 9.285768142183466 10.172683381473725 15.09458755027065
Sr 6.543511180244317 16.158856853908656 14.151047514473772
Sr 8.962640619722292 14.876577424003225 10.854305022345832
Sr 8.6925432038516 11.13050104263816 9.457826258319852
Sr 10.96443667898353 10.690693693914735 6.493627005657283
Sr 8.788995281524857 14.311510564991773 7.177870617520737
Sr 9.331065975828182 4.898580760246462 11.166443889829424
Sr 10.536528695548629 4.450718782009263 7.177870617520737
Sr 6.631421420674843 12.149592945652937 12.849218766456024
Sr 7.5827648973753625 8.076357252992667 12.031060994708927
Sr 5.8432817449893255 13.66695024193241 9.082183150309001
Sr 9.111385934124387 7.204735186639364 5.3851422601806975
Sr 6.715728719037411 6.876964786885965 8.25681895045523
Sr 5.018761336791018 9.714823231013018 9.948288231247771
Sr 6.597836474415413 10.416032899644017 6.719697698774984
