48
Energy = -57.8801017 eV
Sr 17.39184422905153 15.259828521892224 8.722742265530083
Sr 19.008755044989442 11.293745332376348 9.716232454315568
Sr 13.050650700439235 15.39937853090339 6.974889946717029
Sr 15.52168014806664 11.875402816250977 7.344336721761257
Sr 17.419072057417896 13.920077377703985 12.66102631428452
Sr 16.277569053743502 17.289022256651062 14.055125532226334
Sr 18.635227645010822 10.572600632218075 14.359689900569926
Sr 14.056812453307131 15.527840080443015 11.034136674221108
Sr 17.50267208305085 14.222877672342749 16.806572808269966
Sr 11.546072985425752 11.315748124553416 5.51677273253734
Sr 18.318691207629538 7.399536987022519 11.754753058171632
Sr 15.862819747486258 10.423665921716438 11.291731659192411
Sr 16.785187377073328 7.845270464215945 8.170797917232978
Sr 9.987179232733466 16.3239632184654 10.035718737189075
Sr 8.496837674849012 13.633108857849482 6.974889946717031
Sr 17.373892216009757 10.293430052373502 18.091024896845806
Sr 11.757919061836736 12.679131240933229 9.376105480750207
Sr 14.306302045293352 17.289022256651062 17.713865419625993
Sr 13.994976757071795 14.568366610444585 15.010871095518555
Sr 14.629579425950755 8.497507833673799 4.803379876360731
Sr 11.779126623243515 17.46248185491145 13.939987743615667
Sr 16.292572764981887 7.330361386598342 15.246759611186338
Sr 15.121787010358116 10.974290476136932 15.284347440898685
Sr 13.915329070658709 13.042458613309318 18.42653710031292
Sr 13.431818449054004 8.800262444379088 18.135106013819573
Sr 10.762354183237484 7.427460616804973 5.01649659088388
Sr 14.444406873457467 6.580318659197986 11.46044388914305
Sr 10.718054569621424 13.897806027953576 13.18943365662455
Sr 7.32684268813523 9.791900198961512 5.067376732290014
Sr 12.979670990543653 8.863489634843585 8.37314405549412
Sr 11.285837771240935 11.348886819507266 16.190106577659762
Sr 12.942878611675068 5.193871809993631 7.598780999443618
Sr 10.428260750082572 15.3419538528703 17.018936525296706
Sr 9.07451758977431 9.76513289410307 8.44476302351711
Sr 11.900959171876634 7.1270035216379135 14.962239057369652
Sr 12.171222689282526 10.14993859104571 12.275109665988705
Sr 7.831925181604215 6.105902438143664 7.417014850923416
Sr 7.501459581056373 16.137163671846785 13.659476077154007
Sr 7.8689218107179855 12.577341992445561 11.053414015127753
Sr 8.634418184579907 9.515656546101829 13.614770002788285
Sr 10.17836051148575 6.660920986142581 10.978355118575216
Sr 8.804103139580716 8.47357677303411 17.507203926955825
Sr 7.352752345120006 12.506154003693933 15.750149937639588
Sr 6.142185125854824 8.395345528153365 11.091838066141497
Sr 5.150756894194069 11.324220175704918 8.313418367877468
Sr 7.685516751410655 5.8130646376418 14.313773362829908
Sr 4.491750830951203 11.854123409300776 12.763488004271528
Sr 5.27212445156536 8.852790526569125 15.394705713066887
