47
Energy = -56.98219436 eV
Sr 11.42534723664351 12.824676359825322 6.52153540780927
Sr 15.621107949738345 13.498039014728247 7.029051961406852
Sr 14.229041037126718 9.702293387953276 5.734584918235955
Sr 16.14259793417556 17.17204437201981 10.735773353574201
Sr 10.628572464257063 8.70697173548698 7.720306675202114
Sr 7.486725793311891 11.575897324337184 6.989677750043146
Sr 17.27840670935445 9.810106153681717 7.720306675202115
Sr 8.683326594910726 15.3935781944083 7.751183482946872
Sr 12.758154900545652 15.093375899385187 8.953974605628712
Sr 12.152713497017993 17.265169132415448 12.145776220644777
Sr 16.65550057642956 13.118778609108594 10.089926720771123
Sr 9.84859456472089 11.895215867434125 9.269896042838806
Sr 13.53503148307338 11.058484206467151 8.489313165117387
Sr 15.769866950570785 17.00349425389115 15.03236560406046
Sr 11.187928148901749 8.378076944933962 11.531397757141024
Sr 18.32061433580356 14.67504071963566 13.06267758811109
Sr 14.131457651167404 6.998015686109534 8.223099876287563
Sr 7.321222859489004 8.632685162142153 9.169451105973593
Sr 9.34814190584911 14.72728676655913 12.171378336995605
Sr 6.901173970894592 12.80128388288869 9.740240870824291
Sr 14.012594964835928 14.47716692485569 12.68830376984697
Sr 15.342099637237908 9.308234931039497 11.45157390576958
Sr 18.666470737886897 10.38141019919171 11.48221519589513
Sr 17.957027022107443 6.4975248040802835 10.190089717558614
Sr 10.226628808695164 6.091199396560302 9.70874249539999
Sr 19.620944378826124 10.944598267707745 15.501859866918696
Sr 11.566488763222852 15.783194062037813 15.558608738807463
Sr 18.32061433580356 14.107194255368315 17.136525915876806
Sr 16.653895499007557 11.747159681277603 14.241976531508627
Sr 7.67317898139925 16.637043666253224 15.820084158367456
Sr 7.277454966838699 6.717260705827372 12.817354593333366
Sr 6.2900415316946 13.798813098117042 13.841384408609413
Sr 7.922840474055654 10.767311630791994 12.59961591582565
Sr 14.314605670429566 6.364952421540372 12.021081543564987
Sr 11.932679687512648 11.564523122466131 13.96257419213474
Sr 14.336689817213559 13.544945659955843 17.015329310970067
Sr 10.8041334358734 5.913304469829137 14.086493122321079
Sr 17.778225461402787 7.714098837762153 14.303098835574406
Sr 8.666008897329192 12.69261829304857 15.967130774183214
Sr 16.605893971401333 10.15009893123634 17.822826949141064
Sr 6.504215428679729 13.750614375109167 18.117698725607877
Sr 13.692769541377768 8.095538833150561 15.226737641424814
Sr 9.990296631230489 14.356021343841181 18.45387024021282
Sr 6.476076150478409 9.990207641830459 15.75933582706028
Sr 9.493353314400633 8.600295131100074 15.682399837330165
Sr 12.004273238923732 10.567746885399519 18.20306743557547
Sr 7.937559291601586 10.514361809585237 18.52344085093607
