45
Energy = -53.82805176 eV
Sr 16.190863945264237 16.221092013284636 7.6202520864616705
Sr 17.298755014481365 12.06513841478717 7.990616039357129
Sr 19.062060979957188 8.483825380916535 7.54915514159171
Sr 13.920928400617655 13.027898904151238 6.0427248733329435
Sr 15.396707108980747 8.96390254560081 5.63537699745653
Sr 17.670284397215987 14.77375505653588 11.548458356258303
Sr 19.242375636270594 10.691141570864701 11.252039141375402
Sr 14.19270550233349 17.67105354770126 10.962993436094825
Sr 11.978717969538373 16.60172680191166 7.6314353020362695
Sr 10.343978023573827 12.855670904634591 7.781323460696419
Sr 10.994280332512913 9.990724663325485 5.112977639374418
Sr 14.168505308819755 13.620017035295943 9.849844959880429
Sr 16.168686123443518 9.040245169684203 10.927579838603283
Sr 19.242375636270594 6.262536366522245 10.890704720063257
Sr 15.744340224370372 6.262536366522245 8.49726192507046
Sr 13.115254626817201 9.873858678791953 8.286098143325125
Sr 14.023350937621123 14.817288294455528 13.765061378749856
Sr 11.010663892718629 17.68404905921878 14.183540871841466
Sr 7.866639386066296 15.727635063289249 8.985754944184231
Sr 16.613673345586214 11.607246383116927 13.840881831812414
Sr 6.6298252556869555 11.83025446884474 7.473993829031096
Sr 18.56658604237053 8.037396244460274 14.459323500043062
Sr 10.868232542437486 15.071178315895247 11.256382060122355
Sr 9.149827556662759 8.838405321359902 8.618544514590354
Sr 17.04028995834163 14.61010052941108 16.53181096354237
Sr 8.234838150736527 12.191426458950724 11.120638823505733
Sr 15.568450955737232 5.623587793436752 12.81773893021457
Sr 12.108801360394 6.374806563436706 6.789363299661711
Sr 7.513772946110713 15.699948025984343 13.17888169224373
Sr 14.504960958953289 8.373814486591142 15.240198668287343
Sr 4.734390589773648 13.474903898586051 10.933403983063767
Sr 12.911823131852916 15.892214669387489 17.57906441918501
Sr 17.209123205614326 10.474474861561728 17.79951759466245
Sr 12.240567684576028 6.654654008221594 10.746472640768319
Sr 12.337516479475797 10.851026721490745 12.540155597699236
Sr 5.672197495299558 9.404418411193816 10.880380745443865
Sr 13.683927784424757 12.136371964796183 16.636915749849724
Sr 9.023239115397573 8.388277990212693 12.728863975074978
Sr 10.222226457095354 13.583534910204971 15.080318346836588
Sr 11.621391590074676 5.963435369453394 14.824803035130834
Sr 14.871346243591416 13.24659706665104 19.612083877713584
Sr 6.875337533346177 11.438888865025094 14.585193479656288
Sr 13.311941623143367 9.172515185502856 18.754975921731443
Sr 10.66400108093244 12.574528133378324 18.661293520890446
Sr 10.405046120137715 9.550084614585883 16.290445928007333
