46
Energy = -55.12870063 eV
Sr 11.395183440721956 16.601667105843006 4.812396310984721
Sr 11.730072970174707 18.749750006953764 8.34259880712971
Sr 15.123137925369425 16.744100467690565 6.7306972676852865
Sr 8.434371410940441 16.377551177919305 7.860146424401112
Sr 11.926344016835968 19.15876333486225 12.307943507046929
Sr 14.921786894266669 17.40097974332371 10.748021537160282
Sr 13.764571896831324 12.87540605409413 5.142136772467178
Sr 9.29509002558561 13.098575176665555 5.479203494817719
Sr 8.213699540731188 19.15876333486225 10.986077656311318
Sr 12.000311115521967 14.566631407567343 8.020310128020093
Sr 15.609312966129176 13.31948210273817 8.82913587902819
Sr 18.3987476612873 14.865486878096382 11.4369565920034
Sr 17.15147254841212 17.056906334442466 14.634670074549303
Sr 13.137188295790038 17.32655258157576 14.967391995692738
Sr 8.902546006590354 12.548023503858554 9.571446448081362
Sr 8.969110948371934 16.764341862232875 15.01892020764098
Sr 10.908329017153026 16.08173991907748 11.495252604823113
Sr 11.376563196091912 10.21581686638315 7.215989837247033
Sr 6.761453145860266 15.351125123209602 11.63271447911421
Sr 14.648626749063345 14.139045637895947 12.922027187757275
Sr 15.242130927553934 9.19116023891022 8.250037640569662
Sr 12.680491454509983 11.045296795580244 10.871060523263765
Sr 11.31611239906451 16.8092006335273 18.684219539151172
Sr 16.99557758548083 10.887684388360723 11.803958448972232
Sr 5.767974762570258 13.953239387612998 15.274838031022282
Sr 9.41900841992547 12.725666875708887 13.797651959633997
Sr 17.55247138556687 12.91270478469719 15.426781890608655
Sr 8.02228973735644 8.546064337682633 9.571824373159243
Sr 13.992216493243994 10.593827341734366 14.622897706382231
Sr 15.372581352397063 15.323385344718352 18.13018560131046
Sr 6.096709363903785 11.223030102606296 12.124221227661518
Sr 12.179389946066607 13.119304449613752 19.394289239963875
Sr 10.233202717994027 8.546092131090575 13.196002162336564
Sr 12.318983338829497 13.725268962234194 16.37090660829831
Sr 11.831080006037325 7.016359778146554 9.673293743737228
Sr 6.096386025001439 7.491542040622624 13.233883194211028
Sr 8.639690719608414 13.56178731548613 17.99125421773789
Sr 14.79479229418878 7.491542040622621 12.30390634379525
Sr 15.10297629753425 10.911646360501859 18.35365667369962
Sr 17.38463405365966 8.651658871450268 15.47722204569014
Sr 7.030650957905614 10.073487342669297 16.00085522380117
Sr 8.625135326117817 5.064841393186281 11.670465975611178
Sr 13.532236697893486 7.224112601354571 16.357223425718562
Sr 10.89769496652841 10.061141194847778 17.378494842793753
Sr 9.057373938570327 6.250624903164143 16.01492821360694
Sr 12.164413580298236 4.783843870949666 13.409747757400796
