49
Energy = -58.8172578 eV
Sr 16.998878204322693 5.430119442960203 9.440261511452935
Sr 13.148143300685321 6.506203650327822 10.053795287160339
Sr 15.240420246103374 5.827455792073254 13.355245478508781
Sr 19.40302589730846 6.506203650327824 12.483342023633615
Sr 10.941173613616765 6.420216546162829 13.906976537650408
Sr 9.6451148729694 8.357416843872592 10.75344960880719
Sr 15.436300910865741 7.954879913673651 7.301049216660452
Sr 19.65092876885064 8.596319449943174 8.7939779594932
Sr 7.167015880284569 6.881797044103585 13.549481296745057
Sr 11.02280714862446 8.34822291521063 7.113397496330948
Sr 17.280742774733014 8.356336841488076 15.312144340224874
Sr 8.270604113433729 6.858582978321041 17.306559905212236
Sr 16.545841189576237 8.895360887318786 11.060578031569676
Sr 12.344703875761835 8.249889744061647 17.314405623126255
Sr 13.175182813003621 10.714540423523593 9.152677926263479
Sr 19.74720345631963 10.100911313370034 13.131501451954005
Sr 13.319368512435622 9.45305836571529 13.389593987007954
Sr 7.917227269058499 10.479608184222874 7.98981146384795
Sr 9.402659319146384 9.888096124959231 14.75457377837506
Sr 13.55130162036323 11.072473133474471 5.225529045429076
Sr 19.258831094500795 11.743169636050897 16.988831832541656
Sr 16.86107704363186 11.738070617935735 7.589020993142918
Sr 6.0831509085414135 10.347739003781813 16.02938008558485
Sr 8.8586210163096 10.496171302009214 19.058052107600737
Sr 6.691663800301558 10.545461528781312 11.820171964547011
Sr 10.54026132624577 12.885440233738214 7.343964761366948
Sr 9.950410575164844 12.331743074140224 11.337032752258706
Sr 16.907346318645864 12.20399056023291 13.622853648454965
Sr 12.733054276317452 10.774763060745283 20.20875163927046
Sr 14.136190454358198 14.933255670824204 6.76859171219939
Sr 11.789546502840013 12.370894300653802 17.34164488338896
Sr 19.149377361519324 12.760348156398399 10.338850342114718
Sr 15.332296696271971 11.280681391594273 17.24376902043721
Sr 12.97737639760683 13.635013047958887 13.750665172355717
Sr 15.128231291230467 14.077075688267003 10.20098699048669
Sr 10.27825004226956 14.282077095057835 19.772714040771252
Sr 8.376619858957515 13.779493827142327 16.435760735710872
Sr 7.654390883335969 14.462481205311356 9.418561845764355
Sr 6.228400440259663 14.138912520487123 13.362017823853089
Sr 18.06472152201108 15.764380432592535 7.811195425326237
Sr 11.503162497840256 15.829177102845328 9.682804980638805
Sr 19.800363396742657 14.288649522372836 14.09902709289757
Sr 14.454917732744688 14.421270606781109 19.196387797891028
Sr 9.55443280499624 16.091254093349303 13.267325177511442
Sr 16.211909121305734 15.255053857180629 16.036217486377215
Sr 11.973601925691693 16.285868504577426 16.84239348539878
Sr 14.952036918247199 17.51447854051728 9.133057051592319
Sr 13.643572647478114 17.514478540517278 13.083029783841091
Sr 17.559367250898436 16.433163036674536 12.114004563280004
