55
Energy = -64.28312636 eV
Sr 3.798621310618591 3.7986213106185884 3.798621310618591
Sr 6.842635693558036 6.842635693558038 3.798621310618591
Sr 3.798621310618591 6.842635693558038 6.842635693558039
Sr 6.842635693558039 3.7986213106185884 6.842635693558039
Sr 3.798621310618591 6.842635693558038 0.7546049276790658
Sr 6.842635693558036 3.7986213106185884 0.7546049276790658
Sr 3.798621310618591 0.7546049276790658 6.842635693558039
Sr 6.842635693558039 0.7546049276790658 3.798621310618591
Sr 3.798621310618591 0.7546049276790658 0.7546049276790658
Sr 0.7546049276790685 3.7986213106185884 6.842635693558036
Sr 0.7546049276790685 6.8426356935580355 3.798621310618591
Sr 0.7546049276790685 3.7986213106185884 0.7546049276790658
Sr 0.7546049276790685 0.7546049276790658 3.798621310618591
Sr 9.73369218209031 3.7986213106185884 3.798621310618591
Sr 3.798621310618591 9.733692182090309 3.798621310618591
Sr 3.798621310618591 3.7986213106185884 9.733692182090309
Sr 3.798621310618591 3.7986213106185884 9.794339727514929
Sr 3.798621310618591 9.794339727514927 3.798621310618591
Sr 9.794339727514929 3.7986213106185884 3.798621310618591
Sr 9.764014954802718 6.753817626498282 6.753817626498284
Sr 9.764014954802718 6.753817626498282 0.843424994738894
Sr 9.764014954802722 0.843424994738894 6.753817626498284
Sr 9.764014954802722 0.843424994738894 0.843424994738894
Sr 6.753817626498284 9.76401495480272 6.753817626498284
Sr 6.753817626498284 9.76401495480272 0.843424994738894
Sr 6.753817626498284 6.753817626498282 9.764014954802718
Sr 6.753817626498284 6.753817626498282 9.764014954802724
Sr 6.753817626498284 0.843424994738894 9.764014954802718
Sr 6.753817626498284 9.764014954802722 6.753817626498284
Sr 6.753817626498284 9.764014954802722 0.843424994738894
Sr 6.753817626498284 0.843424994738894 9.764014954802724
Sr 0.843424994738894 9.764014954802718 6.753817626498284
Sr 0.843424994738894 9.764014954802718 0.843424994738894
Sr 0.843424994738894 6.753817626498282 9.764014954802718
Sr 9.764014954802722 6.753817626498282 6.753817626498284
Sr 9.764014954802722 6.753817626498282 0.843424994738894
Sr 0.843424994738894 6.753817626498282 9.764014954802724
Sr 0.843424994738894 0.843424994738894 9.764014954802718
Sr 9.764014954802724 0.843424994738894 6.753817626498284
Sr 0.843424994738894 9.76401495480272 6.753817626498284
Sr 9.764014954802724 0.843424994738894 0.843424994738894
Sr 0.843424994738894 9.76401495480272 0.843424994738894
Sr 0.843424994738894 0.843424994738894 9.76401495480272
Sr 9.740139158484293 9.740139158484292 3.798621310618591
Sr 9.740139158484293 3.7986213106185884 9.740139158484292
Sr 9.74013915848429 3.7986213106185884 9.787890751120857
Sr 9.74013915848429 9.787890751120855 3.798621310618591
Sr 3.798621310618591 9.740139158484292 9.74013915848429
Sr 3.798621310618591 9.740139158484292 9.787890751120857
Sr 3.798621310618591 9.787890751120855 9.740139158484292
Sr 3.798621310618591 9.787890751120852 9.787890751120857
Sr 9.787890751120857 9.74013915848429 3.798621310618591
Sr 9.787890751120857 3.7986213106185884 9.74013915848429
Sr 9.787890751120855 3.7986213106185884 9.787890751120855
Sr 9.787890751120857 9.787890751120852 3.798621310618591
