55
Energy = -70.22717435
Sr 14.921655019215864 2.4832379097798065 9.838620864395105
Sr 2.1517770937584038 14.032403948363676 3.657394988752786
Sr 0.03086579607753205 2.3215466979587855 5.245944444710198
Sr 2.546916978495787 15.201082685136482 7.859904149881514
Sr 14.390539395720127 6.00488942897971 7.519122392707199
Sr 5.99691418234793 14.04268771117228 10.181285154718543
Sr 2.3902463535170133 2.312699782148827 1.0429707046289418
Sr 5.99567113017932 13.874758511063995 5.813542574085436
Sr 3.855912874151055 2.4293446611285763 11.407851527573817
Sr 2.643689553336289 4.087716374428548 7.7909515353851955
Sr 1.7475018368313586 6.007038395886593 11.246008719768568
Sr 3.993115826445578 2.1320472946175264 4.651184719858786
Sr 6.006331787190084 15.174112559300243 1.8054531536826375
Sr 14.91615984750493 9.536692901756297 9.821973253363215
Sr 2.2826925808494853 5.996458802376947 3.6876858039744698
Sr 6.001431853197713 2.1148232592720406 8.041160370408901
Sr 0.029816679785190515 9.675155127217593 5.237197810951995
Sr 2.6397197846324367 7.912735507969276 7.7843541004725205
Sr 6.010924728776174 2.377937901556288 13.557932594618388
Sr 9.843265559263914 14.005096594796035 3.6671270667837326
Sr 3.860534413182465 5.992771740284175 14.348165823439839
Sr 9.452309582559888 15.196497310368612 7.857971488093278
Sr 8.141368199889348 2.4249011879967366 11.407000956426169
Sr 6.000078391524947 6.005093076227052 13.546222358089747
Sr 6.014685568981223 4.069450554336332 1.8814305040331718
Sr 8.014227042013921 2.1183638207996434 4.657839187140289
Sr 6.000914137061853 6.0031227748437015 9.74467178069963
Sr 2.3967361640469305 9.679007815868555 1.0247633783137953
Sr 3.8563004359571615 9.587717788378654 11.400236000449256
Sr 5.999206432262038 5.998238519807244 5.680065246068868
Sr 2.5441916328576473 12.009901983545964 7.843812828830653
Sr 3.993509946120003 9.866784469305038 4.645536124462573
Sr 9.61410579483294 2.300703346365015 1.0397957097153825
Sr 9.362824809760639 4.088773840114359 7.788438413069072
Sr 6.0058571532356835 7.926913015531368 1.874112129536169
Sr 2.150351338731997 13.168756894699413 3.648688840697621
Sr 5.9986572566961875 9.89215517876225 8.034376920282872
Sr 8.170392932744921 5.9927824792276 14.359073356111105
Sr 11.971377925962415 2.314833537606161 5.24501920204313
Sr 10.252199507890744 6.007649693119469 11.241902529643825
Sr 12.284922152704715 2.4408545549904335 9.832864119439835
Sr 9.719180681830055 6.000101366233599 3.690507456016077
Sr 6.008971577787117 9.607507135638663 13.546222358089745
Sr 8.138869191377543 9.588559799876007 11.400000435990403
Sr 9.359325591244035 7.918131407429995 7.7867883746319855
Sr 5.996846547070921 13.191176440218394 10.158111110918137
Sr 8.012372247446747 9.876113724120282 4.645881368987245
Sr 9.61320866549395 9.695331769558626 1.0311129482961994
Sr 5.999437792973622 12.022797586272434 1.7893832572759016
Sr 9.447480204174992 12.016971723270808 7.8432230089319
Sr 12.820573522404004 6.002874105571851 7.5361039155577325
Sr 12.280316169248785 9.57169981921351 9.825577238195086
Sr 5.995116381815199 13.333626066949535 5.788074269594121
Sr 9.842317379213856 13.193488429985663 3.6525239333431747
Sr 11.96782915705988 9.686571526671209 5.236318723463941
