5
Energy = -3.17965096 eV
Sr 4.509339094495353 5.250842689069235 4.246236486165784
Sr 5.188354775538194 7.416963653833311 7.591545576889413
Sr 8.147591399052365 5.169862209374368 6.002046684029127
Sr 6.933253449612163 8.613431162136417 4.009132963472482
Sr 4.95463383122875 3.2820732687555885 7.884210839370143
