55
Energy = -67.1683251 eV
Sr 14.549923871076752 2.484611043080014 1.235436423113186
Sr 12.520662576772017 6.13615303950556 4.864043569244944
Sr 7.45046190259224 1.8802315300242984 7.612476449976088
Sr 2.066298416287623 13.857429776788186 4.0716452007932205
Sr 8.715312575021484 5.968246748095801 6.826858561267115
Sr 2.842064244560021 1.9849991549534725 10.957032946157414
Sr 5.416889927174358 4.7261627739287775 0.8573995681292782
Sr 4.57838896135552 8.687387649065471 10.815659920069974
Sr 8.153917805756503 0.5092322562870601 3.8335736087103465
Sr 1.5115695158115718 3.737798022028948 3.1127973573203804
Sr 1.7191060124685784 3.4887189312743216 15.602388338080358
Sr 3.260827991100429 1.6887786662457165 6.817501776134511
Sr 14.44698313739945 6.720480417454938 8.36753355471627
Sr 14.435152503949059 4.536184882120305 4.839689945959805
Sr 15.96768672804639 2.634622724030876 8.464789807888032
Sr 4.74142297798935 10.76190282485221 1.214162762975604
Sr 0.5896051875276308 10.391503539124452 1.163189682395211
Sr 10.855048877487853 7.733600298858687 1.241495436883126
Sr 2.5265502812144014 11.26493333368796 4.802004004186192
Sr 5.464957783516215 14.77533147896638 5.8704567201642925
Sr 7.139459002093005 7.974264603518864 3.111022475496242
Sr 5.3557372108702035 15.47501464540711 9.849595674496806
Sr 1.4189938459790037 15.019638618126052 8.20152424102361
Sr 4.8958078754812755 8.353217393079754 6.6728906979694935
Sr 11.272167305062599 2.448500376040346 5.952951241337541
Sr 9.189443737173884 4.323262125625263 2.8187929216529803
Sr 1.2332539368333633 9.42356247535255 8.404653691860444
Sr 4.978485137791909 4.9200433929026195 9.111860298716513
Sr 5.478450732097637 4.405624942928691 4.859232282851977
Sr 7.0847213222653975 2.407635389000215 11.675392263051735
Sr 1.3093035351531175 5.8896710120771205 10.751672335669008
Sr 1.5921053180044582 5.647852015731368 6.688450678276426
Sr 14.435152503949055 4.355816699509227 8.075701762217806
Sr 10.345600002284632 9.580857788152716 5.08710546427374
Sr 8.865638339262508 11.297549403993676 1.4072639345487477
Sr 8.178200844317672 6.520929154761513 11.089496365088587
Sr 8.140839554876763 9.905981141978648 8.63542786120883
Sr 6.699071770200591 11.68973728751019 4.938673594999193
Sr 2.9649767025371507 7.514121654985157 15.355395800053
Sr 4.246269425444031 0.9856907022587076 2.662798417483779
Sr 4.485122942498583 12.093432267746644 8.430905593236401
Sr 4.147090078198599 0.34410095882766256 14.76685795825703
Sr 16.133435378203004 0.6170161717653573 4.7601025473064675
Sr 10.734179804455986 3.6218449349889155 9.785114852219806
Sr 7.615538131694612 1.3444432433382454 16.3884595404795
Sr 7.134716138994277 8.071523653120352 15.494972237868318
Sr 4.6171018710864855 5.276159323656771 13.20042920398957
Sr 5.452605870719747 4.268976418996722 13.461800713241892
Sr 2.9336231392306575 7.539030051560118 2.9763295184401226
Sr 11.821355336937417 7.580487035561935 8.774511789050461
Sr 9.389890799470818 4.7430664109723795 15.107116374005649
Sr 15.721707840724106 8.531168654426594 4.745481570448002
Sr 0.9833544223021988 16.046716562666838 0.8002734230063326
Sr 5.565494226049081 14.092299799343524 1.444721506516651
Sr 15.794460738128548 6.436765672081058 1.1090716329724106
