51
Energy = -60.83638047 eV
Sr 6.481003268068942 8.097568380819682 16.387727524765673
Sr 4.469454946365046 10.539758461746393 13.836284499110828
Sr 6.414282758937272 12.271920742189932 17.4503227319561
Sr 7.4602040438829444 7.722325369453559 12.344952032728258
Sr 9.415489042780738 9.639158389862892 18.60977603192377
Sr 6.6015354545801435 11.729579444666417 10.379615825420625
Sr 10.387341623831825 7.272206772180061 15.37276754435792
Sr 5.866443245115711 14.42949615567217 13.44384546618565
Sr 10.073053477674343 10.104086280071783 10.696225816678616
Sr 8.437514366982482 11.1881911782924 14.389446957393526
Sr 12.33791305487206 6.887525056099122 11.407069079096418
Sr 9.796143664608113 17.52904535803616 8.859570419747325
Sr 8.818697570454534 15.261989424552135 15.855789672370303
Sr 9.670403839362905 14.154459932588582 11.675653776285186
Sr 11.151806975147794 13.26240115643599 18.40538782290495
Sr 13.388313273569295 9.793432766488186 17.629636369852168
Sr 13.437856775500276 12.52325959389456 10.76759711012388
Sr 12.281526019422921 10.231675326109109 13.842407647936573
Sr 10.275660824517372 12.935434977094332 7.754768966418505
Sr 14.806348989750251 7.272206772180059 14.782907721820996
Sr 8.422288982700133 17.861223723522365 12.78415668547727
Sr 15.392672362203825 6.089364421894128 8.206609863329717
Sr 16.220676568506725 4.803812893703045 11.91439708812644
Sr 12.989573500811822 9.46754935305984 7.983155225975036
Sr 12.611563877637666 14.1665704254557 14.709084269787748
Sr 11.281577719426819 20.276916771626865 11.781646059501535
Sr 17.825956618945256 9.77353721382832 17.02373393814354
Sr 18.764712245190363 7.077971044027582 14.068402089175375
Sr 12.60200390148163 16.985774073260163 11.653665288112673
Sr 14.211857430407075 12.577712899004746 5.643891254749065
Sr 11.83813286284196 18.284964554484926 15.360314278788161
Sr 16.999343583336152 9.548986550674748 6.891788955107146
Sr 13.339173863987028 15.546762899195793 8.091217528304751
Sr 19.294664730520257 7.213874173911508 9.808964943555473
Sr 15.37661124658646 13.320495665346602 17.557982141740577
Sr 15.923454498573225 8.895197998034929 11.014954801318348
Sr 15.96210248568102 11.348421528876694 14.069225845489681
Sr 16.871738168459615 13.372249627857768 8.586471285293518
Sr 13.742416650690807 19.11389862126349 8.630753539736675
Sr 16.06365247449714 15.207257472177806 12.889765528516714
Sr 15.272633194559091 19.163578593865175 12.892504830454165
Sr 19.657099861314347 10.590434636676454 12.629846210339894
Sr 18.430515564882683 12.872329436630839 4.9643481895171195
Sr 17.102598775331767 17.405853181736212 9.730341309250008
Sr 16.400554547692465 16.499786664553852 5.805363866000225
Sr 15.848098334771295 17.19591743912245 16.3372429375776
Sr 19.9178039331791 11.292676017841504 8.519003935037373
Sr 18.965170708569055 13.86067081649055 15.461644311900704
Sr 19.770404600488988 14.365883072324117 11.326177234014581
Sr 19.77040460048899 15.571607478731515 7.404558713167854
Sr 19.045230034377425 17.751966195162538 13.627001721458354
