53
Energy = -64.67419749 eV
Sr 10.921016296022453 6.466112408536659 7.700723282248623
Sr 9.100314355816938 8.725146041406813 5.622772671667419
Sr 7.77071749787821 8.1224418472413 9.029249858829171
Sr 13.225314780345169 8.769117276952022 6.054508539619696
Sr 13.784626475899474 5.460813814469534 12.346191233288323
Sr 14.11781347527099 7.8962966118563145 9.521625200958397
Sr 10.340874623243586 6.958157331716876 11.69400254865652
Sr 17.107368539005417 9.109905718706386 7.215056986328074
Sr 17.34749513390044 7.366927635108952 12.271594423096865
Sr 14.58300755372422 6.883840245728341 15.817904517112675
Sr 10.7097428367647 9.868445331106836 8.600871004561965
Sr 11.308907926226299 12.533316633663452 5.975692309883192
Sr 7.904469702586347 11.898377209482602 7.13246546289923
Sr 10.80462604351616 5.499781211198854 15.360980377949575
Sr 5.734226327368077 11.40284599048421 10.897637160162102
Sr 15.510917790364637 12.056826493938777 4.992177464120347
Sr 7.061846228965541 7.629298397063827 13.24625488044947
Sr 16.73311141254057 11.153329739826734 11.178430468050468
Sr 18.134595367005318 13.035462727630817 7.694401344062968
Sr 14.066113364390324 12.03794143481238 8.357785882250523
Sr 17.072793043372055 10.113464574506986 15.36587054276845
Sr 13.232661727665127 9.573955045099405 12.996056464212689
Sr 18.820178299885644 6.7050322026072955 16.240799553658466
Sr 8.844106361053283 10.80093123253711 12.086483666471468
Sr 19.860724515808936 9.83206974186426 9.782532978765348
Sr 9.831189129633021 8.868001594983696 15.544296755631509
Sr 20.263917638108907 9.899642464878678 13.850218421753743
Sr 14.206931559554004 15.533511368356892 7.047776501454288
Sr 6.379519774198406 15.203503979867525 8.795861506106007
Sr 6.915780221398143 11.235069866197602 15.3247546087666
Sr 11.92488884557523 7.680964643007339 18.588888961371566
Sr 19.448508062723334 13.473145832056193 11.694830983854269
Sr 9.821334363973314 13.987741664902533 9.727489596308622
Sr 16.205193127118836 15.314113572327786 10.440200695914198
Sr 12.949487011174432 13.604769789843953 12.451267209214352
Sr 9.7142878366974 16.32795749935063 7.132465462899228
Sr 16.170435891811557 8.794086864082715 18.690485869665963
Sr 19.66280986173143 10.168159149941518 18.106343648840127
Sr 9.538026402201217 11.227434614206791 18.406875661526616
Sr 13.321371336830445 10.832800388569208 16.87174390267581
Sr 16.513427406756087 13.968680910259199 14.354881803529596
Sr 7.636231201139561 14.624287789963908 12.730246046170565
Sr 19.721434349993807 13.726315594764113 15.874521558873528
Sr 8.452735793540397 17.420813046191782 10.403444586478743
Sr 12.423720630245993 17.054839826304427 10.002730587997586
Sr 18.863027210425933 17.159577312593775 13.417638468851434
Sr 14.664647835044233 17.420813046191782 13.682849854898118
Sr 10.021942819640698 12.990472772505338 15.238874271505324
Sr 13.36203928648264 11.659327562919598 20.253283878548586
Sr 16.771775256070935 12.833109306739177 18.394834473201147
Sr 10.57579364622264 16.798310770768577 13.75490264876222
Sr 13.35741236318702 14.926627784533444 16.873423918327475
Sr 17.190661820083328 16.802298103804016 17.139040373856698
