5
Energy = -2.32270298 eV
Sr 6.673909568209288 7.934105520827905 10.97056329025108
Sr 11.228003783138355 8.63339758719005 5.13072884356472
Sr 8.459538626196656 6.248508052015759 7.405577423143591
Sr 9.47060454225206 10.062352642377197 8.748144046918274
Sr 8.057804098245287 11.71195352826704 12.442465288996367
