53
Energy = -63.97005339 eV
Sr 15.492705592086493 16.105376412020583 16.413472089662594
Sr 9.447445146698072 10.731006464789699 17.794013094754593
Sr 8.06409510579772 14.238501121046871 16.05455255665496
Sr 18.439110644384765 13.763041782828278 14.783006521998683
Sr 11.482623517648712 17.590444217738483 15.807541753838812
Sr 15.778927991728324 12.168511542650956 17.794013094754593
Sr 12.093431036304542 13.65500118184394 16.628037741243503
Sr 7.959544225779281 17.981876625601632 14.11380395924422
Sr 14.801787592180409 19.49531797212232 14.264400128913964
Sr 17.977103722685467 17.38410273578143 12.685853929020295
Sr 13.200933371546697 9.036320853261351 16.145298892385288
Sr 17.619114266805603 9.60835558418608 15.321479685730855
Sr 6.8819335585353425 10.623856108016046 14.3110286745827
Sr 6.400502513292688 14.35875405232875 12.407391924776665
Sr 20.203369480143824 14.390898825634178 10.586326431806429
Sr 9.1427305143663 7.4332071230310595 15.48038422243987
Sr 11.274785332500127 18.835864788194737 11.997129151920845
Sr 21.001634052432447 10.9469754246579 13.695640269793122
Sr 14.135183953526964 16.069210963596028 12.720433456673502
Sr 17.885023824326094 11.434998589074786 11.484566726963118
Sr 10.586049814560067 10.964869442938397 13.709377556159847
Sr 10.270637512921855 15.075030200610264 12.793034023252126
Sr 15.057064117322124 18.806782568455585 10.071954226209668
Sr 14.768388791178513 12.279680966704937 14.164437891200203
Sr 8.037333872918266 17.28641477885071 10.078081946896784
Sr 18.935664741775987 18.44416146288443 8.629562951067717
Sr 15.006342226773928 8.780197986849833 12.263174998398197
Sr 19.115634247275004 7.6049144878438595 11.907458664268773
Sr 15.23676317816867 17.31984301418022 6.2169439400317605
Sr 11.703174038294025 9.737971570958546 9.934891819377414
Sr 16.714888398354844 15.295512367337727 9.342909405428296
Sr 21.487639984279667 9.970945816321152 9.821847138593926
Sr 11.98942899881916 6.681271938857838 12.663789082489444
Sr 18.964051024517264 15.27341729886919 5.982852837329343
Sr 8.796187037221369 13.09464861007506 9.588486365065636
Sr 12.147808799688692 16.067080467650154 9.01507138497701
Sr 14.055437872149623 12.609773836092105 10.194911087116763
Sr 5.470684868147382 14.844918972095197 8.356972042651105
Sr 8.812934575830774 15.962697435557056 6.33103897652489
Sr 15.913854415278175 5.68162451833715 10.09692475265836
Sr 15.58255232936587 9.100116176923974 8.344714546943482
Sr 8.392976911542192 8.00653189889652 11.401111540934114
Sr 18.80607434828619 11.611189880470123 7.64505895956063
Sr 5.886958691969218 10.822477521137662 9.830140295129201
Sr 19.129162711788755 7.31467236777696 7.777031459593495
Sr 12.03311498100991 6.440803373325968 8.502136079984584
Sr 15.295474944810715 12.945948235185169 6.240263189627771
Sr 11.309384721105927 12.639324976833539 6.702503978801771
Sr 7.417200755568555 12.261351016777617 5.858261812258946
Sr 8.861801426278912 8.962135422019019 7.378272981070862
Sr 12.787612478440852 9.081677648843726 5.8582618122589425
Sr 15.531038504112587 6.1240496648070675 5.954608857258276
Sr 17.04906279056634 9.487788094282763 4.894125396879652
