52
Energy = -63.0148239 eV
Sr 9.635656589456751 10.381331545454337 18.19685768454448
Sr 13.9225437081519 10.842846206603864 17.945132123573256
Sr 11.513260598661235 14.224908162816117 18.48915474474442
Sr 6.498065635851925 10.80254527169427 16.39908205898535
Sr 16.197791842237063 7.405250973636191 17.993482641131486
Sr 12.234483353848079 7.497184083787989 16.177139564244463
Sr 8.065258350475242 14.340026638420074 16.737879926928052
Sr 8.657749555181177 8.525163104794597 14.440759917010803
Sr 15.124732541739919 14.787024083023294 17.011855512850577
Sr 17.728724571998946 11.111881012976422 16.59560009535347
Sr 11.430715307602183 12.604286913712945 15.522395313170687
Sr 5.327276023713639 14.035146824522679 14.179499007971868
Sr 5.706407560349301 10.13489735890413 12.268712256474306
Sr 15.439313160719594 5.288823181264512 15.03745645213991
Sr 11.606951291910855 16.66011902393915 15.451546097796246
Sr 15.449623294436314 8.594335326160458 14.216459443307015
Sr 19.101829396337667 7.282994819709706 14.868899469161853
Sr 12.885963558932353 6.861025543980549 11.835320315230767
Sr 8.273923808627046 12.288523016126074 13.095799546414145
Sr 11.975384640184725 10.154394720106175 12.318555457083258
Sr 8.126456067673576 16.40146064714903 13.007909225056897
Sr 8.662304159531793 8.695676545720133 10.297301917956897
Sr 18.556285784484288 14.627398295871378 14.448475906045946
Sr 14.98566984515559 12.672806566210514 13.709332677467806
Sr 6.495096296842615 13.9611959758958 10.259428445086781
Sr 17.523665765898517 5.8952899022577165 11.5014297467411
Sr 18.310482446332518 10.916495419735428 12.566743415517028
Sr 20.057703330119505 8.261272112727431 10.970239899911597
Sr 16.054039780223956 8.56625864456738 10.178452373291696
Sr 6.33060824161867 10.465395405934677 8.105980173377173
Sr 14.88008300213788 6.075506605494746 8.021804328137438
Sr 11.595523716037397 14.495331634534361 11.921191158885838
Sr 12.226087114573101 8.821076138489856 8.301920764091404
Sr 9.787103445186167 12.526579014562035 8.794024019533378
Sr 18.76379348072792 6.8610255439805465 7.677463446472089
Sr 20.632733856092162 13.36501727870006 11.317461388202624
Sr 7.301855219410347 13.942908118415351 6.841845724537767
Sr 15.209693512903504 16.760902357370966 12.922588198823473
Sr 14.448228198377638 12.054593654170839 9.571251178666563
Sr 17.40751870451005 14.420705840359103 10.538615740784573
Sr 8.902164202713944 16.508152799387226 8.882709749395115
Sr 18.871398178243098 11.22861818441403 8.46695338925809
Sr 11.701275785664857 18.477299146604032 11.35773913549549
Sr 19.5941525808911 17.470394567841822 11.601804262969466
Sr 15.795247322150678 9.472728209896523 6.88954537444941
Sr 9.037653723554483 10.383902550812 6.175157370312078
Sr 12.977290963390672 15.67994597104447 8.34563329819919
Sr 10.315158198252034 15.154824266065917 5.734166012144417
Sr 20.057703330119505 15.594547795898286 7.860531083142982
Sr 12.756722059765426 12.171927397869107 6.483138002604289
Sr 16.45017305073716 17.893899404932842 8.840799003315695
Sr 16.376944991188815 14.083205536349858 7.138621684635005
