50
Energy = -60.86351752 eV
Sr 20.652909122315563 14.727889848781949 13.56125542539053
Sr 18.761838201501437 12.067031829122602 10.47976586852993
Sr 20.262595475404964 10.640948957260965 14.360950243645974
Sr 17.45782966679992 15.837931228524758 11.492077698451224
Sr 15.855136987993252 12.620001305671627 6.981063302914993
Sr 19.45343380915744 13.533613527197895 17.400701009811
Sr 14.49502687014823 8.415606396579207 5.4566235450604275
Sr 15.907021426608916 9.138676816173271 8.938226040828775
Sr 15.118815354115661 16.47166756984518 8.496092477287036
Sr 17.105081755405262 16.85073552863923 15.44535247005999
Sr 16.69632954865125 9.372580633531758 12.909278589588931
Sr 17.26257769328171 13.016814874651931 14.256453893639767
Sr 14.638667648219332 12.747703130610876 10.74886083004424
Sr 12.693760324775933 11.784551426033673 3.9471724066649387
Sr 15.322374796413154 6.097916828875887 11.260721134117576
Sr 14.345810218503784 18.374681661118792 12.236599314579333
Sr 17.02051615222833 10.023575195918617 17.045723011285105
Sr 12.107625197670094 14.747825431649527 6.957664577451844
Sr 12.290472060209957 10.735761723757319 7.538189993809729
Sr 12.161689396947992 7.09007056054381 8.471568963170915
Sr 10.29343573752733 8.388843948854205 5.239243397411481
Sr 12.807494012405115 9.15024583376533 11.759226118763904
Sr 15.497999490046256 13.79156391365622 17.792253658061114
Sr 11.87061796631916 18.82331291829983 8.76940854762464
Sr 13.548064420579776 14.941249165360755 14.180903142997078
Sr 8.938043672055118 12.461492154202416 5.766290831483385
Sr 11.714125055625548 14.1751544751848 18.297992847044117
Sr 11.419684998814752 5.598563913524134 12.394552549624315
Sr 11.628242998341044 15.517895503208548 10.725426404643825
Sr 14.283606353025018 7.090070560543811 15.276500566340179
Sr 8.642531104473136 16.361737262707152 7.987923839464144
Sr 12.921816717803722 17.90677897200543 16.504254945627327
Sr 10.241173174236499 18.374681661118792 12.788910111711235
Sr 13.430113265400337 11.158374178971457 15.189363354277162
Sr 9.395965991553856 12.479655963364383 9.484975939878765
Sr 8.854514876765652 8.456344667655115 11.529012540079894
Sr 8.23263812910524 5.562913196933895 9.266861469483759
Sr 12.913070056490037 9.971185363909859 18.649239508478914
Sr 7.342438681003787 9.338453430370635 7.912735081641925
Sr 9.67794042053448 11.992609597940637 13.491656347073906
Sr 6.016342870005538 13.459370000560016 8.006412495035939
Sr 10.414805314488175 8.141489826917145 15.372949869316356
Sr 7.5074403122558655 5.557836807494055 13.612947784316278
Sr 7.488110573070541 15.286917265385574 11.803912366147586
Sr 9.524641682302924 15.498266593129324 15.48334375673356
Sr 5.315946781727756 7.387399532429634 11.05554227219821
Sr 9.0072135826668 11.447439351036586 17.460844554698213
Sr 6.226779374535354 11.421366616990113 11.47905465699225
Sr 6.765546475623402 9.17988230196084 14.801732682481676
Sr 6.279806321429223 13.292503497843711 15.207548686792395
