54
Energy = -66.38307054 eV
Sr 16.028405490139352 15.662604402578786 6.865880222706487
Sr 11.87221463485697 16.125162804317508 6.407725924403885
Sr 13.657454723413226 18.066413978517108 8.937807205934009
Sr 17.283551839802147 15.974649903772342 10.180006140290853
Sr 13.13855663860931 12.450596114857175 5.938480996833901
Sr 15.796050122932003 18.71517032748414 12.284377122433646
Sr 17.34989266691218 12.212042368238475 8.373701421842576
Sr 9.180856111815029 16.723790582264517 8.455326075754527
Sr 11.382168144263913 18.207782525497123 12.276392142378613
Sr 13.759608272034896 14.199923345804743 8.902399720645766
Sr 8.512407366722458 13.407610255827246 5.901872329760977
Sr 17.752584104523837 16.18754105783447 14.360301704495992
Sr 14.112246764088576 15.997488884116706 12.607896300413847
Sr 15.401713457434814 12.230314828399454 12.035508239710124
Sr 18.601223954162478 12.91666186155656 12.340985906683406
Sr 13.659124918831559 10.20127127658594 8.37652881307258
Sr 14.155000527338666 18.04167130190192 15.89341138204002
Sr 7.308776428822681 17.316585395445706 12.250526494410995
Sr 9.933149861600667 16.974292533589743 15.639146816116936
Sr 10.27617995448138 9.259197000246905 6.557656326263853
Sr 6.9767209331318965 13.451552225103338 10.251939391893314
Sr 10.484611450353677 15.104535132417858 11.682842695665999
Sr 17.139660561184364 16.333943893138173 18.451219605009914
Sr 7.0301584347290715 10.041564181201721 8.082227826154805
Sr 10.339612613002627 12.497198433995473 8.227664999793708
Sr 18.376795947458284 12.68232503439165 16.835570758755388
Sr 11.315693972291129 11.218282101583076 11.973016548648676
Sr 12.96747469555656 15.394963805495891 18.812369750033426
Sr 16.251654739585362 12.767754090636187 19.390190900882576
Sr 7.687323850887629 13.467033882199539 14.281932710522137
Sr 11.868164963389463 13.632308053941761 15.223130311326361
Sr 10.302267629813313 8.182447989927445 9.723276272355005
Sr 7.4281592693388 9.412413180107665 12.740908329435117
Sr 15.535994194207513 13.29982107745346 16.229595583188953
Sr 14.376908897132568 7.926931554716094 11.495581479314696
Sr 17.614009363828778 9.52037177178911 14.162545141831572
Sr 13.703372029189238 9.822366839144268 15.0247238057764
Sr 9.036187828122067 13.478011324377956 18.254506030407878
Sr 12.631752437802753 11.26737983111114 18.73538480596976
Sr 7.745103653587731 6.647081942290229 8.018305564340295
Sr 5.4524693464865175 7.666714890125886 10.362693647617922
Sr 10.964560444144114 7.271055776438628 13.609117704000594
Sr 4.821203540799876 11.288040549546924 12.698828047768076
Sr 9.82966827190934 10.292797177109954 15.94954255300393
Sr 11.53782556916232 5.270917262876707 10.906901895288664
Sr 16.17194136015874 9.117846637782957 18.034471660589137
Sr 14.741941852234556 6.73509587893558 15.019573430159713
Sr 8.781909928228265 9.364750934293466 18.81236975003343
Sr 7.60633495687914 6.156260484728584 12.270072205407212
Sr 6.706852552336956 10.429580597540738 16.61665689668156
Sr 5.061407659014091 7.289710942366234 14.366574044932232
Sr 11.95615502570434 7.206342317404549 17.688322358672075
Sr 10.784539096847379 4.544694719882433 15.137976814466704
Sr 7.927738220338944 6.735095878935582 16.301810016130084
