54
Energy = -66.69530097 eV
Sr 7.627557441024204 9.314101365557883 18.983520877937234
Sr 9.518464386673106 9.176957858819977 15.365862117667266
Sr 11.658390799721005 7.508613777369218 18.437424481862564
Sr 5.760088642474639 9.253108419405297 14.773185913930108
Sr 8.037634773048106 11.206023464327753 12.187091684715913
Sr 10.816632818616085 10.176459798157394 21.277699319721876
Sr 11.560104650791333 9.473418337545894 11.69519501753005
Sr 8.27275487889872 13.292879839667087 19.960391098317057
Sr 12.465254951990788 8.780567623264455 7.178180125608384
Sr 10.871073851131458 11.511541478408896 18.181004419932993
Sr 4.977165505262259 13.12377527544922 12.420207012067323
Sr 13.82472157651725 9.75989011380451 15.143973189258187
Sr 14.330284293346773 17.574007271672258 17.235421623168346
Sr 14.411544968029306 10.275598903092414 19.553602729865297
Sr 16.46188660355151 12.734031342022265 13.622914401932217
Sr 10.250532331742752 15.480566069152152 17.393673121789455
Sr 6.782641121843443 12.585433974553364 8.700390459920243
Sr 15.212132661817176 12.224748656286174 7.611196148376424
Sr 12.588631002515422 14.08902380334735 20.08118766053387
Sr 19.79711328554805 12.30126925946415 14.300362882583894
Sr 10.995181188985244 12.064630439361204 8.204692257876633
Sr 5.2847057825373165 9.205362256314235 10.520540986672945
Sr 17.55250208399077 10.88947625574559 17.075449837787207
Sr 6.782641121843442 16.76804770228531 9.613722244483721
Sr 8.220691128143342 7.2260807586873765 12.347845638675684
Sr 11.887710566876578 16.526802015782984 13.833049216587327
Sr 7.344956946730493 12.577682172806693 16.273519383358913
Sr 15.765599171350187 7.117012237507595 16.733485698067653
Sr 9.58814415613131 19.185562300681113 11.843391115050476
Sr 11.059283524820472 12.781046817609438 14.236624707197022
Sr 11.918398614493006 6.360992971260853 14.424992283706002
Sr 10.068073901047525 15.360353110347239 10.191066023283879
Sr 8.556431716768813 10.693328613638498 5.580190455466059
Sr 8.769437637622154 8.692572871000086 8.797772977311382
Sr 7.901042056835867 15.574646904825736 13.508956148811048
Sr 9.935372140930152 18.616935896689807 8.042434353769503
Sr 13.771852577582315 19.58504130889885 13.8257153368619
Sr 13.666061011930152 13.586405272222562 10.95110561710142
Sr 17.910702731346788 9.010989420447734 13.474595941772597
Sr 17.989932880365554 15.186169231040571 16.563392882869778
Sr 15.668486341122215 16.60415474969514 13.412840789445225
Sr 8.8869621344078 14.917900522858051 6.405249585087358
Sr 13.309507422863389 18.044256907448787 10.308348509692358
Sr 14.136572024187235 13.598952518201363 16.807931356769316
Sr 11.925609951530744 6.231858585644799 10.117238064545289
Sr 17.79757024449802 19.2962828605418 15.353711902458944
Sr 15.360263704463623 6.33827984466658 12.505191647698414
Sr 12.143253066966084 12.457932138873689 4.630413000432984
Sr 15.181935943956033 9.51471688299589 10.344533642792697
Sr 12.887646443863712 15.576192821152784 7.401315778829965
Sr 16.694588455547162 15.807077953195725 9.319803454457086
Sr 18.46393874707369 12.20147837394332 10.33336839166499
Sr 17.207410969748494 19.58504130889885 11.26259535408905
Sr 18.792940421163532 15.968541120296177 12.57132244565323
