6
Energy = -4.11018138 eV
Sr 10.215594725393029 11.41278759515564 9.953501930440513
Sr 11.800347900474117 7.82093520049465 8.252414653075888
Sr 8.685565254030372 5.254452241060909 7.1869316719597816
Sr 8.251335181328145 9.437891265160642 6.923190579557429
Sr 8.35758631953309 7.7891559443176925 10.52079807964059
Sr 6.0561780970661845 11.257584495712338 10.001911797098963
