6
Energy = -3.808531 eV
Sr 9.887114374646426 6.8014265200944495 4.462681794443027
Sr 10.308402458287368 10.029444441051496 10.723881745225397
Sr 10.322391669825562 6.2891209363102 8.753655273385515
Sr 6.637005583804814 11.94370485346201 10.236246240578149
Sr 8.195182482515433 9.432208350624933 7.305039929444008
Sr 6.96920315840226 7.820722121936081 10.83531581866529
