8
Energy = -6.08598399 eV
Sr 7.262992132501138 7.562641353200252 7.357156565947892
Sr 8.075106633291316 3.347487031604626 7.988789179795269
Sr 3.896282060287657 5.91652766678686 3.879270652396298
Sr 5.2241379236114645 1.9532007582439965 5.044895407407456
Sr 6.5248299280057775 9.014348711986255 3.627684508963816
Sr 7.7663856925452786 5.019437397888701 4.314088841201727
Sr 3.4795283971020905 8.880153272377433 6.63809542598261
Sr 4.332269417686129 4.867735776322136 7.711551603335907
