8
Energy = -6.25002933 eV
Sr 11.10581170361944 9.734765715940702 5.309932815258367
Sr 9.07244421903234 6.642914487433587 11.068481886643125
Sr 5.430441237258144 10.825829282844932 10.576744786403923
Sr 12.039631127989933 9.035326485480967 9.230898080622328
Sr 10.175672892415188 12.685562226559055 8.239795616799514
Sr 10.431093730206547 5.942661849784516 7.087759863930595
Sr 8.242817744367116 9.207443159557911 8.136996966220238
Sr 9.342508695588768 10.743393488552877 11.855093976657109
