8
Energy = -6.10420262 eV
Sr 10.823620795075673 7.269608417401895 7.410894201319211
Sr 12.860902635752238 10.751284980499438 6.480485227182813
Sr 4.702015002776014 6.250337443713256 11.097724472086503
Sr 9.476515721074382 10.713079849654514 9.010139301221878
Sr 6.707680114305021 8.035866831039382 7.836663713430996
Sr 8.726110331091066 7.214507343179717 11.224063154428666
Sr 5.913177741305067 10.156303158087093 11.316201319641753
Sr 9.140600527412268 10.024493015204184 4.929125319197832
