8
Energy = -5.79455474 eV
Sr 5.406108639781545 11.10328687986237 9.94662336182245
Sr 12.74278290786065 9.3133321665545 7.939294817960344
Sr 6.471971983475408 7.212398117543026 9.041536557689238
Sr 10.716605853744923 6.142540993263814 10.252336201332122
Sr 9.330075692794725 9.839904238339228 9.86766185932331
Sr 7.514944943927887 10.632757238208299 6.440695457300133
Sr 9.625829216244496 7.226337529933079 6.523112767913886
Sr 12.768683855694526 9.241996061406203 12.059235899788547
