9
Energy = -7.07333176 eV
Sr 4.019788805104137 8.473499096261751 5.8376010947270105
Sr 2.9369201471821205 4.437397534048915 6.4844467183688534
Sr 3.195582723159516 6.057983172943966 2.6148380533783584
Sr 6.079821615383866 3.49785863777854 4.173611923247861
Sr 6.2655510349498105 2.1851131571126254 8.009205582092978
Sr 8.01492720010562 9.169438877194292 6.862755047549349
Sr 5.811524547340096 6.157032171365357 8.67566787707801
Sr 7.09499973639992 7.323530572627567 3.316814239798114
Sr 8.978714666628338 5.095976607057795 6.422889723392103
