9
Energy = -7.04149913 eV
Sr 6.85974753247211 13.329702515028186 11.589746743472794
Sr 8.364758048939198 9.339906828881979 12.499436994343705
Sr 10.319453973560261 9.891695008578688 7.336804251915818
Sr 8.55789679570546 6.672904319826812 9.220475940576273
Sr 10.552004756057022 12.168794646446782 10.623794597752637
Sr 6.6847545889065225 10.331063073154986 8.961380624063516
Sr 12.081246495085576 8.348238666516735 10.734558719655846
Sr 8.388077180814843 13.74518377579376 7.574929787889479
Sr 12.13027668193594 6.217412257062977 7.198848585159882
