15
Energy = -144.25753029 eV
Ta 4.235586480573124 8.040266962418192 8.237812468328976
Ta 5.426265181843264 9.381042630363835 6.398996207908285
Ta 5.830855338605518 7.9210909775573315 4.367357022766086
Ta 6.375964182691814 9.203939341255563 9.023395864536141
Ta 4.807847935770294 6.424521118999948 6.262277940537749
Ta 7.101413497339206 7.441191244238149 7.139481056501907
Ta 8.2288461914879 8.60878628481815 5.102908609368658
Ta 9.31616303196579 8.418345261703772 8.074173520446966
Ta 7.426756916052973 5.980865132828797 4.748093268546684
Ta 7.944456250707661 7.540966996165831 10.108936066879474
Ta 5.8743609285934415 6.233582578970646 9.17235528731433
Ta 9.866608693698018 6.778960548200641 6.0837838268751705
Ta 8.826003376780255 5.72586019898839 8.560038946065218
Ta 6.582646937402347 4.535463259163337 7.154078510709391
Ta 8.879952713250345 4.474138773510016 6.280982438370108
