15
Energy = -145.78584738 eV
Ta 9.767410372253298 7.481073222095709 5.6989927327547525
Ta 7.002336609380624 7.208626692438839 6.04802946774223
Ta 8.477908683916588 9.740711930509356 5.821128833261602
Ta 6.15318178129653 9.748313857374022 6.892480610348326
Ta 10.858927610154565 6.715022002604213 7.8986326982994015
Ta 10.469220807943016 9.339543393592292 7.472764256938717
Ta 8.846606758500785 5.35529330049328 7.047027140313445
Ta 8.244823809652678 8.063634381992975 8.241753143605056
Ta 8.211896501078476 10.873674765019585 8.31476011644273
Ta 5.2633720712353 7.68879415556113 8.200731811620651
Ta 6.672474437711185 5.569557798223292 8.46609107327499
Ta 6.102686956512718 9.850293571373935 9.597831841151619
Ta 8.983690056360453 5.902120886240118 9.647784182831394
Ta 8.517273151311821 9.346678390946197 10.438508084680901
Ta 6.724554003083387 7.4130252619262285 10.509847617126102
