13
Energy = -123.80648485 eV
Ta 4.165085225720903 6.200627609137284 7.971975303324466
Ta 6.785248217661514 3.4685437238090837 7.160430605752875
Ta 4.524009356123826 8.514868730144098 7.104129113125293
Ta 5.9182028184034525 5.680525913171816 6.068610092522733
Ta 6.315611367169529 5.2357924304907195 9.00722964053435
Ta 6.776140562293275 7.632553573239917 7.891868194488678
Ta 8.52805753271964 5.372202171256293 7.737878931832591
Ta 7.426438690551926 6.250016016031194 3.7307794113969153
Ta 3.535828040781805 7.104356705898481 5.288526134303362
Ta 6.1664829215320465 8.319246619012565 5.030327393671303
Ta 4.95118350212685 6.392819285186779 3.527971595421811
Ta 8.488925308765323 7.217018073005113 5.876299068033229
Ta 8.311838062999021 4.433316511738463 5.34864233059245
