15
Energy = -142.27317205 eV
Ta 7.204704569501562 8.398415322522045 9.136774955477948
Ta 7.45407103730765 9.1243997573239 5.321797119112193
Ta 7.181670674282783 4.808621453217641 6.663204332322318
Ta 6.0860046889801875 7.2810635531948 6.806163780248988
Ta 9.367912290755239 6.530122012080948 9.962491335328894
Ta 9.33965559382816 10.845058792903826 10.053934001068681
Ta 10.32510139804938 8.722252840906945 9.18502732996352
Ta 8.45112636323037 8.903137005850823 11.31721842709493
Ta 9.508081737731523 5.061922208543305 7.484195703892597
Ta 7.184724844181811 5.782259452103919 8.961308019367978
Ta 6.076282124004782 10.064727967692452 7.017455577837371
Ta 8.033483101338946 6.540297366877253 5.039057587037202
Ta 8.763146825186487 10.357143704548799 7.453814450369464
Ta 6.917087632238554 10.975897556291375 9.369379523933986
Ta 9.071263681621797 7.568997568180675 7.192494419182645
