11
Energy = -102.17780397 eV
Ta 5.880935268311724 6.64052076630391 4.0856333620633
Ta 3.5747801199249563 5.652963384049152 4.728304227603272
Ta 5.573412844599015 4.0040051985392076 4.577342270918647
Ta 7.798352808198257 5.200811812208811 5.52912140843622
Ta 8.293849347648 7.358580632465665 4.310031286610934
Ta 6.967413088486101 7.715884659690505 6.429151625025387
Ta 4.313275334380851 7.821830412526951 5.9428795149505165
Ta 6.489690276586021 3.45556445809485 6.934042175720767
Ta 4.633793738694001 5.191956746786873 6.9909386203756805
Ta 7.209593511502135 5.633127109317401 8.129654739834214
Ta 5.2258108942892045 7.285662052637219 8.303808001080895
