13
Energy = -122.20397308 eV
Ta 5.436455401317967 8.892067469916865 6.961028169568475
Ta 5.4364484638778965 3.460683750005523 6.961029325808445
Ta 5.587919609760889 6.1763785005611815 6.6780337384478425
Ta 7.897318699500109 4.7590448692414675 5.784441908920864
Ta 7.897322168220145 7.593697100761163 5.784434971480922
Ta 3.7982328043982276 4.919274961237323 5.035640907968199
Ta 3.7982385855982033 7.433477414925287 5.035647845408146
Ta 6.849179022985621 4.718120932687097 8.616587936874534
Ta 6.849183647945627 7.634597912515633 8.616582155674559
Ta 6.306727260714614 6.17637965680115 3.914465995374207
Ta 5.883942158838669 8.65593377544915 4.545885863301454
Ta 5.883938690118763 3.6968209131932745 4.545878925861511
Ta 8.667924651059787 6.176354219521439 7.8131738883670385
