12
Energy = -111.32040782 eV
Ta 6.1235280346799685 7.335863683649769 3.3537518354635787
Ta 5.455518146805635 5.428211605054861 4.535470705454003
Ta 6.526684425068333 4.645954829436603 6.656244248300282
Ta 8.049603592091387 6.310013759672988 4.972628371622838
Ta 7.414127029804901 9.011236648475114 4.566917567992728
Ta 5.961016978343904 7.510807814486596 6.268632483636729
Ta 8.554279329888445 8.543902548861713 6.66493861236633
Ta 8.669363591732672 6.234601401471546 7.582141488023893
Ta 4.734537026474829 6.147288481292165 8.048978847789671
Ta 7.159532870597162 5.249973597524385 9.23799037923685
Ta 6.889530599035001 7.997301973073538 8.82376922505088
Ta 5.4626132025820295 6.616968621888683 10.346606158187326
