10
Energy = -91.32673819 eV
Ta 6.526865340948099 6.003405915999527 8.254495438319225
Ta 8.000789671003671 8.123815421387844 8.824903887207935
Ta 6.3583490851505315 7.518291806643947 10.520058081048626
Ta 6.92701480616424 4.698459992405099 5.737434803453769
Ta 8.488648363965794 6.714252020911679 6.404967783738534
Ta 8.64183311992421 5.278342314954705 4.095667390646671
Ta 5.295146696659106 6.696083388689583 5.934573654396483
Ta 5.060037036115357 8.089624649010261 8.476991946059684
Ta 6.741574771112007 8.803733320250844 6.669291140982978
Ta 7.1768973877610795 7.274742296465954 4.273760817923119
