11
Energy = -101.76806814 eV
Ta 6.623274544637001 9.395010888832397 7.3622921129091825
Ta 4.5350873202576505 7.748420186823012 7.070539232882201
Ta 8.997956595568002 7.95384193585996 7.584985267054234
Ta 5.451488834431776 5.227563669836934 7.087916617473001
Ta 8.110477031977679 5.317900340557104 7.397094365572617
Ta 6.723243863200156 7.1083426000457 5.772088593998606
Ta 6.380126614200767 7.003970844732182 8.782588520860445
Ta 7.8363431059872894 8.975275441394265 9.709168764853747
Ta 8.772350245783429 6.461984218762046 9.726779430158317
Ta 8.34780597046052 9.123819280091825 5.32934786754777
Ta 9.261437595038384 6.603032051142724 5.347605759664822
