12
Energy = -112.89276425 eV
Ta 5.766367714643501 5.439089143249774 5.117844905234649
Ta 7.617575489034765 3.8496149135027418 6.049646010922465
Ta 3.9764976420762808 7.524189813048413 4.982843174157434
Ta 6.410659695906813 7.961419515919357 4.409060117605381
Ta 5.881542795398887 5.032334329339882 7.785397683210821
Ta 8.087852382179852 6.579286531993686 6.29257686423775
Ta 3.686144752605323 6.024795600170504 6.775073439892725
Ta 8.557518307652284 4.479527338712588 8.112321610503349
Ta 7.84608251090634 9.36449028659539 5.8333871816106555
Ta 5.810683246790833 7.788907226621304 7.106908048770585
Ta 7.6379453395472305 6.665483942466312 9.022029124626703
Ta 8.266476516662662 8.839978418376749 8.055662959446565
