14
Energy = -132.1608631 eV
Ta 9.644955630675277 4.60895234377614 6.272427384113859
Ta 9.25901938613823 6.2899555668736635 8.112447962984739
Ta 7.735810458674311 4.486671891813659 4.544574235994353
Ta 8.412700896823031 6.8789258863232075 5.491476668106986
Ta 6.927128308235701 5.977770008220679 9.559644821088602
Ta 7.108478934012182 4.941068713029553 7.168153424297669
Ta 6.982832326404232 6.738964046776684 3.324538206601444
Ta 5.396383085642945 5.769449328857452 4.999438597659951
Ta 5.52477523433511 8.049716754985905 9.855900162190405
Ta 7.3205238300655004 8.01515603344136 7.824843507167375
Ta 4.857234198849209 6.5330099273021 7.7300036812612865
Ta 5.966535259645673 8.398784605631501 5.310233736725844
Ta 3.6015337332451023 7.735288433753003 5.7967949522978435
Ta 4.859951156000458 9.1953209012434 7.64591475351162
