11
Energy = -101.95989367 eV
Ta 8.153549457758933 7.061896796431007 5.823621934188236
Ta 5.63047737288585 7.477715527594744 6.286130200047669
Ta 4.938263273141397 4.683546253937457 6.365180173946764
Ta 6.479817520561388 5.577994117679483 4.235331246404416
Ta 8.149694913252302 8.175204456755313 8.492956867181718
Ta 5.696278090811092 8.667304138621356 8.641662740195148
Ta 7.457946620470012 4.322765055193444 6.212077011178595
Ta 6.434905031025402 5.935165754606645 8.227970624859648
Ta 4.120290320756673 5.960818476935278 4.458443385635147
Ta 7.2062451220855905 9.606310704896973 6.716152928753704
Ta 8.99355708066257 5.818738517863187 7.8171275083682294
