15
Energy = -142.64041958 eV
Ta 3.2663883661288216 3.9671895076619488 1.54834289783502
Ta 5.529965882724393 5.183243830230957 2.6249538189296326
Ta 3.383005230588579 6.441449911245221 2.239747897211486
Ta 2.2030141151226763 4.951804647618895 3.842270175818328
Ta 5.363483733251457 2.701100905579607 2.369961038767938
Ta 3.435555281848215 2.6790386761655904 3.922396764532277
Ta 5.946846809684236 3.7993668193609955 4.956310179891233
Ta 7.177271934700601 6.183931227324476 5.524037344657611
Ta 4.5187506329804465 6.444769039031101 4.8506565746299035
Ta 7.959340367570761 4.276572085898061 6.9458736574618465
Ta 3.6590707595262115 4.334103476567707 6.067041620242839
Ta 5.950900755319589 8.000434240916865 6.756399991823102
Ta 5.672775015420821 4.03576471615574 7.86950022260414
Ta 7.0980149465878535 6.296789663709874 8.30802815428307
Ta 4.440816907277893 6.30964199126537 7.779680400044557
