10
Energy = -92.70698318 eV
Ta 5.537471925664323 5.804444194459346 2.906806682113184
Ta 3.783895819518979 7.008253576942246 4.144863585920985
Ta 6.836031083510405 4.8761216914338705 4.847417105905273
Ta 4.054529348773534 4.421143587903595 4.580632739921946
Ta 6.290027778898502 7.641720681009118 4.641691752151002
Ta 4.500194854270993 6.459405246408189 6.488132854793238
Ta 7.559284648732075 4.337332451060791 7.193870171817175
Ta 5.049399023956154 3.6898378809694634 6.688968698219736
Ta 7.277834280155299 6.918771677652875 6.756231411815231
Ta 5.7901684512453775 5.521806226886286 8.430222212068008
