12
Energy = -115.13469031
Ta 10.565769457002169 8.984821288309394 9.519719377462192
Ta 6.339604542997793 7.920600711690522 7.385667622537896
Ta 6.978096160816546 10.273904943920954 7.968318514626141
Ta 7.428528258796684 6.358378875220428 9.113616341222212
Ta 8.452726999999962 6.6421412823285415 6.874409003493539
Ta 9.47688574120326 10.547014124779544 7.79184265877786
Ta 9.927351839183492 6.631541056078997 8.937122485373905
Ta 10.478953952246686 8.31833154148993 7.10779212827629
Ta 8.617324440704989 7.902824030191598 10.82745376576275
Ta 8.452726999999964 10.263240717671398 10.030974996506481
Ta 6.426438047753306 8.587109458510112 9.797687871723632
Ta 8.288135559295064 9.00263396980837 6.077940234237326
