10
Energy = -88.67262489 eV
Ta 4.385678756336592 5.802626342594057 7.585479935875264
Ta 6.484637861380865 4.278018112761733 7.585514242826676
Ta 8.583596966425139 5.802626342594057 7.585479935875264
Ta 7.782023530981454 8.270163673509812 7.585503524128523
Ta 5.187252191780279 8.270163673509812 7.585503524128523
Ta 4.385678756336592 7.166649380167797 5.383795786886467
Ta 5.187252191780279 4.6991120492519185 5.38377219863321
Ta 7.782023530981454 4.6991120492519185 5.38377219863321
Ta 8.583596966425139 7.166649380167797 5.383795786886467
Ta 6.484637861380865 8.69125761 5.383761479935054
