11
Energy = -101.86407032 eV
Ta 7.665261700071193 10.404537094885173 8.939500548485192
Ta 9.500795110091381 8.209434443491833 8.906089393052017
Ta 10.041951178233623 10.488009853641978 7.957112208502315
Ta 9.657269954358378 8.643111985355652 6.131185100216722
Ta 8.01257133773384 10.67433144460917 6.3894203572478725
Ta 8.890093846779253 6.400827200179679 6.833188254711297
Ta 8.623819586427897 5.844258328989764 9.376495073717088
Ta 6.875327344477046 8.11135427951359 9.675344477099243
Ta 6.970259618919715 8.458715138514677 6.95653733400848
Ta 6.426193487604604 6.078084202232597 7.702095989886044
Ta 6.304707300043901 5.65558649332672 10.101281727814683
