10
Energy = -91.89459886 eV
Ta 6.523626694309956 3.642910163915471 3.433789941945758
Ta 7.340158797452044 6.357849693137604 7.2397657947519445
Ta 5.1089781002991845 4.675435960141458 7.056618127950506
Ta 7.020468196816529 8.445127696684244 5.619294844681303
Ta 5.176729457126673 6.7028444242136365 8.639320751547581
Ta 4.630816460123596 7.1597048972985995 6.011794255851022
Ta 7.228696539116301 3.9271745427653872 5.807618864547571
Ta 4.5663879955842495 4.665194212943761 4.55488720544377
Ta 5.9459249302962665 8.806540124610063 7.709662805857855
Ta 6.71380259141905 6.1564905806697485 4.506112217242586
