15
Energy = -147.19436688 eV
Ta 6.523100466922456 6.523105986735868 6.523221910236918
Ta 9.132726881372744 6.239048749478925 6.563836625415196
Ta 3.9134080356033416 6.8071054214934605 6.482323499213881
Ta 7.62983081156842 8.9034435765695 6.479126931803552
Ta 5.037459750487147 9.156660594035916 6.476777605710616
Ta 8.00870239611494 3.8895194490861096 6.569428163872878
Ta 5.416359664200378 4.14274651988353 6.566999310675649
Ta 5.785139082949463 7.83461874090092 8.67457751575201
Ta 8.376320495929681 7.570691615098509 8.67076163439529
Ta 7.279932791942014 5.184688748899228 8.73555363534909
Ta 4.670735736104675 5.480521308533856 8.67394168182026
Ta 5.766240983092929 7.861496413944206 4.310537971137254
Ta 8.375450703085075 7.565663205133596 4.372236463893518
Ta 7.261046801305381 5.211514933637314 4.37155680234528
Ta 4.669834312198227 5.475463649445799 4.375409161254956
