14
Energy = -132.15035675 eV
Ta 8.60099651550892 11.663989571014914 5.702365231013547
Ta 9.452276231552705 9.280149755750925 9.131320915511214
Ta 10.051335451996648 8.88987475922865 6.21455541709448
Ta 5.952469791849499 6.8403961389019665 10.612006266418016
Ta 7.870861692924441 11.685691484044105 8.30613421568468
Ta 7.634986292372619 9.585521994216661 6.812976896547054
Ta 6.035063514184411 6.648990969500249 8.155041358184286
Ta 8.634448590298158 7.062749730769197 7.816180198993338
Ta 7.774400381732477 5.291374873282223 9.682174205373398
Ta 10.201828677408766 11.177738862151694 7.493539964302407
Ta 6.687299784577287 9.041909108975487 9.151951701495106
Ta 11.333193677272842 7.662598275154091 8.00099170975455
Ta 10.18523049304903 6.517861716397884 9.928219346751671
Ta 8.25771350817105 7.750940903550595 11.015145758010291
