15
Energy = -144.85965425 eV
Ta 7.869799483522097 7.195846686670192 5.185080489726013
Ta 9.535687414782865 9.04817191975828 5.852077098788075
Ta 10.162430030785433 6.5589357419705046 6.473932861745483
Ta 5.760541212952262 6.666771423526238 6.575055983010111
Ta 6.751664128193207 9.284314692469026 6.708798036827024
Ta 8.045363363737371 5.167216646002279 6.877900932677401
Ta 8.712020715918607 10.703350389021036 7.613947344039101
Ta 8.252797943083996 7.584276769732435 8.247036543783947
Ta 5.264417977208109 8.05101707576167 8.648496046630207
Ta 10.734220475111504 8.581625168681205 8.170038835396422
Ta 6.433785412559354 5.550276604265888 8.8375252670726
Ta 7.084505264469246 9.832112209059758 9.649723734609529
Ta 9.728036240098996 10.32360325695742 9.818742625689826
Ta 9.075931974234255 8.224760012248085 10.789566143808788
Ta 6.706426747562885 7.34534978809543 10.669706440415785
