14
Energy = -134.06044255 eV
Ta 7.1298620232503 5.159815652165133 3.454056774667111
Ta 4.946316299051092 6.722324447011084 3.7344368683778666
Ta 2.4944676432575723 5.786804490914027 3.0280552572301582
Ta 4.633099093895546 4.0765504884118675 3.642095231773525
Ta 6.847877750510642 2.977977102070396 4.814883572121785
Ta 2.534479023802908 7.650431503312956 4.576297019918266
Ta 7.172870777942872 7.23115376526357 5.173536504237763
Ta 3.2158285735128036 5.219749563797312 5.587566709249579
Ta 4.625263731356578 2.9817023879242344 6.139210184872338
Ta 8.351314293110153 4.963893450926878 5.7671136379459345
Ta 6.831926620210649 3.641911106607359 7.396959556846691
Ta 4.701086593142113 7.305620534679357 6.324469944822261
Ta 6.9174549694627006 6.300936199546537 7.57360248956389
Ta 4.668622132036912 5.0515988319119955 7.85818577291527
