15
Energy = -143.34045997 eV
Ta 5.750036175019871 6.564913138215861 8.11495336410002
Ta 8.439820037477952 6.904723977206009 8.599555674541577
Ta 4.620325428802371 4.06127690957588 8.321069634750595
Ta 7.265694041742431 4.500371148241834 8.40869785177427
Ta 3.3475310463092844 5.779563455430614 6.820741598794444
Ta 5.881796724675279 4.4441302913599445 5.907934961924905
Ta 7.943854433884454 5.979425511444835 6.058069083269092
Ta 5.329637434116057 7.370289840455973 5.654628373674607
Ta 9.607456493829599 7.843816811713586 6.421031685378749
Ta 7.298991768091468 8.72160043201992 7.108327960014281
Ta 7.642076257665659 8.160477344852213 4.459361322856307
Ta 5.241454767901761 7.7400252636093905 3.09117418694953
Ta 4.03354368017501 5.4743572025240805 4.19672859739977
Ta 6.679106904948188 5.764317931095315 3.5344989654527654
Ta 3.597738824298868 3.3697748858519043 5.982290758057079
