14
Energy = -132.58349608 eV
Ta 9.122960483281346 4.891761478358759 7.277688515290674
Ta 9.289667823198405 6.065128270263412 4.958903255757599
Ta 6.886766352901063 5.5804001229409215 5.651266729576431
Ta 6.529148436634349 4.810396820650065 8.184777872167604
Ta 9.113974911501897 7.650286290917702 6.839928978089129
Ta 7.14653640417668 8.075238582677978 4.746794873785803
Ta 4.5413525257271905 4.7797692975861645 6.017598025957125
Ta 4.623238490580037 7.0007055114920025 4.726746036765063
Ta 6.162306650338894 6.5084325100431135 9.885402545993134
Ta 8.638810988947576 6.327652547978572 9.192543305445499
Ta 6.734770149797611 8.037214761014322 7.989628573495052
Ta 4.475089860393178 6.711665691877049 7.491031226291413
Ta 7.299867310351059 9.916819948890597 6.373898428076873
Ta 4.875009522333087 9.024403668098943 6.072174837870904
