12
Energy = -114.09900396 eV
Ta 8.91108214527722 7.201581388566299 9.23220349388615
Ta 7.556854770164542 7.4435653978796665 6.504100255168202
Ta 7.153524108131109 9.135431132708224 9.014602769711745
Ta 7.995091256829425 4.935792622940061 8.011838496225236
Ta 9.331340623291624 9.178029962485814 7.473524443912003
Ta 7.9385973788064925 5.255241706368981 5.430079406678326
Ta 5.550178935887753 7.855893561400257 5.130188374246129
Ta 5.537195349647194 5.64557595279114 6.852613534790841
Ta 6.288393477792781 6.591565454888073 9.178926224321996
Ta 4.9514679529304715 8.278980988298615 7.634641961465656
Ta 6.776783167486264 9.922432340832895 6.532718652337667
Ta 9.933936712035328 6.480355740393797 6.9290077086252655
