11
Energy = -100.98582197 eV
Ta 7.5796274562344585 8.92587922126189 13.380660655620073
Ta 6.88865376129274 8.653749628046034 8.231084218260268
Ta 8.667907236841378 7.5684415832046446 9.710934924077053
Ta 10.440530123480977 9.366736342212317 6.205322824821156
Ta 10.986055703318868 8.524369000275843 8.632379746615104
Ta 7.978535425951507 9.336849833179082 5.905386533083429
Ta 7.681513808102657 9.721866335368137 10.92958950145235
Ta 10.127128079020691 9.84157223912729 10.747859180606781
Ta 8.9514082658439 10.214718954186438 8.359164928648841
Ta 9.036691739974575 7.372911464197576 7.07244190564298
Ta 9.237143556444527 7.865877112331669 12.407246545863126
