15
Energy = -143.96203278 eV
Ta 6.033543626220028 4.445175525760862 6.105217957727162
Ta 7.510664425642342 7.461060990292569 3.060746405585233
Ta 3.7738634960928787 5.601553761470702 5.510474966119346
Ta 6.465022959945131 4.482451796245073 8.880026867878788
Ta 9.072854298147853 7.667574290378099 5.207342206239617
Ta 7.428964547324165 9.541144808129761 4.69818350473088
Ta 7.023807241286323 6.8739740283088215 9.565558947951946
Ta 4.5501795810417205 6.020814770620404 9.890517901962294
Ta 4.034389390809278 4.3489589386819 7.9358963453581195
Ta 5.6340677099757945 5.38763145347568 3.5199657482469378
Ta 7.925387576801228 6.066785829201326 7.121400272043154
Ta 5.094660286828973 6.892795351425679 7.622739735195085
Ta 8.072884632204085 5.279531653200091 4.460839863425528
Ta 6.028716241145332 7.307884837274528 5.271726691214353
Ta 7.400150798997687 8.67498464530191 7.195676065392777
