12
Energy = -112.18987221 eV
Ta 11.178345918698026 6.631776450590282 10.5635998463182
Ta 8.725238324512944 6.247356513705957 10.433217371308613
Ta 10.862770048952994 6.701337022812945 8.095205795963652
Ta 8.163856195947323 6.279523146485591 7.730281786451651
Ta 7.758329392093571 10.665492678455673 8.215118442620064
Ta 10.130279510880246 4.599425517330687 9.209484737979173
Ta 9.022828377499582 8.510671929751739 6.804364581305288
Ta 9.407381382501228 8.68951857603677 9.331347393138438
Ta 6.2809274351168 7.809142187342691 6.322594645671359
Ta 7.2079441926499825 10.102429959677025 5.817468491713872
Ta 5.463120340011517 9.73332906069658 7.737344054361852
Ta 6.933384257211908 8.061842708094508 9.102903943358205
