10
Energy = -90.78774179 eV
Ta 6.440836879339268 11.968348124379649 7.759162610804938
Ta 9.233316597293918 10.013191472209245 9.260360977446839
Ta 7.835950296108718 10.580416042782309 6.897658263239967
Ta 9.233356980916879 8.14131891726058 7.436094620621322
Ta 10.566289466381015 5.943688185536313 7.961677476928147
Ta 8.269673907370283 6.00004649109946 8.822016252073693
Ta 6.778276503721582 8.364717665673762 8.285251940950042
Ta 10.594849593379234 7.594348036227986 9.75142413654748
Ta 6.790327429445131 10.436062182815377 9.714109985442196
Ta 8.159262104665201 7.945205677564802 10.483025590289037
