13
Energy = -124.8975256 eV
Ta 6.68987281723411 9.454193579073179 6.306766406683053
Ta 6.040131417240574 6.78186242821984 7.05724302060222
Ta 8.436519989429176 7.648653610959211 5.319914787140798
Ta 5.245169547376735 4.928498843316645 8.809241188120966
Ta 4.747394915612598 4.4179615479057155 6.317033639031314
Ta 4.319856557897713 6.373234066133585 4.741984733327763
Ta 6.9220189801542595 5.3541683673889615 4.828541679757117
Ta 8.917087909066426 5.663760676545607 6.787692733301532
Ta 7.062774586429435 3.8730490830447817 7.238127577822928
Ta 6.103987154093306 8.030814935227031 4.201432420351999
Ta 7.6500501725182986 5.701761596865854 9.100463401453862
Ta 4.3377153653768525 8.517924098990358 6.13365511857386
Ta 8.29403436338592 8.020730942144642 7.924517069648002
