15
Energy = -142.5153663 eV
Ta 6.09440486956943 6.378347296922427 9.386143439445805
Ta 8.839172449190379 8.986658753881835 7.55402562944217
Ta 9.367140363389753 11.728831424108447 7.608713254514238
Ta 6.423266402487149 5.231555392380653 7.1372735160753455
Ta 6.324730183378865 7.949198532783253 7.1037418173422955
Ta 7.353423329282873 11.541069356497669 9.05204899053695
Ta 8.456716001997018 6.521788758669369 6.175917751568004
Ta 10.350043721218151 6.704321758788431 7.683820057236595
Ta 9.392407074403353 10.293960229836708 10.120236334185893
Ta 11.257305356201126 10.099272316038382 8.22142827588223
Ta 6.953719422943947 10.682414379231156 6.759329425241492
Ta 8.459903011675348 5.035007818234266 8.52243309157045
Ta 10.884189812856167 8.227585643305448 9.768294900553036
Ta 6.576193146073988 9.123655027559655 9.367072941368344
Ta 8.470793674894256 7.287967086819413 9.898505218949477
