15
Energy = -143.24771323 eV
Ta 7.614597495983986 8.0623861097043 4.878863874063181
Ta 9.242542190333989 9.952067259769434 5.62218796324483
Ta 9.81221867074084 7.341478198698723 6.011041131951648
Ta 6.703789695776352 10.152311018932275 6.260229395461856
Ta 7.510362974311176 6.141175190651269 6.920942512855393
Ta 5.563042215586199 7.803941668602355 6.552646346040735
Ta 10.574140696682388 9.200031895024127 7.708194781439954
Ta 8.510667814700861 10.829731309843675 8.03868111722011
Ta 5.491083267624133 6.461878492147409 8.859939586674805
Ta 9.423936946356418 6.882172719142547 8.628038971807975
Ta 6.628243771664551 8.999763609712533 8.718698578238874
Ta 7.529275529953869 5.0453142923005085 9.445149478763927
Ta 9.063080999562928 9.026278653773698 9.953868800486466
Ta 6.9013244312944755 7.405428802196838 10.8114053250603
Ta 8.984307163748381 6.24865464382047 11.142726001010239
