15
Energy = -142.82040952 eV
Ta 6.3765724770493195 6.1346308995440815 8.686159175024185
Ta 7.277571464414438 8.042467358836864 7.432233944320719
Ta 4.6400678650850375 7.554040524944504 6.9966095671256365
Ta 4.478539013860556 4.7866657831232935 7.698997399508719
Ta 7.211350467403559 3.9183125166329758 7.588559867631428
Ta 6.511825259213588 5.846004860066922 5.830415369834114
Ta 6.492455171928193 8.650530245341516 5.189888946316319
Ta 5.290450826337463 3.008671104737289 3.750996103400553
Ta 5.737095354642313 5.283750151355192 2.762389263638544
Ta 4.598634577397737 7.340745586257289 4.1464583080823
Ta 3.8686208323788205 4.879782644482003 5.048158238405009
Ta 5.615196985922 2.7820068129451374 6.240154909287045
Ta 7.523626732956701 3.8902566949635524 4.466089419314771
Ta 7.352325103538045 6.873817655576426 3.480666923535848
Ta 2.513501670275958 6.49615096359682 6.170056366978247
