10
Energy = -94.83084608
Ta 7.385824569255731 9.864782750646217 8.112744041891183
Ta 6.143791884743307 7.898015893370703 8.112744041891181
Ta 6.6850061105819885 8.295010906675664 6.263032548505906
Ta 7.942184795752986 6.655666513174122 6.878172413805495
Ta 9.381285790339085 9.393051652838643 8.344316026434186
Ta 7.693682508368782 8.554095176152675 9.871010672122477
Ta 8.0866702276417 6.420123856208563 8.99805665355347
Ta 8.721871891931501 8.622437540549795 6.4161422219942255
Ta 9.774163214118321 7.258941717622042 7.93369403089598
Ta 9.481664927404209 7.871554992761883 9.903766348905943
