11
Energy = -102.78907 eV
Ta 5.159617267524271 9.56570722007507 8.302258108195483
Ta 7.121871769691361 11.05421501323492 8.860530725291193
Ta 8.964505733047544 10.137078320046578 10.377921723059552
Ta 7.2117195589971255 9.03916990069324 6.921464595734893
Ta 7.727605224733138 6.806537206808662 8.148508719612659
Ta 9.642034772424775 8.245291150966716 6.687459832326545
Ta 9.09363898336855 7.531334088336618 10.491276805471776
Ta 9.355097030010025 10.642532261168169 7.678149411727826
Ta 10.885003666222083 9.091689060467637 9.038070424684829
Ta 10.318175413809822 6.654512973193596 8.49435778298846
Ta 6.783036959010551 8.477628412348233 9.90210291114784
