13
Energy = -121.00730612 eV
Ta 4.504325093354804 4.550940288484109 3.937516770939889
Ta 4.497575469456628 5.803525049364166 6.1588349475767945
Ta 5.061803434701254 4.634688444526762 8.460651082455199
Ta 7.040986299616635 5.123908771835538 4.144996179704743
Ta 7.077327058269618 5.696012162647218 6.835612058370703
Ta 7.074708715257987 5.073786610811119 9.575908063852221
Ta 5.1451739975154585 6.830497609953695 3.526197114509337
Ta 5.230054881199837 8.2230570112113 6.095863557502662
Ta 5.521904352703304 7.234210082968446 8.655944586888301
Ta 7.305165499322613 7.900886062860698 4.313791567829383
Ta 7.5799134188578385 8.452440817375743 7.024691037890997
Ta 8.15994185043174 7.136156762658361 9.078011425290677
Ta 9.013099837415734 6.551870312238111 5.403961278796144
