12
Energy = -112.86904699 eV
Ta 5.2642295059999045 6.3142189068829815 9.72663691750956
Ta 6.326896932306354 8.570571209710666 9.06095583521042
Ta 11.329952439180854 8.07713901582816 7.8397491258802745
Ta 8.22810183631586 10.65347351089278 8.629747811810876
Ta 9.940324567990608 9.983513927491561 6.561381504785373
Ta 10.777092242909038 10.289930287096807 8.905662032750342
Ta 7.445882917096282 9.362214627321778 6.54069373061538
Ta 6.8624799928241655 6.875915602136929 7.140720953898363
Ta 7.673849431576758 5.74570110899852 9.24384137961308
Ta 8.945932960029538 8.108960128777246 8.94149520649191
Ta 9.377348948703421 7.4159869334314354 6.296637016013143
Ta 7.140222400148713 7.2591265618864504 11.18357618503987
