14
Energy = -134.15412303 eV
Ta 8.887284911758083 3.6477312738151633 7.721561350152915
Ta 9.5802149923592 4.745226456319774 5.6573982166884464
Ta 8.315920912889265 6.283375550864513 7.452398802464851
Ta 6.521760071745503 4.407454850798079 8.218078120723034
Ta 7.09003204895098 3.9769459304886166 5.719583857601251
Ta 7.315060260460668 8.662330412149029 6.528531431444209
Ta 7.787248790936464 6.585035428121059 4.77033989046872
Ta 6.070971621114111 7.7591697527222125 8.696524513479531
Ta 5.659601472453615 6.235219543680558 6.535966583113985
Ta 5.226939328621681 5.839984326077397 3.979605704795576
Ta 3.6425734303115878 6.993642750662476 7.981876979945487
Ta 4.684037406607353 9.093790936316779 6.842465293855336
Ta 5.711370404913373 8.33180082454634 4.428049303032573
Ta 3.400434942127386 7.323076992538431 5.3610845111524545
