10
Energy = -92.74459967 eV
Ta 7.263981519196244 4.415535419702311 7.3608715347769476
Ta 8.271074733005833 6.8510527824899965 7.857974875403786
Ta 7.065315536929388 6.002428754784123 5.365778477910415
Ta 8.958103593781455 7.829245781935649 5.468932632345545
Ta 5.221318741085291 4.427267759165639 8.732404763804585
Ta 4.869470868637211 4.8509386206272485 6.268333264434819
Ta 5.663671889634084 6.831150292261369 8.124211998831948
Ta 6.883658868376338 8.409616577408249 4.23388932020399
Ta 4.796503899706732 7.479477463807961 5.724869884098849
Ta 6.895086072319287 8.791627716689096 6.75206494087063
