11
Energy = -103.90728942 eV
Ta 8.952718812575313 8.398634477668423 8.343852806929736
Ta 9.208865420941047 6.9373566286680255 6.275808512176951
Ta 7.730349041152439 9.194624942796153 6.268750766182515
Ta 8.377520085685 5.9157282550027865 8.645378478681309
Ta 7.589292361598967 4.85755111511626 6.367190039251408
Ta 7.073131723824441 7.157090444046459 4.712338844343719
Ta 5.613058715921844 4.895616782985379 8.097664024515458
Ta 5.177547771438202 5.468103455684001 5.480069392328714
Ta 6.460132637451853 7.316413276745316 7.535136981766068
Ta 4.815477308430831 8.130078541938468 5.704569655937705
Ta 3.757465989375967 6.487130577370206 7.3288333769346545
