14
Energy = -133.80969308 eV
Ta 5.072455639768543 5.897015637555979 9.599397963363831
Ta 5.2322066955324535 7.714038878266394 7.668013960290039
Ta 9.345750634365796 6.968599466392114 6.172302339569371
Ta 7.385787775960979 5.913264774959884 8.065603221653845
Ta 5.882240664774789 3.7748292308162585 8.984472296799222
Ta 7.6774849907384475 8.570587177183068 7.179430039230446
Ta 5.753472483172907 9.263589279994584 5.405308364587338
Ta 6.644262333794466 3.650137125578097 6.503837180440018
Ta 4.594785540076064 5.182369076494368 7.031836420993428
Ta 4.125227413223402 7.27925577418932 5.216584577774351
Ta 6.712873891680938 6.278465822955201 5.453554897704151
Ta 8.89051159917949 4.564356742756693 6.141808816737203
Ta 8.00078906952816 8.58757293009695 4.446353379451652
Ta 5.8895103263274775 7.561977562332476 3.3386331480643667
