11
Energy = -102.26057611 eV
Ta 8.3057762382354 8.657820251529051 8.600022266598968
Ta 7.701089414965864 8.38940691075708 4.245683985369192
Ta 8.164673353322783 6.154762995703436 8.987318689380709
Ta 7.211384374213277 7.4147429668099445 6.600248619960192
Ta 7.839132650776928 4.765377146262366 6.668373615197285
Ta 5.364254360671929 7.419642350551323 4.415411511464715
Ta 7.4822191948587005 5.865410204952926 4.205371645005605
Ta 6.037714235883011 7.698381109274737 9.1997749960889
Ta 4.526958361581719 7.181728618477964 6.995616656853354
Ta 5.416960107656518 5.0855509043306055 5.662701909877608
Ta 5.789757187672129 5.23731061177088 8.262488738747193
