14
Energy = -135.76682134 eV
Ta 10.978646035368431 7.4576097485625805 9.341251683360973
Ta 8.768174392195297 8.72588626961573 9.012462031144814
Ta 8.854980849673957 6.311620912945969 8.786813948268824
Ta 7.585675154619683 10.941563423046484 9.633888281859878
Ta 7.80973677331488 10.499854395715731 7.570216456100332
Ta 9.626895194037113 9.761858001583583 6.827492701612688
Ta 8.134771792657563 8.284396363557027 7.268281735030369
Ta 7.144317132695752 7.139281399318345 9.198135772756823
Ta 6.3096596506924225 8.93029356535249 9.012462031144812
Ta 10.353400021127365 7.880002873905606 7.340790858888231
Ta 7.386932809332997 8.63753732086166 10.88118558463297
Ta 11.28713071237195 9.314672663962558 8.848612776611752
Ta 8.765182986053304 7.219226740548416 10.739701530207578
Ta 9.372004728455662 11.27370355362016 8.994714375783689
