13
Energy = -124.90978318 eV
Ta 8.775169439471313 11.537109267573133 8.802986337204011
Ta 8.537537550264451 8.868357841083135 9.137945595105528
Ta 10.522074834151216 9.731851891602533 7.817752765488893
Ta 7.739600973020986 7.423719429738552 10.892861834437824
Ta 7.244118766625176 6.913120883269932 8.812730847134146
Ta 6.817013583051919 8.868357841083135 7.241246916371973
Ta 9.007322336019289 7.852411487789298 7.32744366860286
Ta 11.000379668735212 8.163723688035352 8.87130600073292
Ta 9.148256260432609 6.370074852120605 9.321467487527771
Ta 8.601159407992816 10.116595826407467 6.699276983033518
Ta 9.736846496409205 8.199829221876781 11.183341500482763
Ta 6.832262138046011 10.601636482088427 8.634653429358268
Ta 10.376573910619648 10.103001922491412 10.006776269679621
