13
Energy = -123.29802376 eV
Ta 6.252142146593753 7.725549690152322 5.257211400802119
Ta 8.678704518887294 6.778255028371326 5.3216568462672
Ta 6.510847305733431 5.198388582173053 5.842468063853828
Ta 8.896011176701611 4.691757028529358 6.6629477510775335
Ta 8.189806885393432 8.987867376894576 6.8295807101114985
Ta 5.038838539560335 6.762576658751531 7.4397234856125625
Ta 9.802055699199666 9.626319766708528 8.713687960300755
Ta 9.897204722323885 7.037986088770508 7.739711242209859
Ta 5.587332063330564 9.297619541438134 7.299299838981771
Ta 7.433297783612679 5.987926956253032 8.31511230343771
Ta 7.325228476467807 10.175377290872907 9.152297411243868
Ta 8.546995751853942 7.865292124769256 9.950782216828213
Ta 5.971789716348023 7.995338652321891 9.605775555279264
