12
Energy = -113.49686032 eV
Ta 8.252936377817042 6.095567298047171 4.622234652031105
Ta 8.535329321225971 5.08347661358919 7.0276154900775305
Ta 4.822693401276642 8.260731177095474 6.1658022198469
Ta 8.104907319856752 7.705102116559348 6.939668806135499
Ta 6.8461392436428845 8.178637186598346 4.499010007556642
Ta 6.839403747204806 9.759829998006886 6.572006715844027
Ta 6.122092306704172 4.175161067388463 7.721855478528472
Ta 4.628815972549324 6.222915371871028 7.927748158917012
Ta 7.089010162781171 3.8735242127227445 5.315788544302774
Ta 7.097177321924645 6.224564425288707 9.007474452440462
Ta 5.601154982313681 5.813412963183555 5.416251807634629
Ta 5.87536207184078 8.42185362954849 8.604992804767711
