15
Energy = -142.92209981 eV
Ta 3.6207629814770375 5.3140503257750344 3.4414978329001067
Ta 2.35187062679331 6.934861857456048 4.880898240269997
Ta 8.196962449366172 4.9558685373024325 6.327379520426053
Ta 4.400802482210576 3.345046414639696 5.417495683672894
Ta 5.880301181421097 4.443664741074703 7.576848049615932
Ta 3.7822937213377954 5.706736047448517 6.488757193997289
Ta 6.306791028044249 7.082830223231956 6.831429098833143
Ta 5.678515372062432 6.499140213256449 2.369751109454275
Ta 7.931615145281838 2.681831973718429 7.619695783297795
Ta 6.159341126791168 5.412560541948586 4.747628369632735
Ta 6.492718725537293 8.12883100134022 4.348689155902771
Ta 6.964938576687573 2.8034818423925376 5.208291701474024
Ta 4.326078662976258 8.410887397936078 5.881311568868491
Ta 4.025719462942514 8.107273343165799 3.2780619686593635
Ta 5.594996414609917 1.8866434968524397 7.295972680533607
