15
Energy = -141.03161287 eV
Ta 8.190644671477413 8.453823982085332 5.8617059417777275
Ta 5.436277955151858 7.882802487512544 5.621633235818817
Ta 7.458614758941483 6.905452871698142 10.566204198596921
Ta 3.072780587994422 6.411164088829 5.455105456368681
Ta 4.443908509912115 6.314121862742539 7.709363428728835
Ta 6.565640706076404 8.07347517040177 8.153615559615591
Ta 5.3344755306937035 4.917111570775764 5.6421969157481175
Ta 10.397875321441486 7.002107426218041 6.252291571168934
Ta 6.651984565765791 5.127528742960603 8.555268276483899
Ta 8.824440738163824 6.867933726064907 8.371249052403023
Ta 7.979717898006933 5.6531269723053645 6.150793316453448
Ta 4.276146816832968 6.3974674819434805 3.5144703497145473
Ta 5.211939498067368 6.739747907267918 10.199727590260387
Ta 9.434469990218917 6.861024966445797 4.113024818643978
Ta 6.825043853233561 6.5448038092007375 3.9228914335662677
