15
Energy = -142.59390358 eV
Ta 7.67074848240909 5.918117186141598 3.4969542138904277
Ta 5.458961480442116 5.229521071508709 1.9847533386994145
Ta 7.602362493468339 3.7977515996909554 2.1574086432874346
Ta 5.2313948345349015 6.549407922825697 4.2914163073704215
Ta 5.367487025451007 2.8376706495469923 3.036019454846893
Ta 7.593709108175366 3.3898731312526307 4.6189287736302855
Ta 3.37100194784597 4.766647110948596 3.9946009567959297
Ta 2.779549688325817 6.9295725520409315 5.547454452167056
Ta 2.694641749283017 4.457305488745419 6.617614801512603
Ta 5.135383682163453 3.6646856065578817 5.545180688259061
Ta 6.862991855986573 5.606156393137443 6.174132765946252
Ta 5.020670790702939 7.850858956253495 6.50841943281604
Ta 4.913532717152297 4.402790481649615 7.993979895238129
Ta 3.1962567980189904 6.533476846695446 8.066202433498233
Ta 5.706913653830772 6.671771310795096 8.572540149832331
