12
Energy = -110.63875283 eV
Ta 8.02501260822671 12.415723538984823 7.745630060983379
Ta 6.6336630955870985 7.691303822506546 7.524955343991309
Ta 7.976743695464243 10.891918033638992 9.906836512122165
Ta 8.21812980413526 9.67196796954663 7.40459082193628
Ta 10.136976005080253 11.579595541242803 8.014316612284757
Ta 10.232718237454083 9.495826902440106 9.748696787080812
Ta 7.241607975466169 8.250338154357582 9.80919592533736
Ta 11.451698784954566 7.363717911888487 9.005784523456427
Ta 8.773918535469724 9.126264604702111 11.798280365781533
Ta 9.056912693307252 6.991679888763334 7.985146597745169
Ta 10.71552161462698 8.928320821688748 7.110621455331355
Ta 9.456482388701025 6.944198313269827 10.636877081315328
