14
Energy = -132.20276671 eV
Ta 3.2323529696923528 2.931634784774661 7.708833149756874
Ta 4.290411877981155 5.30652376975473 7.507149280229678
Ta 7.583676838154698 6.9917313018779 4.560070565500776
Ta 5.1329821988153395 5.42059589380527 3.657117629418638
Ta 5.580643937747823 2.8465032598090385 6.953018868790854
Ta 6.023145306853968 2.9036371953770868 4.381191326445868
Ta 5.46405675371787 8.110065600322026 3.4265915197317187
Ta 1.8554732506056237 4.699163441289121 6.643378868599886
Ta 3.0777543663769182 6.290366147481278 5.0866916262491815
Ta 5.264760704123447 7.284187603742026 5.9046890389040145
Ta 6.747429977700957 4.912895521347477 6.0925170139811
Ta 3.576038653198592 3.4728413920263947 5.042763867785179
Ta 7.753683446457648 4.639499741318149 3.4780641565283226
Ta 6.881266927208776 6.654031555709729 2.021600296712788
