14
Energy = -133.33096542 eV
Ta 3.123834959370071 8.46377865515141 6.708667771582739
Ta 5.556379728481591 5.795716480199468 3.833459072861419
Ta 3.9969233045882926 6.407183722184556 7.9700985278565835
Ta 7.4369120687932675 3.9105228549532893 4.61985159702891
Ta 5.452840562423216 7.78753083598876 5.7215895417223965
Ta 3.3169856945107408 6.122389295453659 5.442092993484442
Ta 7.786870584974328 6.534163907109342 5.257099672410697
Ta 8.079848095622607 4.212805305849202 7.156477039588156
Ta 9.381745334449036 6.48043224265295 7.4638002622240345
Ta 9.807839292324468 4.872311233088006 5.377439560515914
Ta 5.520063374296269 4.817082941590433 6.287172241873483
Ta 7.724861683149535 8.658084446319082 6.994628209643778
Ta 5.265922584470363 8.693783454350681 8.282440119465285
Ta 6.7631154922186365 6.460142699111726 8.10158394185407
