13
Energy = -123.06131104 eV
Ta 6.254261245323615 4.571770198461341 3.183586141011511
Ta 4.488963084308395 2.710406694689394 3.1383705397519366
Ta 4.050078418536875 5.376133167504973 2.0626689807641867
Ta 5.334845386559058 7.123980520658882 3.57771052460256
Ta 5.9237401869913064 3.0778501303450136 5.547706927111973
Ta 2.88261573572436 7.234948670241984 3.660767816145585
Ta 3.6703413522682493 4.823445114226575 4.650788211044213
Ta 6.297709042348707 5.743028465767222 5.707512692149089
Ta 3.4854314668484214 2.25421844498741 5.418048127292215
Ta 3.998198147976124 6.988352468946757 6.1601316924684175
Ta 4.069511319975144 4.2956991301434035 7.264744317152008
Ta 6.622598239144229 4.238293738239478 7.918050470068048
Ta 5.500050765194698 6.329591270635652 8.259874428448516
