11
Energy = -102.95592019 eV
Ta 8.657465579734389 4.397206615119656 7.426558599786922
Ta 8.190229029506764 7.046625969443247 7.672499941034434
Ta 7.229481144509382 5.640217927811678 5.523225328575714
Ta 6.37586529312031 5.1302222193863205 8.432009126460647
Ta 6.6080443159974465 3.2787046032914606 6.6379268545446815
Ta 4.697940882430091 5.099011248199968 6.317291698772587
Ta 7.606131392317998 8.292484662550725 5.2960179149622535
Ta 7.152730382894039 9.538936668600298 7.53212435466587
Ta 5.494574360474891 7.432176445781597 7.36024869304727
Ta 5.219469936613782 7.1911608227068955 4.675995012485783
Ta 5.422732690171741 9.601187388557559 5.777962985437855
