14
Energy = -133.17506567 eV
Ta 5.473077008582074 8.186958632948945 9.318837253547256
Ta 7.874618840874053 8.321578672316498 8.113317373098612
Ta 7.128799354960721 6.052624265622349 9.137413579771586
Ta 5.84499757751773 9.529486574504553 7.190770140500891
Ta 7.459410654706138 8.318912779459142 5.463663468113023
Ta 8.070940547213956 6.020545645503278 6.444900998335829
Ta 8.19404875991309 6.036988543366264 3.7181686797261766
Ta 7.312501629897783 3.8720404796000256 4.867247167872458
Ta 5.311438673809061 6.938444819964758 6.736940406011681
Ta 4.638753313337797 5.779854394999921 9.024466304382221
Ta 5.795421487027333 7.005704432673512 3.9997778591097117
Ta 6.144335655010472 4.316088978592007 7.3061616469979125
Ta 5.842090332490542 4.752904600199186 3.075382055372935
Ta 4.652416469925108 4.605971796348836 5.334880555565382
