10
Energy = -89.87702317 eV
Ta 6.136111240872732 8.83444160047293 10.813228597701348
Ta 5.378644537556851 9.39430902208532 8.679077515325439
Ta 7.017643959159672 8.791663230841172 6.765019969070538
Ta 8.113493890798571 9.526911855660092 9.152086772590483
Ta 8.840355993929785 8.34500781032482 4.968931219337855
Ta 9.88123423184915 9.16941196422393 7.007024839177343
Ta 7.068337834263245 7.154248071018931 8.876908831376895
Ta 8.892122360035623 6.552222577374704 6.600355485106913
Ta 9.90850141322737 7.528079513408638 9.015042124152966
Ta 8.963607726089121 5.277220834286085 8.629080025447022
