11
Energy = -101.9020313 eV
Ta 7.6539660544031305 10.48006061789951 12.288783332700998
Ta 10.0832931803723 9.234679701250872 8.280449476926533
Ta 6.8662279628682485 8.496332085266294 10.960270201190136
Ta 7.2435563480945016 8.02313284829489 7.988313032689159
Ta 8.99401062584181 7.394172117629379 9.854908993160231
Ta 8.223657148383971 9.724843024225944 6.397778324560389
Ta 7.867408095207905 10.251868992985305 9.314425031053743
Ta 9.703811408238202 9.628839418877977 11.161027795605166
Ta 10.434497946937594 8.899112376259101 5.711160788385189
Ta 8.617000702740407 7.982394916527956 12.701639694107635
Ta 9.315181272636428 7.058966157247053 6.906452924804204
