13
Energy = -122.30520813 eV
Ta 6.650844997470452 3.24741992534219 4.696085778557863
Ta 3.9824943200912633 3.5462177242692667 4.2019174383140045
Ta 5.782097001743484 5.105482883319586 2.6953434298007526
Ta 4.714903845754573 5.574564395520304 7.972858905200411
Ta 7.130540909123965 4.453332890604065 7.051718980285943
Ta 3.7685613995590193 7.489654760048799 6.0764484769090785
Ta 5.457329038334859 5.710889694421104 5.448407536846308
Ta 3.36067996255836 6.209710045540576 3.598429657049256
Ta 2.796874120251105 5.033900168806393 6.161395219107806
Ta 5.695854327839204 7.58511420752088 3.7924963149888167
Ta 4.801861409120033 3.225251085570409 6.754409026636041
Ta 7.8249048552069445 5.62039750683095 4.552030661131436
Ta 3.4656626315836143 4.387290990451857 1.7386413009941453
