10
Energy = -93.88506654 eV
Ta 8.679668769692833 6.529011005499271 8.322410413366276
Ta 6.419529111978212 5.185092076657218 8.609725763606148
Ta 6.579417407888581 7.750826643238572 7.426079647258827
Ta 8.76645493179801 7.421009481838928 5.819134976996982
Ta 4.517459815781187 7.3535908283149976 5.499441198020481
Ta 4.327705000293125 6.590994356217071 7.9750263690221805
Ta 6.6523130560065 8.835603001963925 5.082421717025783
Ta 5.27117786840462 4.940819491281617 6.257030218436753
Ta 6.754839457594544 6.341314229980489 4.489659403999875
Ta 7.945986698613949 4.968700260179329 6.434183645070809
