15
Energy = -141.64009892 eV
Ta 7.842825190290329 9.369621313416488 5.6680180506002715
Ta 10.440785488275866 8.80484038500486 6.287263040677963
Ta 8.666196771435153 6.894058026809254 6.105204525441055
Ta 5.993879716501281 8.02733526181767 6.94765567910101
Ta 6.745060326545725 10.637625574902605 7.730012545335072
Ta 9.512157912374686 11.17937620528894 6.240744317006149
Ta 6.7241254627772555 5.55069736780991 7.326892240825746
Ta 9.511774307321575 5.223972940206087 7.916742928991705
Ta 9.241778449806715 10.233903206374796 8.46408027496476
Ta 5.089184031959331 9.170703669491912 9.04600126962221
Ta 10.016774787944659 7.693706300218552 8.608417462124363
Ta 7.504867638972594 8.838746858407957 9.81422772679207
Ta 5.693885960883195 6.699467460843212 9.455132404267166
Ta 7.548271901567789 4.121694761355831 9.115079321894038
Ta 8.261798943294751 6.347617558003099 10.067895102306395
