14
Energy = -133.67636448 eV
Ta 7.067061996802966 9.124775282503037 5.121390200304387
Ta 8.949314692592868 7.15252405535431 5.2964041372925195
Ta 5.841292142308459 9.335693552851474 7.584758383243345
Ta 6.526802397476661 6.601202257583516 4.106829397909119
Ta 8.550556340645368 8.817135146935271 7.428201702370625
Ta 4.6233247903716945 7.980638640697976 5.546001410665426
Ta 6.724161022164885 6.860579406806851 6.69385731187386
Ta 6.411381116604278 4.72735747535051 8.367322219468322
Ta 8.930259017838216 6.099935881679591 7.850122231705157
Ta 6.994667527334339 7.498111252344094 9.244240281259094
Ta 7.706199025463176 4.4948407381680875 5.752609793390218
Ta 4.537278797318518 6.939962296765236 8.104696359250662
Ta 4.843854524350135 5.044589577454257 5.913502306543323
Ta 5.98330527706193 3.0060187329035446 6.674442561618227
