12
Energy = -113.06684912 eV
Ta 6.068238592972644 6.059369952442181 3.15956229100182
Ta 3.905553852193729 4.8527074110868735 4.224273572330815
Ta 6.540228110288118 8.347278564941652 4.332353273471057
Ta 4.075406322503108 7.601286849234492 4.025174832150716
Ta 6.425054657010699 3.682762435579045 4.422038810780145
Ta 4.247737770831756 2.2857254160570797 4.831774632776724
Ta 6.132913243286185 1.8209915166983563 6.407976897344332
Ta 4.994951319839112 8.582595924063963 6.242318505494646
Ta 6.130505598524254 6.108815865944784 5.873501425878507
Ta 3.4782617137602028 6.455124067290611 6.350601444686549
Ta 7.1825110449104175 3.8968152925194706 6.999935345217166
Ta 4.494859048145665 3.98274797840827 6.806710243133714
