13
Energy = -122.21855931 eV
Ta 5.381830577797492 4.511606995763764 3.9780372765504928
Ta 4.110849827974758 5.159202599266359 6.154334541663103
Ta 5.545553385630257 5.830452629699161 8.36020175401848
Ta 7.729647686216013 5.511465114452333 3.798672966939581
Ta 6.678337463938005 4.29241589724241 6.191675935550142
Ta 7.936092017977504 4.855217155986507 8.51394043253299
Ta 5.439153548312179 6.98092640081028 4.494902955009238
Ta 4.136624539431432 7.660340030098091 6.7791453687403775
Ta 5.535108750648796 8.298839738869074 8.879147109405325
Ta 7.827710548194575 7.933511275903139 4.204200397826074
Ta 6.7062024585310445 8.506536769165294 6.595788240517756
Ta 7.885408346837204 7.281243899831752 8.917463642673704
Ta 8.301055080162728 6.391815662601869 6.346063486300796
