10
Energy = -88.40394277 eV
Ta 7.086417726614431 10.339242148878517 7.591032309021427
Ta 6.429939035164797 8.35115732551814 8.936910482917977
Ta 6.473807356154916 8.472424588995755 6.057768552788999
Ta 6.065919104810004 6.074823015040286 9.867314354464236
Ta 5.8764108406236915 5.977097773019622 7.388502341332203
Ta 6.139565948628568 6.281694318864036 4.93372892240567
Ta 8.936508637492015 8.677950379078773 7.5438573917489595
Ta 8.342797182264366 6.186527195625845 8.875485232667163
Ta 8.387123092177488 6.304834897028358 5.995561943917663
Ta 10.3568268199029 6.636890287320643 7.482483025941897
