12
Energy = -112.83948183 eV
Ta 10.623975481693567 8.237407383233737 7.79818510432341
Ta 8.39119312902116 9.83868773840649 11.972312522404064
Ta 7.564980290619658 11.267696570649587 7.930787465111755
Ta 8.966699608535214 7.785868834877234 9.9721800263476
Ta 9.538522433769105 10.598085185733272 9.460829661664622
Ta 9.979266707700084 8.09841886178083 12.580884609046258
Ta 9.72928883575154 10.595766593070849 6.6528779104268985
Ta 6.972729019041211 9.421942494682208 9.653397017664934
Ta 11.815113769213806 10.421594934763279 8.056919019730358
Ta 8.093512280299047 8.705720365529272 7.438805829824935
Ta 11.303307012758976 8.988912138617785 10.417620715147311
Ta 10.767604052010954 10.552158353924671 12.398883669524235
