15
Energy = -143.17007049 eV
Ta 4.8549423391158815 9.186309152089212 5.726210140325713
Ta 6.0866678293933 7.105494983624341 8.70469989762721
Ta 3.4742539253352196 4.8808162449588695 4.901649362726605
Ta 3.950994845423421 4.1769897301057615 7.231264456303424
Ta 6.580154068144902 7.960348754866833 4.248814498570223
Ta 9.751630100508994 7.171043322306275 6.700714986864314
Ta 7.2622717723913945 8.471854526632688 6.8359636012467115
Ta 7.638683471605202 5.912412389602744 5.808001735408975
Ta 6.512890453549961 4.623150266226222 8.075811669447612
Ta 4.949804468336915 6.59997100232113 6.498671098816426
Ta 5.7091894639900245 5.586538384170012 3.6612141005997527
Ta 5.846619914590251 3.8017048639606688 5.53925893702472
Ta 8.551896411931278 6.634724603711365 8.82163538186221
Ta 3.9468198878114777 7.54893664599594 4.091453504561847
Ta 9.20259953168902 4.633722151376577 7.462885448955979
