14
Energy = -134.41614057 eV
Ta 9.384248858611137 6.24836283736111 7.33934640535064
Ta 8.383267086525171 8.766349417366797 6.3360946776975124
Ta 8.052380783502272 7.817682177659584 9.075329607953094
Ta 8.66090563925529 6.351499272248161 4.79104402371398
Ta 7.427950153324255 5.199137259911313 8.887380492230303
Ta 7.661286191052391 4.274913578685349 6.135029459263304
Ta 6.730437633809843 6.87233543898351 6.767077414566473
Ta 5.143794594426824 8.581290685249767 5.96254166162463
Ta 6.414980428537429 9.411020184795927 8.14645859933357
Ta 5.227465910558722 7.027843889425427 8.825997120590113
Ta 6.968306726228047 8.04232620318597 4.084480574146956
Ta 5.337714500831868 4.515616821979495 7.418072545959686
Ta 5.807315310086545 5.6072579632557185 4.726947518940795
Ta 3.8472209256354155 6.3260596240092815 6.554782932720783
