13
Energy = -121.72124189 eV
Ta 4.666346377892075 6.794330500451938 6.7096252404072425
Ta 7.332623264568901 6.249564367966812 6.749482377598228
Ta 5.8353761085084965 4.6475424329307655 8.24591484208904
Ta 6.1994181893212845 8.45037201020527 5.40001332413934
Ta 3.453228462627745 4.7598448037136265 8.061693788780666
Ta 7.723048878990972 3.983900183248854 5.432640137177243
Ta 8.347815682014216 7.688700545556143 4.8258626531335365
Ta 2.5918685522028646 4.94550725377922 5.711039052005678
Ta 5.127331273792268 4.188142746471765 5.800938953323849
Ta 6.319268362620604 6.0487674697191744 4.088688286582472
Ta 3.7714938430466782 6.56087672719728 4.176203284165846
Ta 4.137743451448105 4.143075107650669 3.333498409237726
Ta 6.5134923286905675 3.408505425509519 3.4097159266068573
