14
Energy = -133.37335309 eV
Ta 1.7504645980206284 4.9809228071875555 5.973943215694438
Ta 2.8477762355362572 2.9280051064996737 6.915034305240283
Ta 2.9327286227646407 3.0322418555024835 4.409861198397232
Ta 4.0452529393685435 5.040527096512389 7.554243037697354
Ta 2.6666466650739853 5.484882756022119 3.6270584770822762
Ta 5.3033533312402765 3.131188720771014 5.94846600021782
Ta 7.569411444460246 7.637453672383987 4.482626350532915
Ta 7.540091154179913 5.596728569557952 3.0390773334725867
Ta 8.779009555244937 5.747366877496871 5.442543530693831
Ta 5.192725776378476 4.177094913890755 3.558012232382635
Ta 6.037903301677994 5.7570976683032065 5.809374230200567
Ta 5.0025284591294295 6.800460101816453 3.6953870265169004
Ta 7.727071865350884 3.6530199061025233 4.602178263403103
Ta 3.4909478265360483 6.918921722915871 5.828106573431213
