14
Energy = -133.92797925 eV
Ta 5.295417516368348 7.035830539149313 9.024849277378761
Ta 6.3433706955637135 9.204642606546146 9.420926615446174
Ta 9.357541375773073 5.4729884538742235 7.517731532278631
Ta 7.057355844890973 5.099567812120311 9.157667790061408
Ta 7.758844681983494 7.4876200059285996 7.337149697538637
Ta 9.147532710600426 7.638834414385928 5.195439179172229
Ta 7.419158346465176 4.00698784030729 6.946565879010974
Ta 7.994999171788753 5.4747090430679 5.015468863048226
Ta 5.3386132451765205 8.857341076463456 6.913227603814068
Ta 8.091322799509914 7.2170073164077575 9.860238535032105
Ta 7.711446113773233 10.153897432606717 7.568284658202973
Ta 5.484460406176275 5.879855456847629 6.677124487468608
Ta 7.305183022008524 9.588079522631512 5.176523413516936
Ta 6.272756390929911 7.425839367651138 4.710005440007883
