14
Energy = -131.77728518 eV
Ta 7.41844961694454 7.622991559177113 3.141741154988308
Ta 7.242514481883139 7.849356494857982 5.863331589160889
Ta 5.243983432801731 6.79913387131134 4.2108323413191915
Ta 4.656922649082813 8.019804122063203 6.763361285875407
Ta 7.878364528732416 5.4972508452404085 4.488945724163407
Ta 6.514608819131075 9.479235526384928 8.014472760250142
Ta 3.2448592586411884 5.979310340969996 5.739045194974502
Ta 8.591747300941556 8.454282719689779 8.235520630132331
Ta 3.91018185420542 5.785897726963959 8.02575932016501
Ta 6.427774832790953 6.781664424031059 8.566437916529166
Ta 5.904135507770263 5.230400422141796 6.284679600477408
Ta 8.166115057796498 3.551275688845703 6.260255793356371
Ta 8.75747115097847 5.99423379628599 7.199889762507956
Ta 7.230578293118584 4.14562687340002 8.377208566394893
