14
Energy = -132.42000646 eV
Ta 6.412111092372144 6.604954954739069 5.121764401336168
Ta 8.48102122124549 8.147811467179482 4.815686607069254
Ta 6.078770201857791 8.932244574167274 5.956031586867745
Ta 8.192427184480774 10.277673434276062 6.420108669221168
Ta 8.670520550728993 5.896301325867639 6.067104826123205
Ta 6.415726143808313 6.662887942714607 7.731350763255043
Ta 9.596204868583895 8.111152059498368 7.273797572378087
Ta 9.241630788449456 10.35585438950445 8.828433980289656
Ta 8.624753235215612 6.159936238094613 8.814860045441169
Ta 6.806933476596052 9.180304088857444 8.532385946371912
Ta 10.302972742922975 8.282900376901308 9.864102934653385
Ta 6.4831128305904775 7.2823938223034865 10.41252042358805
Ta 7.976078856247338 9.324059868472931 10.957337447655895
Ta 8.831621327511993 6.895409978034452 11.318399316361093
