14
Energy = -130.90677115 eV
Ta 7.3773262048766135 9.635041499558792 6.892435330999236
Ta 8.80040543453798 7.67195316434674 5.53947066783385
Ta 7.531095253997581 7.206401410186265 7.917583473368634
Ta 6.0801981759084365 7.891257629893465 5.380517932322146
Ta 5.076034555246299 8.408468919896062 7.867939874487157
Ta 9.554450921766128 5.630928091054507 7.268476377619866
Ta 5.713177823749698 6.390251329367652 9.66294502264372
Ta 7.329574768091546 6.676728752284068 3.3951975292500847
Ta 7.513400789706824 5.264865234891721 5.628313336665996
Ta 7.201833183509958 4.514253257280562 8.240329991286867
Ta 5.001488825861696 5.7575071982989785 7.19883012074674
Ta 3.5082779839339557 7.427955475795224 5.791408141604505
Ta 5.048039252978761 5.524624590997794 4.477508652647009
Ta 5.704274466463962 3.4185397609441988 6.1762599748256575
