13
Energy = -123.47913937 eV
Ta 8.611623279726194 6.333643366017138 7.7569692996461574
Ta 8.527747568640994 6.998869344225304 5.212383093838283
Ta 8.334860077971342 4.468615441104981 5.899213558808724
Ta 7.150725296691915 8.511857603375434 7.026248158618908
Ta 6.960590553528034 4.29872066717414 8.135279149098901
Ta 6.269349460176763 6.718603735087117 8.891286111426599
Ta 5.781333548663121 3.781822091425792 5.825278969831482
Ta 4.510174878243387 5.1388841558821134 7.67265199045887
Ta 4.612216166035282 7.720448700845444 7.066254435875832
Ta 6.755257966347694 5.411398066469144 4.019323461300934
Ta 5.278735444271301 10.05824297621129 5.98264462865097
Ta 6.0891724981658575 7.897654589241245 4.658727266010663
Ta 4.360803994805938 5.911254259188495 5.112088407522747
