15
Energy = -145.09346818 eV
Ta 7.292584773413291 7.819568863719401 5.140507266505917
Ta 5.992226104699108 6.864759368877293 7.002477017400411
Ta 9.506377655183439 8.778715687030372 5.634796138991398
Ta 8.787842477249601 6.227470993304145 6.7537639748039755
Ta 6.847731583281251 9.80495196681146 6.770358915241916
Ta 9.389421670920123 10.65415656699182 7.472128142423492
Ta 10.539374957782531 9.66307391208795 9.53325340533431
Ta 8.264712477815426 8.266373236562664 8.264603658751339
Ta 10.91764906930286 7.927924838055399 7.595295627409159
Ta 5.6129383978780565 8.608873503821943 8.933218603728687
Ta 7.153438137436429 5.87167539272705 9.059402784586474
Ta 7.744893375912608 10.30534205214602 9.776462437217848
Ta 9.682879369231776 6.7275992083051515 9.76190419499255
Ta 9.233503763267535 8.711835432507119 11.392936735987606
Ta 7.019919218838757 7.753172009264333 10.894384128837032
