13
Energy = -121.10256959 eV
Ta 8.069719722438823 8.769793786706606 5.691864724008235
Ta 8.727506987526942 6.3164833784699415 5.081438225540003
Ta 6.798950599081328 10.727707312601162 6.801345536143014
Ta 5.605038374620499 8.524168771042111 7.433294678071953
Ta 6.14240470860549 6.975871346704017 5.344182363276418
Ta 10.035584387229477 7.573232805387956 7.239006659256048
Ta 8.151143223207095 9.1447914164194 8.492417534494747
Ta 7.7157013439380835 6.296221463848551 7.476307430413925
Ta 10.538630150805693 8.770105822611072 9.676321846994936
Ta 5.141237452149217 5.959242153695677 7.614701516467857
Ta 9.27362281801835 6.524039328189049 9.711917205994784
Ta 6.571135793439311 7.2288961945887 9.686739083022482
Ta 8.532298370579698 8.569853841972948 11.093859384340938
