10
Energy = -92.20912489 eV
Ta 7.866062648633442 5.488126394580571 5.617939278735931
Ta 6.087395918802519 6.312340464802041 3.7210680900678037
Ta 8.820425960561524 5.40674878793604 8.174099704309397
Ta 7.161737256193236 6.905580212341051 9.513034369625345
Ta 6.315367343378747 5.121834414254133 7.944046428373865
Ta 8.164479702639282 7.703416180296751 7.344833340060566
Ta 4.416399553627679 7.815812432857516 5.035495032099733
Ta 5.0559738512160255 5.537009143181327 5.895973680041003
Ta 6.906133585249418 8.118334834725767 5.295245950730688
Ta 5.361462132802265 7.74637506820897 7.615673585973463
