11
Energy = -102.54838771 eV
Ta 11.260429058671725 10.214811673933971 7.741825927674941
Ta 8.797523390545889 9.941269758994302 11.47598536127622
Ta 10.711097299232048 8.34425959531389 11.791027307545695
Ta 8.260783877870775 6.952434146321633 8.522725358078533
Ta 9.660176934734235 11.654605562673867 6.7296421861773545
Ta 10.383663382047285 8.242913707020136 9.213459073164637
Ta 11.187353241268562 10.581071370610916 10.487514859970089
Ta 8.334853888264398 7.393685630305565 11.007577844148544
Ta 9.048502882091775 11.253450707032579 9.207197149636707
Ta 7.296854125487793 9.232643545651097 9.325736193981642
Ta 8.786526140352171 9.19224628173975 7.149996907394565
