55
Energy = -567.35786639 eV
Ta 7.755083739633282 7.755083739633282 7.755083739633282
Ta 7.755083739633282 9.704245446128516 9.86873398084684
Ta 7.755083739633282 9.704245446128516 5.641433498420073
Ta 7.755083739633282 5.8059220331382235 9.86873398084684
Ta 7.755083739633282 5.8059220331382235 5.641433498420073
Ta 9.704245446128516 9.86873398084684 7.755083739633282
Ta 5.8059220331382235 9.86873398084684 7.755083739633282
Ta 9.704245446128516 5.641433498420073 7.755083739633282
Ta 5.8059220331382235 5.641433498420073 7.755083739633282
Ta 9.86873398084684 7.755083739633282 9.704245446128516
Ta 9.86873398084684 7.755083739633282 5.8059220331382235
Ta 5.641433498420073 7.755083739633282 9.704245446128516
Ta 5.641433498420073 7.755083739633282 5.8059220331382235
Ta 3.2064948756204803 7.755083739633282 4.877752826044055
Ta 7.755083739633282 10.632413838859767 12.303672603646083
Ta 7.755083739633282 10.632413838859767 3.2064948756204803
Ta 7.755083739633282 4.877752826044055 12.303672603646083
Ta 7.755083739633282 4.877752826044055 3.2064948756204803
Ta 10.632413838859767 12.303672603646083 7.755083739633282
Ta 4.877752826044055 12.303672603646083 7.755083739633282
Ta 10.632413838859767 3.2064948756204803 7.755083739633282
Ta 4.877752826044055 3.2064948756204803 7.755083739633282
Ta 12.303672603646083 7.755083739633282 10.632413838859767
Ta 12.303672603646083 7.755083739633282 4.877752826044055
Ta 3.2064948756204803 7.755083739633282 10.632413838859767
Ta 7.755083739633282 12.023142482045204 7.755083739633282
Ta 7.755083739633282 3.487024182858448 7.755083739633282
Ta 3.487024182858448 7.755083739633282 7.755083739633282
Ta 12.023142482045204 7.755083739633282 7.755083739633282
Ta 7.755083739633282 7.755083739633282 3.487024182858448
Ta 7.755083739633282 7.755083739633282 12.023142482045204
Ta 9.44011589788864 3.779007009584946 10.122932781708474
Ta 6.070050767015179 3.779007009584946 10.122932781708474
Ta 9.44011589788864 3.779007009584946 5.387234697558438
Ta 6.070050767015179 3.779007009584946 5.387234697558438
Ta 11.731160469681795 5.387234697558438 6.070050767015179
Ta 11.731160469681795 5.387234697558438 9.44011589788864
Ta 3.779007009584946 5.387234697558438 6.070050767015179
Ta 3.779007009584946 5.387234697558438 9.44011589788864
Ta 9.44011589788864 11.731160469681795 5.387234697558438
Ta 9.44011589788864 11.731160469681795 10.122932781708474
Ta 6.070050767015179 11.731160469681795 5.387234697558438
Ta 6.070050767015179 11.731160469681795 10.122932781708474
Ta 5.387234697558438 9.44011589788864 3.779007009584946
Ta 10.122932781708474 9.44011589788864 3.779007009584946
Ta 5.387234697558438 6.070050767015179 3.779007009584946
Ta 10.122932781708474 6.070050767015179 3.779007009584946
Ta 3.779007009584946 10.122932781708474 9.44011589788864
Ta 3.779007009584946 10.122932781708474 6.070050767015179
Ta 5.387234697558438 6.070050767015179 11.731160469681795
Ta 10.122932781708474 6.070050767015179 11.731160469681795
Ta 10.122932781708474 9.44011589788864 11.731160469681795
Ta 5.387234697558438 9.44011589788864 11.731160469681795
Ta 11.731160469681795 10.122932781708474 6.070050767015179
Ta 11.731160469681795 10.122932781708474 9.44011589788864
