55
Energy = -573.42082484 eV
Ta 1.6431430060909598 4.5928776441717645 7.750715455542963
Ta 8.345697744114021 6.57988993647182 4.34188217504097
Ta 6.238733884486847 2.3397613780072284 9.306337214739331
Ta 3.7533838123709935 4.228542595981269 2.90962920050779
Ta 8.384901657335824 6.783848681152418 7.586171932811856
Ta 6.017650787902568 6.251157762201264 12.173619526152345
Ta 3.8630094717589474 4.485532940353235 6.156792799383219
Ta 1.6047663899035536 4.395446980273982 4.616339820182877
Ta 6.076737822842911 6.4969403252509546 2.8094042831218267
Ta 6.150475556414812 4.733181016453204 10.864316155553228
Ta 3.8327309840897787 4.638708961992886 9.41231350456147
Ta 6.128933079782704 6.829532287969249 5.981869317517712
Ta 3.7496248171462327 8.680956534643935 2.643805705156917
Ta 1.7117112072665928 8.820697773625502 4.380448569385064
Ta 6.154212726722316 6.898031615897905 9.170300656785503
Ta 3.9089841530632063 9.028301730232545 5.869991316253901
Ta 6.035783083210164 4.136025084982223 1.4026170249416008
Ta 10.515348546415224 6.448370578611441 2.8474318583755402
Ta 8.37621766505734 4.141215401882119 2.9038757328945644
Ta 6.074088269285642 4.32071698254498 4.513201067219405
Ta 10.65980158835931 6.634580635679544 5.939265976950005
Ta 8.347691738132117 4.4322143749794165 6.105736052085356
Ta 6.11338560946688 4.525279189280726 7.754274710460281
Ta 1.6009979251927933 6.608296170017163 2.9577346268261295
Ta 8.453744891747533 4.545406844290803 9.317387947811083
Ta 6.079951747473026 8.553017112504227 1.0606580875423848
Ta 1.6765638893537098 6.9963731332935 9.118965637002248
Ta 8.43011127320405 8.624811237231532 2.572871144097499
Ta 6.128204104912867 8.95994525874327 4.0598622054088365
Ta 3.9803122818086125 6.994542884932328 10.791738107287706
Ta 8.38118329962565 8.981002817094254 5.819181620715163
Ta 6.171762778275962 9.184491148847858 7.619794795174547
Ta 6.167384935732364 7.0320373970056576 12.173619526152345
Ta 3.786735734929547 2.149680931600102 4.7089766183108654
Ta 10.556048156509258 4.3276727212088835 4.532643875004857
Ta 10.590362146163637 6.835664232641891 9.033213331979745
Ta 3.8249774265313485 2.349967755136415 7.8873912285378385
Ta 10.593227368577917 4.520745248586307 7.62513827350279
Ta 8.330925563706245 6.951575746735755 10.777777960723906
Ta 3.864196740234465 6.391579751514213 1.242352963196389
Ta 10.534812810876387 8.706592876837464 4.292253368977756
Ta 1.7486726878475325 9.012772819611143 7.427011097477556
Ta 3.850018784060285 6.634350348585992 4.405509042461682
Ta 1.721889600675548 2.400389537098565 6.31371051423192
Ta 3.829027183505331 9.089191804820203 9.116332914034547
Ta 3.889557049581009 6.8372400164045155 7.624276449853202
Ta 1.5576298226164762 6.775930781659936 6.040664626038287
Ta 6.197923852315135 9.159078009027317 10.645969782132298
Ta 8.308462631866254 2.13393069735688 4.7182535156654595
Ta 6.1653844536018445 1.9568891205035217 3.2463097438338644
Ta 8.50965871038201 9.034792654398123 9.081454280441665
Ta 8.345073717022514 2.3261565078504156 7.771807308755941
Ta 6.071590569713234 2.082972532403809 6.281376952564176
Ta 10.572252235691176 8.895792129578448 7.317011753733763
Ta 8.214304385595067 6.345261720387619 1.1573095559718947
