55
Energy = -566.84210648 eV
Ta 8.14410512048942 8.435612976028697 7.81105292617163
Ta 2.9865598956482 3.7402284941639836 6.4236532425121196
Ta 7.650569796022629 3.837516772265683 10.319281958319435
Ta 3.3943652046333743 7.94871883634098 9.265692657934768
Ta 7.586131537349848 6.695369822942315 5.410127305204282
Ta 8.364439872270843 6.9034300557007855 10.121967450417308
Ta 7.819667371397309 11.343102233529352 8.03104520774686
Ta 7.787713052159025 10.074708990863204 5.689758939932944
Ta 10.055452572480268 10.707014779814147 9.338996874716491
Ta 8.035092939215781 5.079068379498463 7.8586901360803285
Ta 7.689522128934286 3.3765021872508787 5.556886263105116
Ta 5.797554839192552 8.189373277197982 10.907382909737555
Ta 3.0875443679888495 5.283885781434703 9.05086479328498
Ta 9.864470172537855 8.229859781787452 5.138808577831876
Ta 3.6220981729765342 6.663954309135043 11.431203575551088
Ta 7.6079136238993845 2.1846784787597917 7.9325589575824145
Ta 9.833187315697787 5.153468914628007 5.167496740081196
Ta 10.456917251151014 5.1361972388809765 9.633137239094156
Ta 5.711553854291584 6.959776166120637 7.846913225888817
Ta 3.052925920564663 7.910587743109082 4.160574338756941
Ta 9.717668262406582 2.6308514591631433 9.24624107146142
Ta 5.61646680774112 9.70677098315915 8.332156456075598
Ta 2.897409249191905 5.322420197431043 3.889564980824968
Ta 7.670574598593003 9.994186039363251 10.364850252656613
Ta 5.4043566927999755 4.132474714041697 7.786527684879173
Ta 5.737328646432896 6.774674566068339 3.0945349465846115
Ta 10.944802986207446 8.080169780641159 9.399007007131987
Ta 10.274950141498604 6.638350914430311 7.34102408458515
Ta 9.135592914884167 6.718268437956843 3.079225816614588
Ta 3.6581554044873776 6.833800718532097 1.3118963259869074
Ta 10.425686204625503 9.828611463302844 7.0405722271703075
Ta 5.961345127004661 11.20236020935293 3.8571979506778202
Ta 4.583226573888256 9.337759562251673 2.541483764498041
Ta 10.251359173305534 3.4330590717108813 7.0062995440951426
Ta 3.428562321892703 10.60183604582883 4.574610502820925
Ta 4.614464880948631 4.2174291232996834 2.25695811290743
Ta 5.503006729590464 8.593680201840778 5.34644267932664
Ta 6.039366745932238 2.2886181781230803 3.5505180805493315
Ta 5.8438164872855705 8.256014725282085 0.5522206395682341
Ta 5.258509187335244 11.38464648272684 6.360551162254077
Ta 3.5109604802627974 2.6328949503342627 4.134158836971819
Ta 5.878006761306674 5.531003109992562 0.4194901249603147
Ta 5.38188094503094 4.8181260163571205 5.069051798003242
Ta 7.448418691207484 8.917812296933766 3.104949727636511
Ta 7.934910931301342 6.89270779857124 0.9241438077643586
Ta 5.280218542326744 2.0463896032848634 6.102935520961009
Ta 7.415531586555767 4.598342379560876 2.9302144151164176
Ta 10.14958715132915 6.785400426322508 12.1795372010374
Ta 3.30659884492876 6.3350433368109895 6.600551256682457
Ta 5.608694074959933 5.549833148649885 10.252313173631986
Ta 10.095379748075505 9.31575385063298 11.56074730762471
Ta 3.328371226564745 9.153720511410441 6.868491015329
Ta 7.914658732598782 8.457837404457287 12.67104783779046
Ta 9.37340338499162 4.482338592085192 12.033095063035546
Ta 7.1772970602435135 5.972110787272395 12.439648609470352
