5
Energy = -40.01564577 eV
Ta 5.386920581503765 8.487405875738233 7.019068772196627
Ta 7.386367840051524 5.091384798306294 4.629635630139741
Ta 5.896700207124119 6.55407066978999 8.065453708741975
Ta 6.357234904264935 7.047595024454241 5.431998349850897
Ta 6.950181226275935 4.79156156396776 6.825209931576874
