55
Energy = -566.12824793 eV
Ta 4.2302792091333075 3.628635718226849 6.486949021006909
Ta 8.297377999470372 0.22295776056718017 8.380428794730976
Ta 9.61741802342972 4.13459831793072 5.001932564009873
Ta 8.828387555298933 12.198018184617986 10.214552238608611
Ta 6.812385809067155 8.024176216022179 9.005526404715477
Ta 4.967698346858494 8.52399272010985 11.329800513229799
Ta 9.260490121258474 9.490569174097224 9.918775568350714
Ta 6.864240854730169 10.362324562256239 10.898229110576786
Ta 8.863044485555235 1.7862029245093538 6.434009622516337
Ta 4.745980863474812 10.200905757166547 8.889091076230015
Ta 12.501331777894592 5.864158574039633 7.75946249213772
Ta 6.409825193059694 10.094697291237136 3.7705284782269777
Ta 7.08487145170955 4.815284468852191 11.90180506180811
Ta 11.157985352910714 9.675969516449966 5.73204098940687
Ta 3.2062857509448515 6.862634990287165 6.299786363832632
Ta 7.261053793594277 10.783200560716503 8.155931062527763
Ta 8.825076889436868 8.689838973474503 4.458385829338437
Ta 5.42670586782458 5.8856297576407774 7.698048135134018
Ta 11.64160256268735 8.658784254786205 8.162819020668348
Ta 9.82415871281319 4.419807077738405 7.791665241435896
Ta 8.132143786288903 2.6093361188746242 9.253037196351409
Ta 5.016870938114358 11.1048032632602 6.117139785451433
Ta 12.418239027474774 5.517203976700992 4.782588620796229
Ta 7.618315075267233 5.313722645957947 9.393683045820959
Ta 2.9824966747857835 9.474884350756586 6.643406044175852
Ta 6.362626623277889 12.817845581229951 9.454875224993565
Ta 5.45116464008886 3.4566052288984532 9.359236985854418
Ta 7.053113842373283 3.8573854508562246 6.722965586409572
Ta 7.564091033744863 7.553184761614134 11.554733738997056
Ta 6.069579100963197 1.5517950666989582 7.422727052336269
Ta 5.705188244625291 6.5098269300421325 13.075475373532663
Ta 10.17185235388781 11.203335410613544 7.9399198677957115
Ta 9.417116115091368 6.232668927653509 3.5241793797596124
Ta 13.162061158772786 7.7319458303604165 6.1485729245472935
Ta 10.536466864483845 1.8393009438829335 8.357601380121292
Ta 11.884005644176831 3.6684050093307525 6.3718703494319335
Ta 5.965835620227497 8.540840599207225 6.346623610673068
Ta 7.901329317586974 6.35961562558644 6.311384322439805
Ta 4.120798517121026 11.45442846679711 3.5241647068265567
Ta 4.1172150521393505 8.687775480586144 4.370750038278667
Ta 5.023877545963518 6.008350016534121 10.511848556455138
Ta 5.177561339506411 5.852554215146836 4.925309536384301
Ta 7.273727661696262 4.6030069252457695 3.8562037596969483
Ta 8.066388101497006 11.261578039762222 5.632895724928308
Ta 8.646839929342843 13.332417325752438 7.852553829218275
Ta 9.832361207298899 6.896582628770246 8.955841507138368
Ta 8.906012713429382 8.875962621683719 7.171088534801704
Ta 6.416354817761573 13.377643602325259 6.633168940659967
Ta 6.832028549399508 7.258164875318966 3.552743627446063
Ta 4.135174517154727 13.420494996089946 5.167615246570069
Ta 6.345235200609225 12.815403458999178 3.9617600538952513
Ta 10.550242063787179 6.901068303655731 6.000654220890853
Ta 3.1318489960145857 4.728084395323465 8.711412571295492
Ta 3.7553176010309848 7.822533370028201 8.753328729165858
Ta 3.465544350993054 2.0740836028584204 8.384097185498234
