55
Energy = -570.9523977 eV
Ta 3.057173722333266 6.546048837563088 5.436296597375876
Ta 12.6379302994115 8.801614099133474 7.462197925128842
Ta 9.422536960762598 5.2057318637088015 9.98785788523814
Ta 5.6801396293359945 2.9121287193279066 7.168576424978215
Ta 10.45098609396613 8.366082588889876 9.020653982729204
Ta 6.635361746704015 5.647519011243675 11.682606879405407
Ta 8.257896446428129 7.331138129370046 4.988732965231278
Ta 7.225806123165011 10.096396035552807 11.451923932748635
Ta 9.682568288050591 4.742918355836342 7.032979435364867
Ta 5.598646229122287 7.275731877314704 6.7087105224455685
Ta 5.580957689588053 7.0256146938339805 3.9421445781897013
Ta 6.828774138235298 5.275285405064483 8.893459511570414
Ta 3.1564135340380703 8.58196478822753 10.352904491546763
Ta 3.0259163325240657 7.551874776230135 7.985335795224826
Ta 4.069968701734117 5.900960257005904 10.459936272741453
Ta 7.687479851895112 11.872147879821519 4.946476037205518
Ta 4.994388791438479 11.471105288429492 4.950776004450226
Ta 11.982253357500017 9.933913606728945 5.046649278979799
Ta 5.949413372632894 12.002757237474748 7.449517433621826
Ta 7.9728317868746466 2.947005830969921 8.385304377031177
Ta 9.673917195588523 9.515859006241051 6.534186668097762
Ta 7.7446356275319435 3.385606125283386 11.056017640361244
Ta 5.377606494128435 3.374366394722264 9.998327837600803
Ta 7.354150352613193 9.704853809748347 8.550517038154405
Ta 11.788478275922419 6.027190324460014 8.493395504924584
Ta 11.089672769304673 7.048135373649455 6.08427773881358
Ta 5.0045888352066115 10.650740978093827 10.01874983619094
Ta 8.229593643969626 7.722511661114595 10.567096611507692
Ta 8.45428864157563 7.160267122352648 7.7186371852856315
Ta 9.174995877564982 6.108137120638844 12.672075089299597
Ta 5.290538403440062 8.162427397752948 11.975751568112916
Ta 5.640653142996656 7.733329093644688 9.386027654731592
Ta 13.312984114074904 7.761410708775844 9.776838271613698
Ta 11.516608896942634 11.199421809565713 7.6624878932257205
Ta 10.43024811037347 11.97615454845508 5.271485154784246
Ta 9.94093888972474 8.972812795516141 12.263892461327941
Ta 9.590250527431602 10.811054753773481 9.95543901057228
Ta 8.71915439296589 12.015434502560984 7.498938279277112
Ta 6.4628698332423395 9.620532773749412 3.298983760818026
Ta 6.9935849102096865 5.0225470432596415 6.095244173159148
Ta 7.2766847019717895 12.285728678121227 9.820452221783036
Ta 7.128728903476547 4.887235057170157 3.3817325819923068
Ta 4.230454920904813 5.096282955419999 7.770716107631805
Ta 11.294458541312405 6.9847440588954255 11.231951678344675
Ta 9.586475606909612 5.20088645102968 4.1973399870032
Ta 9.194737633425284 9.90605135093237 3.675311566115548
Ta 7.589072499890387 8.009025661666675 13.317950511520952
Ta 8.110273213422944 7.354756612997374 2.43327861450138
Ta 6.869977269783174 9.547400543235252 5.877022647951143
Ta 12.111373575242778 9.903627758830282 10.393822940985961
Ta 10.688189171927334 7.894822355125841 3.646980259587382
Ta 4.411950341768077 9.864814710034224 7.604334009798515
Ta 4.548818788424904 4.656602812670384 5.017413396976261
Ta 8.317141594438976 2.98017783345807 5.460181183735421
Ta 4.055608150825866 9.068257479600874 5.041249527278387
