55
Energy = -570.53770685 eV
Ta 6.7827915157988095 7.8738943344481935 8.609245760342306
Ta 5.8841490320769605 8.454758176096782 6.126829108634755
Ta 4.321826557956597 6.469365452023494 10.77741262305253
Ta 3.925973029719372 4.263449421159199 9.174252529874975
Ta 6.567602045128559 5.20910631306081 9.723353443088417
Ta 2.9643891297596032 9.175082920883463 6.177229517531861
Ta 9.004869687007819 9.17793681784075 9.428704061340532
Ta 7.118309316200644 10.703825926737043 7.533604933446048
Ta 8.725717668033973 3.491222796878173 9.733976409271497
Ta 11.131976506342236 4.8971379078609525 6.309430716480348
Ta 3.7509082319101665 6.752018841663428 5.220158055696198
Ta 4.578284428277142 10.035101053061473 8.250963321900796
Ta 1.8220374749470167 4.585528746267219 4.013484446717534
Ta 6.690201075723797 10.350594202984224 10.245665475328053
Ta 5.487366981204091 5.2250458289279145 7.0464376822447194
Ta 5.449783502867464 6.115435553068416 2.452890709070976
Ta 9.49243644935058 3.9595238070831305 4.51812018801352
Ta 8.979818688762842 6.277954179169242 10.051629858810097
Ta 4.037501273035235 7.16761283296839 8.113193713226282
Ta 4.8132450555049635 11.067317237747464 5.664928464659576
Ta 11.371174751449164 10.824968120579419 5.929725708070302
Ta 8.877294048753717 8.88294579175856 6.416227364523968
Ta 11.477944928619495 9.511757614853703 8.170346049852581
Ta 10.441854064854555 7.087460087902336 7.872352487947332
Ta 2.9643626535265626 6.69681507849644 2.686653658740735
Ta 1.3511140348914608 7.018252604892406 6.752592647584876
Ta 2.928135261509907 2.2352613872977307 2.7595926698263065
Ta 2.4010726880279876 2.2518237929839695 5.247920256226388
Ta 6.708877227843236 2.847442448878742 8.21258397537597
Ta 5.671006324865104 2.888857683203675 2.318932229856642
Ta 3.4077246131829453 4.415238034325008 1.5990978219848504
Ta 7.07971089753633 0.946968530817406 6.181574879246987
Ta 11.716391867379023 8.24966539836741 5.698949944215434
Ta 4.4757360258050385 2.496867574900201 6.800067583732213
Ta 9.877600494333786 9.657182651953699 3.989482984716223
Ta 6.879919980131625 3.4688298203333012 5.409184095424233
Ta 8.339634731361958 5.396233210244819 7.276600733902507
Ta 9.259801809792727 2.795575247013565 6.990565865669163
Ta 6.937359906276329 6.162373516443477 4.85286472160422
Ta 5.008113847204042 1.3548723010932306 4.4113224710855095
Ta 9.052532748815588 11.847318082754864 5.590168679070088
Ta 7.573248472522352 8.166938245889634 3.5045221037436733
Ta 4.7947239017192995 8.980312381412993 3.7947930505142233
Ta 1.9704048862261685 8.656159000434315 8.747839770945602
Ta 7.721086566242867 4.576456271953674 2.7464860462398457
Ta 7.813413437301529 1.7794214047634476 3.632753450341378
Ta 6.97593607816594 7.848340918512771 11.27882987553216
Ta 9.762540561036301 6.758306237191748 4.795657167437577
Ta 10.800106949158199 4.4779374707152195 8.80471334408405
Ta 1.824600633176912 6.047751197618066 9.308712275078591
Ta 4.414706892267706 4.254515760689399 4.39103647074429
Ta 4.52497381346201 8.906122593003612 10.5741578514246
Ta 2.609094871603725 4.6922657735085735 6.846858125864538
Ta 7.125271720264496 10.564936156906931 4.578169780996813
Ta 9.73657482443683 11.405149421727984 8.060387003018716
