55
Energy = -570.38910521 eV
Ta 3.0743407458199887 5.851184008512666 9.363937056053214
Ta 9.93448576380504 7.6862020667325694 5.903363157078122
Ta 8.679598886604385 3.4962379543055864 9.58280737911663
Ta 5.417488247102914 5.9601448654140095 4.189135523752815
Ta 9.759453366079446 8.174086012126056 8.8764269372447
Ta 8.26609151417949 8.791390790596349 1.8070801780668189
Ta 5.107057309707962 5.990898751483218 7.592547313916832
Ta 3.0852266889439095 6.107079580943938 5.732091197175832
Ta 7.556035541051379 8.490181994367056 4.57323269606178
Ta 7.652744844287607 6.354951131455312 12.285399504337407
Ta 5.172804929418845 6.201485102082599 10.977636827619511
Ta 7.376762209080302 8.249941728451605 7.428872533401453
Ta 4.784132846031243 10.188721043515455 4.150431777621217
Ta 2.524405717030242 9.156496611183652 5.460056241390025
Ta 7.523605376283361 8.413057053684222 10.524220183907643
Ta 4.6862228583352294 10.415093077691077 7.411322939807376
Ta 8.070591082548507 6.217478840131363 3.1636115461160745
Ta 12.400052323508618 6.829400255506132 4.693658709952279
Ta 10.074822181669004 5.085395255942485 4.668068978067007
Ta 7.47207933233832 5.840301704880509 6.022342396956441
Ta 12.420750785932437 7.667477329267691 7.426114901589297
Ta 9.576393594874 5.613935090620799 7.810204351851387
Ta 7.3358246353620915 5.917884126063753 9.347570173025325
Ta 3.283348420306335 7.793884616717554 3.5001446576681943
Ta 9.906793167580258 5.958689306310687 10.729987471408414
Ta 7.09677129650275 10.794759131008304 2.934528013274443
Ta 3.0147220696680694 8.31971983052147 10.82249670621486
Ta 9.532334740632578 10.25512423647443 3.968165749274151
Ta 6.884149237874641 10.83246337477516 5.834332103237015
Ta 5.4584037084646395 8.564214240500977 12.296032596223883
Ta 9.271043170008564 10.324577098774446 6.742128253525017
Ta 7.315003684456698 10.674940748872686 8.843228118505897
Ta 7.768675384821366 8.676906603092451 13.502279200097355
Ta 5.012885406392955 3.8382314333427843 5.533999719416377
Ta 11.883528124022703 5.063648676956826 6.671249368384735
Ta 11.988104102183481 8.49880183624114 10.202714145851413
Ta 5.2201021721670315 3.8822866751244964 9.718042275027312
Ta 12.181928215492025 5.901931874655895 9.402738201141478
Ta 9.821200595988321 8.538956130230574 11.981910508450387
Ta 5.722980546016631 8.189547520550214 2.5747696944159078
Ta 11.987700548452386 9.355497858300424 5.130781532558274
Ta 2.823249499854745 10.272389894248603 9.222526109266525
Ta 5.065204069513954 8.182957533514037 5.855010097540288
Ta 3.6518354074206467 3.6748702222375895 7.690742881460508
Ta 5.131360863632501 10.572951202067353 10.541087886837406
Ta 5.1505079597257835 8.28410294685835 9.150995654622802
Ta 2.7480719935635722 8.06004586915075 7.807660176432685
Ta 7.7272036418451995 10.711873763647214 11.829705491136176
Ta 9.458024259776442 3.230190845525139 6.6515537189842
Ta 7.694731415720574 3.6801094082595123 4.5380397576967
Ta 9.824830265420927 10.525343051425322 10.12122429882229
Ta 11.104567080070641 3.5663563438778754 9.004098762422554
Ta 6.792315443411336 3.589525718970936 7.61557023240002
Ta 11.598306485200839 10.06284526845848 7.819492036631072
Ta 10.339294317271303 7.833380437805947 3.182780150417806
