55
Energy = -573.40032758 eV
Ta 2.096966255239455 5.032519052745057 8.204632285683019
Ta 8.795730058926443 7.045988283593532 4.790462067114245
Ta 6.698963828104704 2.7942231411780876 9.753394582519926
Ta 4.207619645306742 4.671768343379649 3.3649621956242104
Ta 8.832044554208613 7.25082716556879 8.037361236606724
Ta 6.469927704397807 6.693244455938223 0.2644702121488653
Ta 4.306901162386969 4.927500125902142 6.6084599322504705
Ta 2.060557265506979 4.8321836602734125 5.065853851265961
Ta 6.530502562633098 6.949032716970632 3.2644395606217778
Ta 6.595536631563963 5.186367298425723 11.310343549746635
Ta 4.28230198757779 5.086060133677133 9.85953755519068
Ta 6.573410979720022 7.301190202867621 6.4312065386560375
Ta 4.2059888766549 9.123611945701255 3.086853269852696
Ta 2.1667951176956617 9.268879716190767 4.836794764388883
Ta 6.603302191674006 7.352458588620991 9.616541634101809
Ta 4.369991794218335 9.473847885925888 6.318867684580462
Ta 6.488374684985976 4.5861965146854295 1.860020382556815
Ta 10.978277077265682 6.890861124775517 3.2849769826020494
Ta 8.825759915657827 4.599727534522284 3.3569968547473397
Ta 6.517088036239507 4.776200638411584 4.968281206478489
Ta 11.104497320240807 7.100260850778079 6.389490027109188
Ta 8.784257199108687 4.898993491483397 6.556713183623055
Ta 6.553417240897263 4.981925156820017 8.201786107923242
Ta 2.0605613608049804 7.049329530897001 3.416198667093747
Ta 8.897934351258444 5.004374759779015 9.769289409234945
Ta 6.531328977753842 8.998889549713718 1.5061920354808054
Ta 2.1325071173225205 7.441980436190442 9.56012261506913
Ta 8.875326741009538 9.085411027356397 3.028416840371335
Ta 6.591430851336847 9.418552532104117 4.507811038667259
Ta 4.430925446791335 7.440017834839373 11.24237879764457
Ta 8.868667052815876 9.452697530938126 6.267607642359396
Ta 6.6330888192404585 9.645011226730125 8.069058254900284
Ta 6.611965516319162 7.479349054785269 12.626368929439147
Ta 4.233740157063131 2.5891172338051835 5.157978527812695
Ta 10.997497961140052 4.785835661331834 4.991416059359959
Ta 11.048540836975071 7.274732970434107 9.499904994063382
Ta 4.270019705888781 2.7920365508166842 8.34439774067353
Ta 11.031624803415466 4.975462783840904 8.068606483021481
Ta 8.774944888782585 7.417097666153237 11.226020537678673
Ta 4.320382460470945 6.830980208876141 1.6931395602643107
Ta 10.98742082405709 9.142200102376945 4.712163481822881
Ta 2.2027796233772023 9.46315851360316 7.867384260040672
Ta 4.302552860240272 7.079222524846467 4.8570290072036375
Ta 2.1732857685252274 2.8376952460429457 6.766845040453107
Ta 4.282592525165529 9.537634435231503 9.573644402133525
Ta 4.340301188407526 7.284126518632011 8.073858855308467
Ta 2.0100570772677666 7.2191093968926 6.49062900536314
Ta 6.64444617003769 9.60992464701919 11.10108852605731
Ta 8.75441453047511 2.5870678669779283 5.1799236153359445
Ta 6.630275880347701 2.408610549180685 3.704084973402853
Ta 8.950802311400524 9.497106269887128 9.525772708691221
Ta 8.788866726635009 2.7795215985462627 8.216474903161304
Ta 6.507910860215584 2.529956868287229 6.734278909319025
Ta 11.022911112554262 9.33442004852588 7.8013335426699095
Ta 8.665138677210729 6.807956101439772 1.6105902450270821
