55
Energy = -570.713753 eV
Ta 9.513448029169469 3.435776315177322 3.521512134657404
Ta 10.191498649912164 7.944215629602405 8.840432131715241
Ta 5.525904971623339 5.224859994343134 9.013519147316703
Ta 2.260801000594901 8.355066308160023 9.19209352568276
Ta 4.933702675266203 4.5499001493665405 11.702607345916379
Ta 9.616373484091172 6.213005718273027 2.4511611111045757
Ta 10.934530735367776 5.4426631097953075 7.806410691258816
Ta 6.85403401192396 6.394651160237741 11.68503072318326
Ta 6.316007024019527 9.069887824622334 10.984715390955145
Ta 5.243171468958776 4.968927461537446 3.7082265472962836
Ta 8.333206842180468 10.121949365879338 4.409789003112285
Ta 5.719080055449752 11.282269262241506 9.028597605412767
Ta 6.82313312588439 9.781068605720801 2.106233428482012
Ta 4.912234090859873 1.383908057879398 7.312140613443842
Ta 3.0176600178506656 4.781241679274926 5.358701130641919
Ta 9.51723626915876 5.742852652930818 10.29793000219849
Ta 3.386145401679076 8.748028142481477 6.322016429087807
Ta 5.463783459166521 4.0139631723345 6.6933983570513265
Ta 7.3641743710699785 7.5340855228943635 3.7525802881069694
Ta 6.982173996432004 2.746511326847672 2.918244410143818
Ta 10.358376189841389 8.292901636554937 4.267440135491068
Ta 2.9966167365627054 3.4060132054905177 7.6229319734225465
Ta 8.861302383502496 8.289798021503513 11.169508362155725
Ta 8.10856174750813 9.855884254043126 8.873411331557374
Ta 4.744096116622754 11.234063207039933 6.526856720779766
Ta 2.8991011700009173 4.8271529700648905 10.024900601148541
Ta 7.752578800094693 5.0346830864665 4.780883640700358
Ta 7.223266131044528 2.441721595556405 5.383876885579867
Ta 5.1845687496577595 9.46234906087485 4.151764519088455
Ta 3.9274479535730222 7.14624815871506 4.084927982643199
Ta 5.337231511421715 7.458041380278373 1.743123143700414
Ta 8.186825520251181 4.9789251741605645 7.543442106107439
Ta 4.2317427415929805 7.163836936749238 10.652958304982143
Ta 4.3537037091238755 2.463753723210725 4.937082842622804
Ta 2.956144372122938 10.70870058949849 8.346767868844355
Ta 4.836764490473222 2.7227890330814017 9.599679620532218
Ta 7.33622572058328 7.172832491782404 9.026571166608477
Ta 9.718700561100556 3.0971224122074736 6.344918870579005
Ta 11.601615735707645 7.7027277837992685 6.519648868193222
Ta 7.458745850911588 4.020740693082886 10.442065202753858
Ta 8.739902830776943 7.565236393729165 6.4636205303628795
Ta 9.785687267094417 3.2963215750457713 9.14682181480495
Ta 6.701339678779089 9.405397370756225 6.490236322867605
Ta 6.419335576126503 11.805402921592648 4.6086176209020655
Ta 7.798318300014158 11.871661473329437 6.89264703879751
Ta 3.829065813839287 10.073203154596664 10.69003504055411
Ta 5.032758809710816 8.669728375894667 8.458097527662732
Ta 7.351869504325121 2.3547978927224036 8.179131130851447
Ta 10.430729064862188 5.547982626108867 5.140098968673944
Ta 7.697944361837689 7.462007635035416 0.7718890327288178
Ta 3.350108538027241 6.324914339583794 7.701111060981066
Ta 9.360400628920946 8.942021340465558 1.9171195880519614
Ta 7.301908271974013 5.1062851188103195 1.951203307633032
Ta 5.762064235092698 6.765602087361387 6.155369227720577
Ta 9.884997633605515 10.022667208549311 6.714248010489362
