55
Energy = -564.53103369 eV
Ta 3.807851307992536 5.57878317574897 6.701090922099066
Ta 8.328055986311652 10.617924438381742 10.681137316023698
Ta 9.023672883362483 11.600104768586643 8.401708150061486
Ta 5.657081410432346 9.43193720779347 10.498773921662728
Ta 7.140360446887621 11.260806902188275 5.160851063073937
Ta 3.6062945171880245 10.439002937001067 8.368590466223672
Ta 11.72005894613355 8.819805793442972 4.778081814810499
Ta 9.13023200463567 6.029532011688007 9.407720243643192
Ta 6.348484784636078 6.7643378187167675 10.246825553615363
Ta 11.803408280609716 6.510916337255372 2.8495930029818366
Ta 8.159957116371986 4.049385155947687 6.794078204316823
Ta 4.135670715526703 6.95716095256455 12.0274716730688
Ta 5.066465062265574 7.029474842536694 4.98044741781314
Ta 12.667473113015681 4.303643433769572 4.071090322781093
Ta 7.980336329814699 4.815046775015691 11.855545785379444
Ta 6.688651568962874 6.067478672435728 7.401068958966658
Ta 11.572890383426538 7.216142269156759 11.165150855185022
Ta 4.942469988007887 8.003116093405355 7.834252118118879
Ta 5.342797577516892 3.412411057344717 7.540572959584697
Ta 4.296932936892794 5.362056780598313 9.245976098903459
Ta 9.91524793093111 6.099862717839865 12.746814889981955
Ta 9.521361282316134 7.813610397213182 4.030983388426375
Ta 5.2169124942266345 4.5757138304007 11.71863256393645
Ta 4.8463691738825805 11.603267539217494 4.008497457735367
Ta 6.200323350906057 9.377884329787634 3.53731217230311
Ta 8.609584389575282 8.027518621484774 11.416513029306765
Ta 7.835595991791188 8.471036346431362 8.58332525595181
Ta 11.07717245243185 4.002650484861586 2.2892450922578873
Ta 10.733948524047054 4.46222572478628 7.528967907337243
Ta 6.548817457910998 6.6803399720398176 12.980198440355382
Ta 10.821798984424941 4.592047658975114 10.769713119194314
Ta 6.89853926351058 4.083145514606108 9.497083407808333
Ta 3.3394648042581174 8.12740442454963 9.973915691921157
Ta 11.943861710768578 6.442470571359788 8.632943223118026
Ta 9.687852361036459 7.014792504673257 6.733355430401107
Ta 12.205346539035814 6.31059219794404 5.683063934377326
Ta 9.664739890482824 9.864534080337608 6.43866237895498
Ta 11.655043491435858 11.180384039134779 7.85929396877403
Ta 7.180588052332475 8.563314722931214 5.854497891652896
Ta 10.737715728985401 9.662992536784335 11.965055885879002
Ta 10.88509317979367 11.648886209316464 10.337334503733619
Ta 10.321841802978918 8.883544781938559 9.168838955974254
Ta 7.626561933690045 6.019035628965309 4.60869795597834
Ta 10.055737425979036 4.754659281038972 4.742089711050355
Ta 5.748127553753346 4.299822347970252 5.226858405541033
Ta 12.687448449970319 9.63402301989532 9.9537849157283
Ta 5.706129995035892 12.19813036335018 9.792633173568747
Ta 3.579559428441314 10.985766892331966 10.899099514176815
Ta 3.118587393299659 12.976484457400005 8.923181855850984
Ta 4.991214981363667 14.399377979429651 8.627070354206442
Ta 9.310518216637512 5.844230940356836 2.281986393866868
Ta 6.49091246355292 10.556991064936714 7.780734152704218
Ta 4.48729151146917 9.764905055659336 5.685858388376553
Ta 12.338718886165472 8.71399515861633 7.211740402327348
Ta 4.887143859211292 12.389607495480698 6.7963056545518405
