5
Energy = -37.33152412 eV
Ta 7.748647108210627 8.203949581004263 8.538152483195123
Ta 6.774200556943142 8.229190961990028 6.307011637805778
Ta 8.961613933746658 7.406307188348811 6.311839229201339
Ta 10.026395494417804 7.318609363010084 8.374725675458146
Ta 6.590305473061159 8.865924963724776 10.459712452210072
