55
Energy = -570.24071013 eV
Ta 3.5685324135773224 3.60078438838457 1.317231601220304
Ta 7.445080971531911 2.242366485239311 5.144855952793048
Ta 4.996951983671964 1.0096208330493956 5.501969602094747
Ta 5.085093527150482 5.3973381566094885 3.002057025386809
Ta 3.64368166971461 7.98266867064958 3.1300720997759863
Ta 5.4652182390082436 7.570987156532279 1.054192573818389
Ta 3.2741386891691198 6.106756129128263 0.9241343329349699
Ta 1.579216195539708 6.475785479917966 7.958672956261203
Ta 7.43531121187583 4.316846242103491 7.304944366316852
Ta 6.51530136703386 7.7380531562734705 3.882840108648659
Ta 8.977558973147282 6.554426709394925 6.173248333628625
Ta 6.694678500052742 1.7763880418281082 7.764724582489059
Ta 2.393373072138524 5.376194727099436 3.4215167759123335
Ta 3.474139550518678 3.4371686046038064 10.6770372419147
Ta 1.724761688498605 3.7384117751738017 8.647499231707037
Ta 11.42764014087384 6.49036549209317 5.19416866911195
Ta 8.094451447161177 9.293258473255065 6.1347100879070755
Ta 10.010019841779261 5.388841642764635 3.2303835055242835
Ta 4.152433258143484 6.601831509846175 5.464101981396533
Ta 1.0453083990164216 8.979322364352518 7.060241017340066
Ta 3.2005937639539446 2.711920919736206 3.8422508161688524
Ta 6.09841690148765 9.99097584378825 7.938228214950845
Ta 5.761677936329338 4.646835807209312 0.5008728574145326
Ta 10.576833215735078 4.510754800092943 7.4929952322360265
Ta 9.301025840031585 7.95210016329281 3.59397540571801
Ta 10.725860563654196 9.020303629867911 5.4426252883798645
Ta 5.373263046122777 10.009570876611837 2.5200094433319586
Ta 6.332155196439463 7.169056938038458 6.986412786733933
Ta 4.28510293928458 5.5231822180979835 8.39063838709338
Ta 9.619129918961843 5.932410791619296 9.190303473962393
Ta 9.334247384113368 2.0272194488306448 7.207765884655556
Ta 2.3315804971303837 4.490849690140336 6.176859899677046
Ta 4.585299886065258 5.851181658453811 11.24622108092276
Ta 2.9446235186538545 7.780776753877968 9.944385147055437
Ta 5.0241598887083665 3.7718559439570885 5.734589908196051
Ta 7.884586289693422 3.6575375720192387 2.2744328462736223
Ta 1.3718202225884704 7.301042903858717 5.199941136567382
Ta 7.758443932108772 6.268950882345738 1.808390994782487
Ta 10.777666602502697 7.7978253184426976 7.6572651072096685
Ta 2.635440945935596 1.7957921507144923 6.155886460246189
Ta 8.757033866642036 3.3242304556904165 9.409031242977326
Ta 4.107454806233912 2.6436453082258926 8.070589384303661
Ta 5.952420948780204 3.5969552519415338 9.967500331607543
Ta 7.747210799325032 10.326607712334145 3.6964747349299016
Ta 5.2766256926203035 9.576433841161007 5.340747853927227
Ta 2.614823620369469 9.613807905742094 5.087752764654705
Ta 7.0078548973732255 5.900093534435724 9.680164582855316
Ta 3.711051249684454 8.452256841924374 7.460254886368517
Ta 7.662151502268348 9.009561273257553 1.4747909525929412
Ta 5.543955711048876 8.076662915971454 9.67115699512138
Ta 5.69712341604645 2.634617840938844 3.060412396998215
Ta 9.72843971039066 3.7244820853089697 5.165193432076829
Ta 7.298013011295076 5.080753978627629 4.535978248158852
Ta 8.195080413541925 8.396600033154629 8.692030336661718
Ta 1.9525895787989416 5.532379525513963 10.571918292530196
