5
Energy = -38.85462426 eV
Ta 8.246925847811491 5.3586641619720385 6.46504903714225
Ta 8.246925847811491 7.571433912312462 6.46504903714225
Ta 5.85176322384005 7.884611494861855 6.46504903714225
Ta 4.127867042095986 6.46504903714225 6.46504903714225
Ta 5.85176322384005 5.045486579422643 6.46504903714225
