5
Energy = -33.2094233 eV
Ta 10.245851367080327 6.921945053994349 8.986128011584558
Ta 11.921400315551114 5.951300546705519 9.404094137626725
Ta 4.669682081164752 10.89824948208099 6.5804554967909095
Ta 6.097632995893338 9.769874592334983 7.355191166587517
Ta 8.073118258635333 8.30262366223844 8.288095800060704
