6
Energy = -50.7006398 eV
Ta 10.04956805032169 6.415012121998336 8.944873859689334
Ta 9.198974295081815 8.2420754951026 10.155869545174816
Ta 9.453085968907114 9.92840875450781 8.225282454700599
Ta 8.863099800409296 7.617951052505487 7.286829192422195
Ta 7.217328231738202 10.690838135145796 8.243519909267128
Ta 6.98592518361457 8.424019288993689 8.840675995172688
