6
Energy = -49.48401175 eV
Ta 8.109653061261366 5.178034550882629 6.922306095627989
Ta 7.831284272443338 7.423712536888657 7.920264978182245
Ta 7.0344138571048225 7.066584824262835 5.432574219183976
Ta 5.597874200305484 8.273120005241559 7.27902654449812
Ta 6.051553042971925 4.6348307345312145 5.662944504737211
Ta 4.493238151112557 6.541733933392725 5.900900242970078
