6
Energy = -51.77873453 eV
Ta 4.869087776389323 6.191708148845086 7.421217057798577
Ta 7.919645046376202 6.596874948436423 5.367527810521961
Ta 5.562634457559109 7.632275433592074 5.298156322251476
Ta 7.037037673808297 7.72623073895995 7.507399252540867
Ta 7.226170535573051 5.156427849625383 7.490467613160825
Ta 5.7514817499090505 5.062540021004891 5.2812890841898845
