6
Energy = -49.79813368 eV
Ta 8.07898706434756 5.841460570501108 9.0093911554651
Ta 7.489032777060754 7.214212960144134 7.526700138805815
Ta 8.432901581089999 10.665654938587274 9.769678020038917
Ta 9.10248869064456 8.151147983353093 9.529862995070422
Ta 8.158368343737322 9.69297301202269 7.4760534214574745
Ta 10.439491314054022 10.109712697029936 8.425105130480695
