7
Energy = -63.64475623 eV
Ta 6.968696793241137 6.6321793303286105 7.274127585465031
Ta 7.975121750070926 6.88738682598041 8.551008843420664
Ta 7.703792012615583 8.95304036859223 7.254450749935094
Ta 8.108576857679237 7.567469786113236 7.229407387382185
Ta 8.74176112045776 8.152840434539367 8.28609510293135
Ta 7.3586251112499115 7.890015063832786 8.220649172497115
Ta 6.793826950184754 7.567469786113238 6.83466075386795
