7
Energy = -58.39404598 eV
Ta 7.7082525936851525 5.748935975885943 8.69386311329841
Ta 6.466715207367758 7.8991774943336095 8.6945013
Ta 5.225177821050365 5.748935975885943 8.69386311329841
Ta 5.225177821050365 7.184494438849575 4.2395673014371065
Ta 6.466715207367758 6.466715207367758 6.466715207367758
Ta 7.7082525936851525 7.184494438849575 4.2395673014371065
Ta 6.466715207367758 5.034252920401907 4.238929114735515
