7
Energy = -61.8012046 eV
Ta 9.221640359474565 7.148674411950788 6.203484105947421
Ta 7.775861113211257 7.874676793510473 8.077323087148685
Ta 6.711296309074449 7.795365840830653 5.759354891763234
Ta 5.632335214162719 5.502475122813471 5.4572143451204935
Ta 7.7350460199781566 5.315826247012729 7.016048690291976
Ta 4.262694512277218 7.310598718057019 6.493435375040207
Ta 5.784021058120285 6.171334371784969 8.115053904384261
