7
Energy = -59.58940066 eV
Ta 7.230359025541921 4.370555029313746 6.395047552065539
Ta 5.3304258077853754 5.998365613239942 7.044733479112062
Ta 9.168880195848729 5.873137484782697 5.9585345464974555
Ta 7.764011266140849 6.226879944657815 8.010680851528965
Ta 7.056375159178493 7.080440901989114 5.464659742032191
Ta 2.9495342875412947 6.820683776169174 6.082858416784893
Ta 4.577893820531995 7.740166497037149 5.1007164771253315
