7
Energy = -61.60866973 eV
Ta 10.142798799409318 6.591412249805664 8.000230193593564
Ta 9.785008950154866 8.33689702372941 9.829120386577996
Ta 8.893035134469338 8.484629124257378 7.219808725811234
Ta 8.019387100480067 6.566687581133081 9.242980432939724
Ta 8.98196699816397 10.575216598170364 9.120925730094031
Ta 7.028714927649712 8.852732785866122 9.280877886982664
Ta 7.385212962603013 10.456962077720299 7.291145854469438
