7
Energy = -62.33860246 eV
Ta 8.45056646362698 5.273127836243349 5.805822287142283
Ta 7.356492813748789 5.677394989903192 7.966104843727202
Ta 6.6292942317184504 8.139904191749181 8.171938385051618
Ta 4.868161951375894 6.288232103593818 7.620106842321981
Ta 5.44589175662514 8.108100117007023 5.8419260241908555
Ta 7.9811469730477125 7.677214158818179 5.993860187836889
Ta 6.0519738056390935 5.63744464841516 5.401179971201644
