8
Energy = -72.07901638 eV
Ta 8.206950141397861 10.406809020836654 9.095298528874748
Ta 10.856676598340265 10.073152934809766 8.282337418941685
Ta 9.684479953376417 12.31244768706865 8.403525369633302
Ta 10.177534106417433 7.5861067963330395 11.479629853018528
Ta 10.397028129824339 11.632809782002107 10.654600911416665
Ta 8.860709137880075 9.744539216104009 11.500142947884529
Ta 9.324828792466867 8.219062322074112 9.20922721285805
Ta 11.593191852625749 9.423310841699951 10.665022263829712
