8
Energy = -67.45359607 eV
Ta 9.701932156948654 6.75128940120613 6.913518784711327
Ta 6.326501869993784 5.375367612803047 9.045966869760075
Ta 7.018019618078819 7.014883752234146 7.014825985972665
Ta 6.500953153079688 8.70242755455402 4.971933868799702
Ta 8.75911432553693 8.17634479897389 5.309809803093772
Ta 4.647082489722396 8.05262319063436 6.250128135036813
Ta 4.574566083577734 6.602155975997239 8.090200700878082
Ta 8.61131200672029 5.4463490966926775 8.525719051757825
