8
Energy = -68.30267879 eV
Ta 8.550775727716266 7.118834668825751 7.994001691692789
Ta 7.241829970991558 4.919080380802178 8.04820952602242
Ta 8.029669244414185 9.047443547243354 6.840087157881696
Ta 4.744820108813963 5.122925297973284 8.185533461668376
Ta 5.784736188964626 4.5965206776571 5.989630665372737
Ta 6.785232405287072 8.693038032343827 4.840218183475378
Ta 6.084934744896653 7.169326583407445 6.959592692091669
Ta 5.997019283932499 6.550369381057205 4.36403525980876
