8
Energy = -72.61111458 eV
Ta 4.934226975544565 7.882453977887227 7.732788336618921
Ta 6.212065160973434 7.3456633716813755 4.959479614430723
Ta 5.319111428990917 5.502586732014426 8.547905924296213
Ta 6.637875397930484 4.517638038876245 6.015376672796713
Ta 7.168221709712368 6.727237603805624 7.282815762898249
Ta 4.441289940771569 5.910544297108696 6.186452089547623
Ta 5.960227569503724 5.171001104053059 3.6428208039890806
Ta 8.244638710215193 5.85318693518283 4.547937563934226
