8
Energy = -72.68852702 eV
Ta 7.502374393866778 6.138345777395232 5.731277820815395
Ta 7.433588001046753 5.152586018880653 8.190480948920278
Ta 9.443314386433073 6.477295483081901 7.788059341506856
Ta 5.3183836375999745 6.190159657596693 7.21009863653563
Ta 8.888798560305663 8.31401415837419 6.285896330944853
Ta 4.84864325434424 8.477022049688857 7.662839619546505
Ta 7.276867576968792 7.821875377412411 8.395728568717182
Ta 6.38695550360543 8.527626791740877 5.834544047183719
