8
Energy = -70.81278764 eV
Ta 3.8727273164822287 7.888989212689369 6.907337341801704
Ta 8.626342516533981 6.875358864217854 5.871289539558243
Ta 4.700894631309116 5.564559427189 6.535070528282263
Ta 7.4896319248952965 4.862224908411438 7.331107353562175
Ta 6.529217666144796 7.431442807424616 7.370871795099697
Ta 5.466387342330715 7.671758103157341 4.96913140042901
Ta 6.704311799871886 5.448402993466755 5.0062750633064415
Ta 8.945062263815156 6.611077239464043 8.355970386931833
