9
Energy = -82.69591718 eV
Ta 7.8357732813944025 6.666982372285237 6.855010009111441
Ta 7.369336821284695 7.26608562620298 4.371972506390612
Ta 6.549298418169938 9.066817236956197 5.744124744193436
Ta 7.2611390778054385 4.14741497266581 7.240088872141473
Ta 5.963118002897514 8.134423697523468 7.888323736810671
Ta 6.78345705166603 4.890880814169093 4.81526251498351
Ta 5.4441070266703875 5.714845315495356 8.185049953676511
Ta 4.979453566074463 6.866956624288821 5.667071630562473
Ta 4.823076873328739 4.254353459704121 6.241856151421349
