9
Energy = -81.58688444 eV
Ta 4.779327044766241 6.488747329296656 6.4584960638309
Ta 7.39581577264332 7.208848944925681 7.869466432533216
Ta 5.777758075891014 5.349651942366198 8.601387951226737
Ta 5.765948527739311 7.733673092527716 4.435109320229284
Ta 7.3173800776519355 5.809847120615793 5.142679084684285
Ta 8.031385735553805 8.289192960969437 5.620884266327126
Ta 8.027963641271043 4.75227802901685 7.437670876562958
Ta 5.7828357650267135 8.890873367376093 6.781886284390617
Ta 5.761624491098013 4.116926186141167 6.2924589574596395
