9
Energy = -83.64902668 eV
Ta 5.284063444348329 5.595196490294057 4.457690595310934
Ta 4.980935541293917 5.381029978235887 7.00199262742643
Ta 7.221508186623204 4.5904751931174435 5.8193111850862405
Ta 7.495078998695681 5.85977603229218 8.134112967745335
Ta 4.244987904745317 7.594378282895405 5.920010833019969
Ta 5.597226636934024 7.715048351056285 8.10472344630213
Ta 6.81221167268159 7.40430385005925 5.53727507419325
Ta 8.052866417623969 8.320228806666067 7.634138391575827
Ta 9.09239059425596 6.320832412585792 6.172014276542122
