9
Energy = -82.16668309 eV
Ta 8.421391732002297 6.833135047866149 4.644263328317879
Ta 6.207989318499851 7.950855694840446 5.35138950803091
Ta 8.160732288833026 7.2158035114704155 7.255345314913678
Ta 7.171718279289747 4.950864911395483 5.888630010757288
Ta 7.0609869518533595 7.282357929213908 9.601608322811284
Ta 5.7892794861553165 5.886663202718794 4.088246276223917
Ta 5.533161316395959 7.99765837707923 7.788426573997813
Ta 4.62168249133336 5.941626818144575 6.483043320993715
Ta 6.396969390300266 5.301548464517041 8.270858012703268
