9
Energy = -82.18840252 eV
Ta 7.859094627475421 9.474017669188836 11.748026945473798
Ta 10.074403187420414 10.640430479083294 7.009653698162528
Ta 10.290273598311844 9.166261531078046 11.2819041209337
Ta 6.703718493023833 9.022426014075942 9.580875490503706
Ta 8.415586953553884 8.522778536312405 7.64136983195979
Ta 10.568842325209301 8.52948502278753 6.098474046482516
Ta 8.932188039077653 10.511300948253018 9.406716320965703
Ta 10.738375265028655 8.592871869550905 8.745447699577019
Ta 8.63460103906414 7.469452150402893 10.281201665729169
