9
Energy = -82.05722161 eV
Ta 7.143241343992478 4.454840390501361 5.231019242078842
Ta 9.164205729467682 5.707195152698748 5.680579065684141
Ta 8.67630161436914 7.88669592349986 6.602051839417164
Ta 6.72941175073444 7.058682241836467 5.005269656003321
Ta 7.344385513631265 5.711039667077889 7.683676299490456
Ta 6.263424587776562 8.123603055324422 7.45611464846176
Ta 5.05267731854318 5.41880518189019 6.359627078808393
Ta 3.9814507021980123 7.769473349956451 6.285379906154661
Ta 4.434069035012137 6.672574931988038 8.502802374263611
