9
Energy = -81.84838884 eV
Ta 4.947363965021734 8.827821980607538 7.770392380328312
Ta 6.063332035314279 6.004354327994929 8.11630325443935
Ta 6.998639580707345 6.427314433816047 5.190054974065927
Ta 6.203253134701679 4.0809202875977695 6.375827703029579
Ta 7.2946331212597775 8.079306493496452 7.257845521121385
Ta 4.694834473573128 6.883054862210915 6.123203061748943
Ta 8.370350393171577 5.2104841096555745 7.34007812308454
Ta 5.821678593992062 9.130943628159368 5.408800105530595
Ta 8.355116391722982 4.074601123772873 5.157727001428609
