9
Energy = -83.49041625 eV
Ta 8.29230695378235 8.835083267598728 6.055625396949179
Ta 6.850520890859021 9.740367817443415 8.079449863486907
Ta 7.823309815352971 5.979133688179653 8.733433691255387
Ta 9.421587059495238 9.822470201697747 8.140909163192951
Ta 6.161124032638079 7.494721478713764 6.865054797156701
Ta 8.330397111076376 6.266559118004777 6.226909258801783
Ta 8.508499614278834 8.22885473933732 9.942242887398145
Ta 9.954249640533458 7.318997886388218 7.923051986972285
Ta 6.04498630065131 7.700215253958132 9.423778092155406
