13
Energy = -38.47527145 eV
Te 2.6181918908103223 4.141403340709343 3.4946692780937374
Te 5.744503645007987 1.7620580083199497 5.124677015916842
Te 9.276918620978881 5.309107574274639 6.3859528817252045
Te 6.090159351693007 4.048910935324319 3.6610671677311153
Te 8.865790700427523 4.355675631285215 3.8451745946791296
Te 1.8875160407763718 3.173836461887477 5.885179912830847
Te 9.155036392622916 8.03349371770648 6.259387192628011
Te 4.31658175389182 2.7992890446844902 7.237474107606274
Te 5.48260877842691 5.818777861694848 7.339845887328617
Te 3.5534793915255367 7.110818575265284 4.050538859888081
Te 5.167180916967225 9.61444087712126 4.78838014855282
Te 3.042144380633639 6.7900009660655725 6.697217180645256
Te 6.524964342133479 8.767263211557026 6.955511978269863
