14
Energy = -40.90510307 eV
Te 10.127668222378391 4.90312212006416 5.183657580959972
Te 9.431106844207703 7.03010322644744 3.524787048789303
Te 8.45006169980794 5.051541920784467 1.7901687333989238
Te 7.611369937321099 4.076655050641931 5.866512173990883
Te 7.218790273612228 8.093524531187441 5.960800033702432
Te 5.277534574083035 8.088403024871702 3.895416547489795
Te 6.362995498709474 4.200380773483493 3.2728215424738663
Te 4.415352520406893 2.945593728652867 6.389186293997345
Te 5.5940000958532785 8.493279746847628 8.158202532306516
Te 5.472001054080599 6.112888843641412 9.482234417472027
Te 2.811410970893098 4.312814476628511 4.740668603616478
Te 3.2058694176742826 7.065129665772825 5.3155723507724035
Te 3.247437425742635 4.3518938885192675 8.91099842536143
Te 1.2158607017186405 5.576695341602196 7.799710566614134
