12
Energy = -34.91657011 eV
Te 8.666741743012855 5.998832397656382 6.509208536099332
Te 8.606294055924241 3.996282505745691 4.467855704251929
Te 6.4999414339955885 7.441624412182315 5.684214175839514
Te 5.731908909068243 4.483991994415826 8.703009027834415
Te 4.314115305630642 6.380353556459439 7.096170454554483
Te 6.496974514679517 4.989866617547316 3.0615815055815307
Te 4.226538167886961 3.596120792861858 3.9493068824000077
Te 3.442047842297012 8.802210326773128 5.260885809372934
Te 3.418287983593741 5.830937809404434 1.885285434503995
Te 5.548787689630626 1.6069817810427793 5.522295444386552
Te 4.361064177653537 2.2669916005505883 7.890802687884317
Te 1.9207069141408926 7.407483545360656 3.5070395585803635
