11
Energy = -28.58821788 eV
Te 7.770250375720721 3.1718759049117553 8.445700575394548
Te 6.6671924659234705 8.014794225206572 9.475096563459045
Te 10.010379273839348 4.335890852410527 8.533721441351549
Te 5.294835255729976 5.450256848280879 8.303389534269332
Te 9.598699998908332 7.530856525238762 8.414232290095084
Te 9.262620431737922 6.147246394188796 5.782453855814878
Te 6.832129948181109 4.78480532263989 5.780039892917686
Te 5.780377217579309 9.841856656443872 7.803808359871974
Te 4.347635899330557 8.24200326087977 5.396174233303926
Te 7.180610437333719 9.385615969065832 4.888228701885437
Te 4.846687344390394 11.003280702393624 4.889987506749584
