15
Energy = -44.86012794 eV
Te 7.341207685163065 8.59450072031426 2.819670755390635
Te 9.308060662110318 6.504297374267277 2.961203619372172
Te 3.6174293257188066 3.563495470727752 4.813291129424254
Te 6.404930092555878 8.73496360481026 5.337587914657616
Te 3.7052155399507645 6.30089109720942 4.516229607931093
Te 9.13986460395633 5.6024281903947895 5.475843014584593
Te 6.014723681669611 2.7350102307629163 5.8556981210436545
Te 8.165543317268229 10.498548923073928 6.630306814450579
Te 2.367968034478341 7.334818061035282 6.687297569201608
Te 10.954725474444167 7.178253854361001 6.902676173420491
Te 9.260438511128763 8.720737720968122 8.399985703482637
Te 5.664000925050755 2.4533914436464683 8.56750197028826
Te 4.286943442089638 8.246313386473393 8.431800395960833
Te 6.6994617314245515 4.715270250560155 9.72666718080782
Te 4.569486972990271 6.317079671395235 10.374240029983396
