14
Energy = -41.08294646 eV
Te 3.2697626404776328 5.358410906710746 7.250850572498696
Te 7.80058347432115 11.20768132236947 6.532730408098615
Te 5.424896629193116 7.451687459687791 7.67778088595852
Te 4.532175296343876 8.456413680054158 5.141564087656346
Te 8.804535792736358 9.259100437092771 4.877748065984052
Te 7.405093724433322 9.445158114979966 8.681525708228635
Te 11.117212828974731 9.16869776214919 6.368392057449301
Te 9.959347839402065 8.042712197058465 8.619572616947965
Te 7.222523851179237 6.4919530648178165 10.231775084665601
Te 3.957669913648748 4.233707089757603 4.936817734509189
Te 5.48078616088264 6.403126006520458 3.7001259776931406
Te 6.588077816916818 3.0590724355711902 8.232270618017541
Te 8.486537582565683 5.205476054199553 8.17068693212714
Te 6.247553342354021 2.466856475474389 5.661727618457904
