14
Energy = -41.09677702 eV
Te 7.380236326809029 2.8245496317292593 4.260964152501763
Te 9.131992921326885 4.928596319500073 4.070338616729221
Te 3.838930945139517 4.748132999811788 1.8782305678654703
Te 7.422890142127849 2.269673577348495 6.961150762267176
Te 9.061566673195367 7.503762311259233 7.618441739435479
Te 4.03867671327646 7.596635102852711 3.654751369849753
Te 7.760760409691919 7.004546707006476 5.294705115999107
Te 2.7131245340330796 3.5884380705461316 3.875654015402904
Te 7.723412115696121 5.94294159667455 9.56737463799545
Te 5.029491770852832 3.1237781380511644 7.927910390357918
Te 1.3698273475534188 6.944863527750333 1.68413142829847
Te 5.290714542151457 5.879837547027912 8.345034594209272
Te 2.808752386801111 6.434419877907144 5.6045332819799505
Te 0.18292939477148348 5.810672709900352 3.6718131020572558
