11
Energy = -32.79867809 eV
Te 5.976680495125498 5.962215506820682 2.115576640964622
Te 5.7373879195718125 8.07950484097786 3.8357890696175976
Te 2.8855046233867054 6.750707581447546 8.51456421140693
Te 2.4604664873422477 6.0330129086607505 5.8828077194291994
Te 3.042428776349421 8.229342063811464 4.355565873826919
Te 4.928634143265441 5.269360667079386 9.547160307308436
Te 7.194461121095365 6.866719218529382 9.511072483391633
Te 9.222654888282547 5.371659849011294 8.468911252256092
Te 8.987894734438763 3.7966133012816066 4.354196244351529
Te 9.588387813441306 6.0340743584216066 5.813823202156664
Te 6.279176127810181 3.910466834067572 3.904210125399527
