13
Energy = -37.96429648 eV
Te 6.479181352308199 2.633459537253048 7.9817419412053106
Te 7.90250247304243 4.823049302153015 7.010426975760254
Te 7.324423222898876 4.679596213192399 4.090647602710316
Te 4.101528750646263 3.8275799612460806 8.843918295524984
Te 5.0764330505448365 2.666346059764071 3.062212558507013
Te 5.229688666504336 6.355317825187326 7.186200488506888
Te 5.952088252026757 4.614235738725268 1.3767127130692738
Te 8.556885424583152 7.218103827719799 4.526706927945993
Te 6.221800872934857 8.46171088945139 5.583051532163681
Te 2.455338317756498 6.49210009036605 5.845673659172329
Te 1.9798766428336236 4.019623049583088 7.034599294948505
Te 3.9303478504942513 5.678683584735397 3.3726695218512037
Te 4.224220525808395 8.493514488540301 3.5280256315320613
