12
Energy = -33.45374461 eV
Te 4.412250037701776 9.634038427416094 4.431469685717401
Te 11.901598386627333 8.108819366558222 11.1809676988217
Te 10.55561072066077 11.748661961761082 8.67730009633271
Te 9.135490675186748 9.84737994867088 7.525783801476778
Te 9.43377973706408 5.538771768062008 8.46965070827923
Te 4.330929689093733 7.209582271569763 7.937958799785375
Te 2.7750842673540146 7.737798689389268 5.79526901323697
Te 10.800161592360565 5.78828452627848 11.52765248077805
Te 10.854550377126685 7.569031239831227 7.380290760664861
Te 7.762659574399807 4.848747109268217 6.238785034108276
Te 5.81646328334618 10.76505015859546 6.340373209023222
Te 5.367394508585614 4.673314775612712 7.492169169720277
