15
Energy = -44.98669072 eV
Te 7.891135409645222 7.219018905601945 3.397007168050359
Te 4.19816060877449 5.404789074029576 3.9159904284466416
Te 7.636018313091582 2.9346013857125293 3.2412164866195394
Te 10.01867359681093 6.316261366670093 4.782421525976917
Te 5.687871801815788 7.4184390180138235 5.14261986567634
Te 5.344783048515854 3.0912743734963315 4.80683475081641
Te 9.636399136272097 3.4702612731889904 4.9559438799157425
Te 7.2727646115929145 10.08331368141933 6.673853271775154
Te 3.12922345196227 8.689949167275794 7.3032679229728155
Te 4.884507056984865 10.721138715899238 7.907405796592283
Te 8.511687426374186 6.087257371767193 8.044441326058536
Te 8.88236555116055 8.77066037087412 8.49550482224073
Te 4.481610198265272 4.887103803448481 9.065005614772703
Te 2.976991435107881 7.1159557168080605 9.56714872941328
Te 6.947808353626236 5.289975775795377 10.20133841067299
