11
Energy = -31.40174325 eV
Te 5.004710635687941 4.524862859261137 2.9187799912420687
Te 5.944317909651333 2.974573795780533 5.168296860825631
Te 7.044683855340189 4.960901365869801 6.626115637576119
Te 5.132103216158934 6.949671772455486 3.895308757724627
Te 5.178566165323059 5.993684649398345 8.388417240978749
Te 4.5024767846465625 8.425186812592646 7.357086289407454
Te 7.248516294866021 9.560775126000584 7.194434795817763
Te 10.147063461649683 6.924936604664687 8.61920836381596
Te 10.017726649881418 8.792087077936392 6.639150085429591
Te 7.23489630900744 9.36433927300608 9.988421454606252
Te 9.866827599302306 8.879465517796142 10.546770592031436
