13
Energy = -38.06365979 eV
Te 7.72279577067997 10.98101948269717 7.859215343105864
Te 6.642771718128938 9.882116910920567 10.190421760777816
Te 4.687546048940086 10.26498983321827 7.304836676276801
Te 8.791192742127835 9.11877422133894 11.774539703011838
Te 10.592318502914406 10.841777469684098 8.257095081909975
Te 8.534272054146571 6.388480490828355 11.814295223101823
Te 10.050876485559112 5.345256469320526 9.759078006503453
Te 10.995767276299352 7.158054067116618 5.970159552992619
Te 11.304811816436002 9.876760117132827 5.828753168203217
Te 4.935791029559539 7.6315597466334655 7.799104076828822
Te 8.213056394283257 4.846674494943846 7.8082358028887775
Te 5.315524799261168 6.285075202665201 5.479275318597435
Te 8.148137772434046 7.17261758719242 6.239128552763602
