5
Energy = -14.50388477 eV
Te 7.07032037947459 7.952640672132958 6.685590903417847
Te 4.752722713517393 7.604007367062874 5.352369082828909
Te 3.9827898094391374 5.1745849082796065 6.423912616971575
Te 6.175057257509654 4.087943206470892 5.136601067535893
Te 8.141574468187732 5.303288474182176 6.523990957374164
