5
Energy = -12.70986947 eV
Te 10.193761552214104 8.408121887077 10.435951971914202
Te 10.142859317624916 10.906777371653058 9.774583870550046
Te 7.988133251163662 6.477524308082013 6.179303978152207
Te 6.05017143046584 7.974771407680476 7.464595593207713
Te 5.320583015639964 5.830697930235686 5.874461040265831
