6
Energy = -16.54057034 eV
Te 6.64716064245713 5.425943163349303 8.871890146938686
Te 8.723430173119638 10.232436640361543 8.033949151163101
Te 8.870648231685923 7.515913309998257 5.964553331188713
Te 6.155817105958881 9.995429698643225 8.12398780744673
Te 9.217880747200205 5.394733277952607 8.647497547503072
Te 6.317288017396675 7.3017459212849305 6.201220506328361
