6
Energy = -16.41397406 eV
Te 8.959197529210886 11.208882560101452 7.41715355794971
Te 7.466211993646888 6.053738370488938 6.062786587536068
Te 6.942273819404311 3.767167082897808 7.63550618511752
Te 5.929993256706375 8.005343597757738 7.145366393847767
Te 6.329984640829694 1.9509851758595462 5.832604906964638
Te 7.610199664936453 9.481508531307043 8.86882932234022
