6
Energy = -17.71247269 eV
Te 6.359358978823364 8.403513628823372 6.806703518457175
Te 8.300685591074298 6.982150973189739 5.472493180119354
Te 4.089380556275429 7.570949358088328 5.494400819769635
Te 3.743503498400288 5.0625210598666115 6.5710064405969995
Te 5.686094747026393 3.6408537814654327 5.238792204921461
Te 7.955571786326165 4.474606356492693 6.551198994061194
