6
Energy = -16.51508523 eV
Te 6.4505836321071355 9.633269747362416 6.197761865473138
Te 8.17157699137553 4.587836170005167 7.37430480640028
Te 4.644297775114306 9.945388859572553 8.073259515664338
Te 9.489448296025557 6.749675011447771 5.868597045434385
Te 8.85131748883973 8.774483059253983 7.465598812914703
Te 7.385220960643043 5.81020334332505 9.526589199988205
