7
Energy = -19.464246 eV
Te 6.977118992537284 10.03724527149071 10.33316866261837
Te 8.409811348329285 7.731400531851369 5.0173753458468395
Te 7.8331125484522115 5.082800202848871 5.5636163238990575
Te 10.301624878509294 8.178448491356662 6.8820649092044155
Te 8.96919924508713 6.990232068871451 9.154466512802719
Te 5.1047728700856965 9.383642413457762 8.662221481297394
Te 6.735608894674165 6.164495902052358 7.923309585535555
