7
Energy = -19.44670642 eV
Te 9.157496988808065 8.363612829388078 6.685715415026326
Te 8.195292138100346 5.8348950711143415 5.469193119391025
Te 7.149108949717061 4.71851781661512 7.639644958665393
Te 5.495694455790495 7.996485827630564 4.37213826078827
Te 8.62928677487752 7.943456791638994 9.190105027114413
Te 4.741973507691196 6.122449528150947 8.02692035999153
Te 3.9230803382429213 6.094015166860241 5.400655277178596
