7
Energy = -20.76129548 eV
Te 7.840984943079543 8.354035008490683 5.352273933556973
Te 5.829760274699279 8.228524058919199 7.116827552180967
Te 3.601602983452878 7.414768914645488 5.648566319525848
Te 8.928173088662412 5.695858261184712 5.1966017257999715
Te 7.461563676611758 4.198649156673583 6.864109595558751
Te 5.232054328698856 3.3970619156572806 5.390098805314602
Te 3.263854924209168 4.869096903842952 6.589516287476654
