8
Energy = -23.96887076 eV
Te 8.941983374191935 7.1836216265858255 6.657075100644249
Te 7.215898851898434 8.933133561344338 5.43952573160015
Te 4.88881454066477 8.892695197069926 6.8903495037692055
Te 3.128141682596206 7.270943187232184 5.550922768074997
Te 8.888090440307572 4.864523699306326 5.193725036977688
Te 7.237542581230388 3.1138573244384076 6.51101543503016
Te 4.798228316676617 3.205666833860881 5.2606340889039265
Te 3.186700144809988 4.820958502538023 6.782152267376166
