8
Energy = -22.60899426 eV
Te 5.94169357891321 10.429699468190938 8.612842550621016
Te 4.625239420456396 6.26470703309365 8.23700032444668
Te 3.99910839428102 8.739558561518814 7.538121604162161
Te 9.290279049599269 7.730700433825327 9.257578536508387
Te 8.42601332573156 5.369415580130932 8.32101214971972
Te 8.229839593434196 9.450198336305233 7.362964745795689
Te 10.740107915341792 7.871056574189353 5.685598367019682
Te 9.978100268604198 5.36199869233286 5.886552638481841
