8
Energy = -22.47740584 eV
Te 5.16347376796748 10.324010977237231 5.988128251788338
Te 6.3192695499076335 11.365894452357754 3.8686660744323085
Te 10.118590873961303 6.714604097996486 6.744560282502534
Te 10.640816809896162 4.676570898547394 8.27903739533447
Te 8.086010605984347 4.125592738302504 9.545712294589194
Te 6.44879430312453 5.588402167694241 8.010474533717941
Te 7.258246642474163 9.895477597724788 7.845685682676382
Te 6.028464322525648 8.005749824245697 9.348372317925385
