9
Energy = -25.0820502 eV
Te 3.1827122683960223 7.433180311513847 5.156868993977245
Te 8.645503321962538 1.8902816122785493 5.500137477734114
Te 7.437618123672769 6.468406424170224 5.091462709532624
Te 7.8237730535942385 3.7983036223732176 5.326055688494808
Te 1.789926636390438 8.521355771883321 7.107497432939201
Te 8.645503321962536 3.876260925096614 8.115765465057759
Te 5.41677392345791 7.027341193985168 6.879848415161309
Te 8.119907963692208 6.36570115378 8.794666574812421
Te 9.01134388828519 3.428312909377383 7.579777568642858
