9
Energy = -26.78490395
Te 3.80904593822979 3.1275207127876823 5.793833879286954
Te 8.15132530180278 3.397713475208406 5.326663693308792
Te 9.554349459604818 5.5371509501068275 6.297142258641305
Te 8.67266494698126 7.91071550797656 5.242925487298902
Te 7.080236359582783 8.995467896443882 7.213136469727671
Te 4.637041138868674 9.339208900170592 6.015019325125647
Te 2.899189913167431 7.325573371526259 6.651169028647612
Te 3.3964790049779814 5.544630851337625 4.594309625221129
Te 6.1463430928163785 3.1686934904735313 7.212475388774016
