9
Energy = -26.49688945 eV
Te 9.988031620012986 7.962353184813718 8.165959231569413
Te 9.92627368361736 5.715293672628364 6.1447993602166875
Te 8.03489455858255 4.291466262715645 7.3558281207531655
Te 5.655687288312118 4.7082692097745085 5.974780016685822
Te 8.753270284657857 10.215098034686003 6.632588897455563
Te 4.183040538383688 6.494091410817868 7.4256048749788945
Te 8.07352940361831 7.257729443858651 9.763796202530942
Te 4.589955355688776 8.940226205022771 6.260507975000529
Te 6.408479603244236 10.251036490466554 7.8917412203050565
