17
Energy = -106.04877324 eV
Ti 10.229360839491216 4.475154858138735 4.460287343123564
Ti 7.682035631624996 4.097980890630021 3.9266212203472914
Ti 8.388643176832877 6.380329556342284 4.7708337645661585
Ti 8.78910186111421 4.059902559759821 6.306975863157367
Ti 7.076423564562603 5.61350201098832 8.860158447190852
Ti 7.407847899459853 8.315660925816331 8.63141349403118
Ti 5.121127356520003 7.356767356638323 9.444879657339003
Ti 5.964808402306226 7.006118632217063 6.88228998321951
Ti 8.731649982342867 6.702239542015631 7.148175130978903
Ti 7.242780920163271 8.856278012207548 5.825251231860339
Ti 6.462326583684438 4.664003513587066 6.168779647233361
Ti 4.4621020685108554 5.1896672462947775 8.13193387229606
Ti 5.19775340088242 9.373303865818954 7.641041231483584
Ti 6.02646681353346 6.666272264063098 4.14767829248401
Ti 3.3278421259523285 7.455429928085434 7.425414012365725
Ti 3.9467295904312643 5.845456021593216 5.462300620217851
Ti 4.467300489124842 8.466233522340683 5.290266894642683
