10
Energy = -59.02669264 eV
Ti 8.683853557835711 6.403625812373913 8.238203503129123
Ti 6.4034611529931285 5.2116161438939885 8.607396218501387
Ti 6.502004167116621 7.373466785365901 7.187335360519438
Ti 8.770044328265195 7.333329557587058 5.828789922187156
Ti 4.402796063796838 7.2861672038537355 5.441233526718513
Ti 4.158229714189766 6.467816129601808 7.896538221964108
Ti 6.579732992552077 8.798104748571385 4.906748735315376
Ti 5.246468844837977 4.98332489671253 6.216522444628063
Ti 6.661219188247972 6.398351551591323 4.527082198950211
Ti 7.827389955690199 4.979397135973975 6.385349833612227
