13
Energy = -78.50815774 eV
Ti 4.857615477031919 4.020258620765358 5.099404391547836
Ti 3.482684507856025 5.810816319067073 7.054439557956821
Ti 6.661489732071723 5.4297946220508395 3.21913427406478
Ti 7.156025229159783 8.25281120503411 9.028853537442137
Ti 7.481896951168118 5.919449462098053 8.313008221776363
Ti 5.190770573706214 6.687237344942725 9.309590157449282
Ti 8.813030804803144 6.544232592475861 3.9407013385881906
Ti 6.7177873226618345 7.725388812167442 4.4674828834416465
Ti 8.36955298969913 7.6487337723705355 6.526198713245238
Ti 7.331851803409508 5.284309161449418 5.6904103589303805
Ti 5.691374709236986 7.594523944832334 6.96402965826714
Ti 5.469545825340186 4.743573530666237 7.5389537740188395
Ti 4.743597831856307 6.306093987846853 4.8150168912723625
