16
Energy = -96.41511094 eV
Ti 9.23810278426761 6.599398986186659 7.715929905220572
Ti 7.691416555751428 6.865757005067944 5.2467869919665215
Ti 6.578659819626409 7.274322365276293 7.587443965038954
Ti 8.50020939491426 9.111131169086587 6.711482536556098
Ti 6.12187404175686 9.960557893928149 8.097290100127342
Ti 4.173285801789024 8.143334633435448 7.480792136790642
Ti 10.290721715833621 7.742894257276231 5.5162825523249035
Ti 8.139675612329423 8.58935155103348 9.268926061569628
Ti 5.487192471285913 8.359794774811755 9.840332651781699
Ti 7.678812813523085 4.67697077135779 6.963042315555731
Ti 5.536308645169901 5.3223195179974745 5.902859477660064
Ti 9.677438737955704 5.197905463184772 5.4510691458759135
Ti 7.352444981625314 4.427914520933058 4.4280056168104815
Ti 3.4803683194243344 9.777375930155007 8.664388486736323
Ti 7.008970509148603 6.020805951603381 9.564327426699005
Ti 10.705108610569233 8.855796239533188 7.780970071929029
