10
Energy = -58.39329101 eV
Ti 6.971131887875757 4.225949547429979 7.29254257626785
Ti 8.178222004971033 6.620671492866089 7.60865297272632
Ti 6.897265875092219 6.012857115942168 5.434304048692509
Ti 8.872668162048775 7.925796874676899 5.410721772852334
Ti 5.264311779681604 4.182186011353703 8.831090347920616
Ti 4.57283317174575 4.804209141115122 6.3618140597919535
Ti 5.526448608008994 6.591914205504895 7.795988747434348
Ti 6.871307770366468 8.488497616256637 4.056857361475213
Ti 4.7766092605842925 7.313172656853864 5.3309795235060236
Ti 6.759438382560132 8.524982240935921 6.567285492267615
