11
Energy = -64.42159026 eV
Ti 8.181763386698231 8.630784224564673 8.761379754196867
Ti 7.527329682239742 8.339208817156885 4.04528079824577
Ti 8.144322568834408 6.162326707893109 8.906886657858294
Ti 7.133657979978549 7.134194320637684 6.589787824234206
Ti 7.813569429721584 4.669699328166491 6.637374649409347
Ti 5.3977199607363415 7.3898433870397255 4.388672876720089
Ti 7.472747880879246 5.878872920162151 4.204667534627468
Ti 6.069127692009547 7.664698764328987 9.145233169879177
Ti 4.53212367328436 7.205901361568901 6.954938796636713
Ti 5.414631567152752 5.141675842404952 5.627312331253864
Ti 5.783287245616143 5.2942692289507685 8.21296380575859
