16
Energy = -100.32074978 eV
Ti 7.594788303208442 8.019631840978608 8.627305869243463
Ti 6.287307754759371 5.539530266393697 9.262304722525409
Ti 7.355547674559106 10.432372538089815 8.48239071187911
Ti 4.575111431563803 5.176646449601959 7.304447466288411
Ti 6.835596390110609 6.631133445074588 6.927718257463096
Ti 9.539418723764364 7.30603841799853 6.430149815707401
Ti 4.787478388948817 7.650581521292451 8.313784918559588
Ti 9.724415267679003 9.173638758947911 8.450364339579792
Ti 6.905221427160838 3.9398493436904527 7.2735227912806515
Ti 4.621213064123343 7.222896701728636 5.657685217801195
Ti 8.855438322152931 5.490461100989556 8.259397439446705
Ti 5.870860599286207 9.254450226983895 6.480185006369928
Ti 8.53916225473744 5.14278282669156 5.604483533485698
Ti 8.34134287169784 9.48320540330197 6.339839720445963
Ti 5.974312187949797 5.056679323832993 5.029177439368597
Ti 7.290023455328824 7.545629296931092 4.632832516906789
