16
Energy = -96.75920885 eV
Ti 7.060568028295157 4.592350778761241 6.857385020634193
Ti 9.664637844263206 6.9856523726231385 10.101053372294137
Ti 8.041318385153785 6.360699255323044 5.358818561764695
Ti 9.156180789971069 6.296630669843004 7.733926572188758
Ti 7.678010734469727 5.284377568873514 9.485864318723957
Ti 9.860458442523967 10.309919408305353 6.945987660792977
Ti 5.245153018914847 9.779945455687677 9.876334544278272
Ti 5.228534913286085 8.96050823621418 7.4464620406886874
Ti 5.604406100167188 6.623687895147298 5.624975856290711
Ti 7.0695968644156295 10.563218477872747 8.095026089278692
Ti 9.174610395069026 9.232152285802401 8.974192371035672
Ti 7.503298432935705 8.719564890605591 6.392518625047779
Ti 5.972468653810595 6.495271983417697 7.997521886075617
Ti 9.981415330872437 8.03781567811882 5.961696007943117
Ti 11.241516251227154 8.198541974349709 8.146456710571384
Ti 7.12175038285399 8.06881788919724 9.418648584972459
