13
Energy = -77.58739633 eV
Ti 10.090881509757008 7.725288337209392 6.815472294115994
Ti 8.706066130869164 5.431322582173489 6.628007098062916
Ti 8.79111586329954 9.701717648573915 7.041390547336596
Ti 7.861824240961164 7.913316298432105 5.429060894998539
Ti 7.728827212656605 7.565909383880615 8.116882690339832
Ti 6.853099148117401 3.3294779733549125 6.740210900955821
Ti 6.757202491811795 5.077852481860515 8.43183128071418
Ti 6.284794421439541 5.676506536387495 5.74567749280119
Ti 6.287509619962419 9.442091477204126 6.964828784259008
Ti 5.020605765249677 8.075390539550188 5.180512821924422
Ti 5.119190263353996 7.072988826036028 7.740460627742655
Ti 4.5575864990567485 4.454816181887642 7.2651841491623514
Ti 3.7103565323263945 6.305428387155267 5.686829792059806
