11
Energy = -65.76554925 eV
Ti 5.122222031770711 3.984664507716563 5.231993182229126
Ti 4.875080571971265 6.405723023134476 4.314741336373652
Ti 4.717316836050271 8.273994404332733 6.122536874372348
Ti 6.980348811969663 7.83360317041717 4.856344194769038
Ti 5.994101548478826 6.109384752916498 6.812180130996786
Ti 7.267867807761222 5.270722327715448 4.520718240568751
Ti 8.551647529790301 6.454566190376683 6.452882066313712
Ti 7.135517695670275 8.582192530467843 7.176766374878879
Ti 4.813446698173115 3.7723124862603257 7.645867973612772
Ti 7.29653831155041 3.8550980197867535 6.70626040812403
Ti 3.4621310571183286 5.673957487179417 6.375928118065053
