10
Energy = -57.91378297 eV
Ti 6.091280822055386 11.369743095535728 8.083680274756047
Ti 10.054324073449532 10.34043602823719 9.396705127770808
Ti 8.382801860864083 10.947502301777947 7.444472937298581
Ti 9.585431765432006 8.385107247836473 7.791609441728961
Ti 10.642684604644295 6.019490676648404 8.350271807396943
Ti 8.549961983885852 6.628772453116839 9.391939084009703
Ti 7.157930828817196 9.026928979565952 8.689757137608382
Ti 10.754500494502981 7.8552650139277365 10.058237781392432
Ti 7.7427318488789085 11.224713784663946 9.958938086283391
Ti 8.5532449926633 8.837036501599721 10.845848935277521
