12
Energy = -71.77648756 eV
Ti 7.9942172244522265 5.808247801212129 6.366290569972301
Ti 7.935935365805854 7.461763359052825 4.534069690017671
Ti 8.45572646381967 8.071945200299897 7.229427713087817
Ti 6.752888867523992 4.906467541293595 4.440218315954715
Ti 7.595783899148009 5.9037906471532 8.796522477434266
Ti 6.536436972162114 3.948387797004221 7.077658979839134
Ti 6.24996458067852 8.092340509182558 8.562830247079209
Ti 6.4569953083024885 9.050809633137435 5.927018901442486
Ti 5.408223970490393 7.0958578956766045 4.20066982715842
Ti 5.062265867549256 5.5436441037474555 8.464503426018796
Ti 4.5437196466538445 4.92650333195354 5.769417801077169
Ti 5.0078418334134485 7.190242180286486 6.631372050918089
