10
Energy = -58.52596749 eV
Ti 7.715962667416886 10.554706876042852 7.01623626131119
Ti 7.81330458683725 8.040717884868501 7.429193649094801
Ti 6.206624138764774 9.555518367134525 8.663853042049022
Ti 10.922437371837631 9.200317961442174 10.974193043371972
Ti 7.359348630049299 7.462879850096541 9.80985144529346
Ti 11.32466608391168 9.863028526974913 8.535634121070268
Ti 8.770405285390025 9.775586188497089 9.361145883558937
Ti 9.945114057307439 9.117437527751695 6.844520733554363
Ti 8.978477295639271 8.140104715891864 11.491514208216676
Ti 10.017055832470865 7.533529919915767 9.071460399683076
