14
Energy = -84.68024466 eV
Ti 7.425053706932954 4.4416927478490456 7.317286097947157
Ti 9.23883812685683 6.27702867083498 6.090128931345934
Ti 8.50168545898326 8.58911835775625 5.329410986390918
Ti 9.553395411553483 10.498681582050356 6.781936561741191
Ti 5.830410978678834 8.5696709390905 8.560295224782765
Ti 5.990578539519451 8.483581646079866 11.039592457140749
Ti 7.4933508424180975 10.227248988809682 9.448266922543278
Ti 6.77572358832737 6.954707239015093 6.7485581313035246
Ti 8.846111780644792 8.367179513701 7.9789771819805635
Ti 8.063941520154517 7.760350816355879 10.388407547702654
Ti 6.217267420461158 6.1239777080769935 9.304259678133487
Ti 6.977851854891961 9.89151772654479 6.809152676224781
Ti 10.884161664316633 8.529013928897394 6.291282978079993
Ti 8.790847957886525 5.811696377314308 8.645287598471233
