18
Energy = -113.70473426 eV
Ti 4.428396870577637 5.134915988844258 2.863511115898695
Ti 4.384268768838399 7.62727444394974 3.062861950794023
Ti 6.802843556947627 6.194546003341281 3.4688513139288597
Ti 2.127156842333569 6.407096300916016 3.5501369287350806
Ti 6.164606594322167 3.2712996617313315 3.7828346009268614
Ti 2.8856510221251055 8.493888307010309 4.913872206887651
Ti 8.368129896591654 4.692034022094231 4.912820926183179
Ti 5.667234427691109 8.058176598518914 5.240931136424259
Ti 3.4499756465168536 3.669887020595474 4.597991399853856
Ti 5.8402681003529375 4.908803652333275 5.707407447681987
Ti 7.657640705661189 6.970546955285082 5.942520229151055
Ti 7.3718221325488384 2.774924342921548 6.237971887184772
Ti 4.932526652082335 2.34877364300171 6.134167482365679
Ti 3.7023884465945236 6.221836050732944 5.408756220511452
Ti 7.855495805013679 5.107488723271426 7.533890029649928
Ti 5.5416136883410045 6.5308237445169635 7.711880855042987
Ti 3.5329623831842345 4.337663414864255 7.255010213588954
Ti 5.792451476626275 3.755454142420822 8.180017071539563
