12
Energy = -71.63908499 eV
Ti 8.121200262337137 9.271421549951839 5.566738512476
Ti 6.287337871878535 9.725757523953089 6.848499640774227
Ti 7.658916086830327 7.704726463093556 7.6851920091508275
Ti 8.925175877921571 7.0244223455308905 5.290574645648949
Ti 6.359736347564494 7.393702325280769 5.380196667697501
Ti 4.883714371230737 7.540317067490264 7.656862991049694
Ti 6.218945880398204 5.4837215077733426 8.303559772697076
Ti 7.8606777568804675 5.144017528526821 6.592014280101224
Ti 3.8948361797175606 4.8497300187825605 7.879781997646263
Ti 4.878420468453726 5.536933749729314 5.742378981833198
Ti 7.1051802164122915 4.8616729767623275 4.410773287856319
Ti 5.800735296735027 3.4584535594850374 6.6383038294279855
