11
Energy = -65.33554098 eV
Ti 8.514586058770359 4.143202052505256 7.4098456956889285
Ti 8.08549180103461 6.94563974580168 7.5657587010640235
Ti 7.053619408788174 5.516953123978233 5.560858470754418
Ti 6.308706171825982 5.089202551680696 8.120463731411629
Ti 6.6217061551871765 3.0730539238360746 6.584796280834047
Ti 4.6690795477823075 4.928552694185262 6.075762786191773
Ti 7.353027457832136 8.100812459020053 5.32028570352022
Ti 7.053596599655573 9.567101562154372 7.330030067049783
Ti 5.485592787192333 7.3499175682350355 7.126341893924608
Ti 4.99528908878742 7.144012001389263 4.671083588791786
Ti 5.3593049231425764 9.641552317212863 5.734773080767571
