16
Energy = -98.36751442 eV
Ti 8.851493326613886 8.83703468866109 5.484926565663249
Ti 6.57070040651132 8.399736182862675 3.7690064566741897
Ti 9.595369806278331 6.584211029499374 6.118733034487036
Ti 7.141855671113544 6.892495747125591 5.617200256719672
Ti 6.484355259647612 9.428777773455012 6.172671834769748
Ti 8.034413816327154 7.949598733147243 7.937408463038321
Ti 7.265517158688095 4.163816868470909 5.776525387340124
Ti 8.367748363945836 5.290733380771125 7.9149772148554565
Ti 5.230509869493558 5.438965035956871 4.46820469003917
Ti 5.290575739445811 8.188183355581636 7.97091659598003
Ti 6.486352361342807 3.619450966751583 8.226592034453978
Ti 6.614297268484993 6.263953719184505 9.525927876390393
Ti 4.66907309121849 3.5316741028039558 6.261866527467873
Ti 4.535897809543213 7.880851341144118 5.329941389635241
Ti 5.500081359870989 5.725699089740193 7.2740711269601235
Ti 3.2171338235021922 5.6601931168720725 6.006405677553078
