19
Energy = -119.8907248 eV
Ti 6.03439116298638 4.48619968837245 3.6394445275812104
Ti 6.084581610205764 9.24595389077821 7.2720447402107835
Ti 8.400395081126737 8.375761578314757 8.281383868875393
Ti 6.558792567638744 6.510234153750011 7.47715677563911
Ti 4.8708700046211515 6.699043756915749 3.112137224937103
Ti 5.381675103921504 7.880462330432363 5.269443686006628
Ti 5.46061506532902 5.77995569539733 9.876568335596772
Ti 8.039573490461795 8.195555229244901 5.804073919174804
Ti 6.120986957823873 8.208824522502395 9.558233953324908
Ti 9.022236041803524 5.8893239071066 7.253964584426456
Ti 7.316915972951039 4.227385839279846 8.782231126620617
Ti 4.856625970328437 4.396570016434546 7.901008031416406
Ti 4.55198625570792 5.351615832077696 5.615352232198832
Ti 6.940513147590885 8.289446574634944 3.0842092627792295
Ti 7.611793144090836 6.106326186361923 4.61048958169771
Ti 6.9213235510437086 4.041360617420952 6.275430346612476
Ti 7.008367345854274 6.153327986214588 1.9161454663985265
Ti 8.039135937970736 6.3773691775088235 9.814561525106024
Ti 4.139336241945942 7.145397670654314 7.816235464799565
