10
Energy = -57.88622746 eV
Ti 7.352109052993493 7.960864594271642 10.685724887756544
Ti 5.649976191449048 9.226337806055618 9.040802234924193
Ti 7.065666043234052 8.90018248343831 6.474122790200446
Ti 8.026315930706527 9.625544235725148 8.748796656880568
Ti 9.131222192975036 8.604027968704331 4.908970863160341
Ti 9.890478327252014 9.219176644654048 6.96313852662706
Ti 6.695692758808178 7.076805927064057 8.39073897973305
Ti 8.794773912066887 6.884377747927344 6.9299676656427955
Ti 9.648589730744623 7.849935475934896 9.326252472074078
Ti 8.51974839952769 5.805007559090062 9.616229064883765
