17
Energy = -104.25677907 eV
Ti 8.329555648767812 8.74130758772742 6.805051344519943
Ti 6.685170932765658 10.684896414412279 6.873493385565168
Ti 5.7949113670554775 8.398033952614949 5.604130718436831
Ti 4.5006945919753205 10.310315991067956 6.996751250989324
Ti 8.09858169393138 7.1538204066539155 4.5714107266122
Ti 8.321894132079036 7.086112547385833 9.016160349818705
Ti 9.796890098212543 6.488810611763426 6.706677889186733
Ti 5.925356420622522 8.356660212037275 8.234314114344524
Ti 7.178811141878177 6.350799685225909 6.836543686190242
Ti 3.387842777363545 8.477346731236253 7.006514400903783
Ti 10.083676455887609 4.111720437546167 6.62313172692191
Ti 8.042901773073337 4.493434952341265 5.207256442387015
Ti 8.227291857794508 4.447415930678808 8.293338181929926
Ti 5.749858828270943 5.685533136889119 4.717956248070546
Ti 6.003469170158122 5.615521501333478 9.077757008412874
Ti 4.408601773590673 6.111356111175817 6.990329338186015
Ti 5.99179652800179 3.9824252913940708 6.861783691674973
