12
Energy = -71.91190881 eV
Ti 6.8696683002106065 6.857652840787272 3.489022363527382
Ti 9.140696140843225 5.599616227840841 4.240345348405648
Ti 7.064262926919804 4.581610315393684 4.890845628678091
Ti 5.34095361054859 8.49008455189602 6.017248395279151
Ti 7.821859607244181 7.216929684433339 5.604674497514079
Ti 5.161261506451904 6.056669523547798 5.3499635045026235
Ti 6.214200087766002 4.824241343259266 7.398248010968805
Ti 4.284280996459875 6.606383806747128 7.6401446676451
Ti 8.712046487186315 5.25466853869497 6.890158092365
Ti 4.874230202287778 8.67398127622832 8.79337995028455
Ti 6.853879187153059 7.385600788394548 7.875325064227541
Ti 5.662660946929142 6.452561102776613 9.810644476601695
