19
Energy = -119.67753293 eV
Ti 6.431850901653368 4.406754328158102 4.852158428728661
Ti 6.598937830049454 6.495221485030645 3.633181608930352
Ti 4.132198915923096 5.9789073595540225 4.509776524373258
Ti 4.509322025338556 3.3655249850685047 5.549079026118862
Ti 8.24842194097869 6.13917736475514 6.108690640506354
Ti 5.0132754275528235 8.437948591549354 4.194855726590349
Ti 6.442963018294191 3.967383378210036 7.482218449851734
Ti 5.460485437749052 6.189640413539249 8.842080470161118
Ti 8.135422663768477 5.053206905831993 8.871035114076893
Ti 10.065439324528137 6.295445958131516 7.729760761897885
Ti 7.9111289596043335 7.390884261978314 8.891101100354136
Ti 5.852396908551975 8.742692816100273 8.378165196387043
Ti 9.07394242582345 3.934463074821978 6.753457840996396
Ti 3.8493200211864993 7.776849193104414 6.67090985645265
Ti 4.077857433224477 5.123689519669908 7.012825272488315
Ti 5.766096773044665 9.729654765386787 6.090092594922851
Ti 6.1564595346649025 6.959649636659701 6.34572944470365
Ti 8.177159687527364 8.91567099042476 7.012077796541198
Ti 7.592575774814134 8.592489976302673 4.568059150195802
