16
Energy = -96.90403908 eV
Ti 10.147134004458092 7.523771436405813 7.665160209842568
Ti 7.094221417872623 9.638598733876206 6.233598845123674
Ti 9.689233893621383 9.736935117022862 6.1201926760265986
Ti 8.305782259593384 7.445185088471886 5.792180167402673
Ti 6.2677457436745625 4.532589820814742 7.734700759508679
Ti 8.704579428000315 5.389761136003307 7.910648635901917
Ti 7.234203757858274 5.109452253758339 5.515656232970426
Ti 8.176643044138418 11.526704658300993 7.134018992373185
Ti 6.062342837454083 7.00270255948247 4.22834266088638
Ti 4.6527249310794305 5.085998502943333 5.710340649496816
Ti 5.614546541885855 7.195878911289288 6.504429217468841
Ti 7.006811216874981 7.579059418070519 8.464659082716059
Ti 7.032464472063338 5.521100302855973 10.004583819567797
Ti 8.933355191070422 9.552297515594471 8.529232252897712
Ti 4.6518285108811375 6.0326079845378064 8.629397067278886
Ti 9.077378606437005 7.043552512025781 9.938748017501823
