18
Energy = -109.22664485 eV
Ti 10.428338445285494 7.655718601616463 5.394987315909642
Ti 9.542849768439613 9.968456050836226 6.708560780316744
Ti 9.71945549980397 9.362849419043721 8.959436612375793
Ti 9.288313798782886 7.236448353972551 7.492480729154311
Ti 7.837758658616122 6.021715049610895 5.283128404776768
Ti 8.092225337141624 8.563705291442773 5.260240858230022
Ti 7.096536429905771 6.2357277112128395 7.862516058509375
Ti 7.250705034717881 9.29216415787486 8.121733264576095
Ti 7.902092181848772 7.639691904865077 10.021543487568925
Ti 5.349437286124434 7.668283621266629 9.194972168181806
Ti 6.679406873879336 3.832343987644346 7.4573589634022115
Ti 6.185871369183728 5.30467390027152 10.039799810616508
Ti 6.221968881726974 10.13754610187294 5.690607534636828
Ti 6.188229736864176 7.672731065044348 3.8221577237208533
Ti 5.644930875765613 7.758630330627363 6.349393474362195
Ti 4.510797199883068 5.4216312328689185 8.011397780852842
Ti 5.372704038399297 5.239171614529615 5.575334032209546
Ti 4.629109793615536 2.959621449416122 6.806137067707064
