15
Energy = -92.68970877 eV
Ti 8.708400572060334 9.222157470034436 8.093109076717319
Ti 9.634005101095461 6.873804275000699 7.811507542697463
Ti 7.401982537226945 3.5289523935643827 7.32585517979337
Ti 7.440861134510672 10.291239094468105 6.404323718248137
Ti 7.636461453021157 7.558747420469773 9.65936673078352
Ti 7.808826506972256 5.223527687183196 8.867395964206857
Ti 8.810843305520313 8.139382492433432 5.455290016666263
Ti 7.119788871080237 7.27402807755052 7.098159490835084
Ti 5.938887046495124 8.919658441130712 5.191949622136555
Ti 5.83724950176318 9.168637946325575 8.260279867442284
Ti 8.52860981558307 5.393159502533177 5.920926733739045
Ti 5.324199409182785 6.519202460472721 8.92826992204662
Ti 6.469008699859857 6.511247747936071 4.662920553302098
Ti 4.556253334648505 7.221101841507923 6.486472761910591
Ti 5.626785494389148 4.963308346374142 6.638439016511379
