14
Energy = -85.41397553 eV
Ti 6.484042809817829 9.208562063232634 4.91527538949934
Ti 4.411625168557072 7.184702468745434 4.2177237591858905
Ti 6.697602500454615 6.705617586934654 4.230298138872771
Ti 7.753274379677105 7.20440655370089 6.59475036594247
Ti 5.001949619367812 8.366613385683607 6.517658122579602
Ti 7.113518418942929 9.370954076021983 7.673014731367961
Ti 7.641544172191825 4.835566638912182 5.406234040455956
Ti 8.236726951034937 7.199088554819944 9.049923161444177
Ti 5.268784117386375 4.496243473131633 4.345162413653161
Ti 8.742542845144692 4.7091573902332655 7.736369994671616
Ti 5.738009695076466 7.452319342520786 8.619610846982475
Ti 4.955353666058166 5.708214424510137 6.488712904522242
Ti 6.619889046684646 5.2214024063879325 8.531234586758208
Ti 6.335286571867017 3.337301597426533 6.674181506325748
