12
Energy = -71.98935731 eV
Ti 8.149177371022539 5.8897795399929835 4.510420135437801
Ti 8.26331242274278 4.8384682980482685 6.857665856702851
Ti 4.7375627601903325 8.17387321120981 6.100122908682089
Ti 7.607398716233986 7.441051720097728 6.697865026852953
Ti 6.628754067402508 8.106922455847718 4.346584568713338
Ti 6.512975987498652 9.795014641898147 6.2981758572572035
Ti 5.865309021510404 3.9691186620080647 7.448150296899084
Ti 4.548272351594928 6.241488544391664 7.845323501304015
Ti 7.157871444354222 3.5673439770391995 5.138686815004127
Ti 6.87742377034109 5.898670008589972 8.779071658647256
Ti 5.764223279307649 5.749778184447603 5.5314185975866
Ti 5.887718807800182 8.328490756428112 8.446514776912231
