19
Energy = -120.98217042 eV
Ti 9.18415201349019 5.87362233872104 5.370041501219635
Ti 8.752649495024485 6.02831171185033 8.159349565640115
Ti 8.936774016921877 8.167420412097695 6.805451044981841
Ti 7.87207786574087 3.9616725520454823 6.715023473905658
Ti 7.086712857396726 4.324610422923013 4.483885967338816
Ti 7.364553259384424 8.238900473029434 8.617842675982912
Ti 8.256198218765771 8.356859503627662 4.5880212619006855
Ti 6.47240429329412 4.737363731050274 8.499548141129242
Ti 6.394182695817859 6.563753349143762 10.05129536713433
Ti 7.318553360538134 6.390910550477344 3.390268025938309
Ti 6.633703383472075 6.588519170775825 6.1850873698282784
Ti 5.24627561569971 3.9018010289200307 6.254113714211592
Ti 6.454018708731574 9.339145224366666 6.455192111076831
Ti 4.23256560508266 5.234867540897129 9.00058779666526
Ti 5.805670245559717 8.314705022140554 4.0372364170900665
Ti 4.799285427536425 7.800819698468304 8.212536389075005
Ti 4.778687744414393 5.786267474353566 4.2507612333343925
Ti 3.728353175191015 5.895403347028013 6.709463417978256
Ti 4.183290401211598 7.995154831357087 5.714402908842405
