13
Energy = -77.34952466 eV
Ti 5.6528781342006935 8.78178336716294 6.702967689345265
Ti 5.652871179785917 3.7804321017997333 6.702968848414268
Ti 4.990171304792149 6.281110632154222 7.3413946967217045
Ti 7.902137619640631 4.877292180389811 6.145803412600548
Ti 7.902141096848146 7.684914016019949 6.14579645818577
Ti 3.9945549207515727 4.89384227807103 5.133015968562971
Ti 3.9945607160972196 7.668374349960891 5.133022922977495
Ti 7.068528622466845 4.971307069759934 8.545072435660535
Ti 7.068533258743234 7.590875945267489 8.545066640314888
Ti 6.030225784083531 6.281111791223225 4.746516165760064
Ti 6.102049076821175 8.892069218422556 4.224806681042236
Ti 6.1020455996137875 3.670149727747629 4.224799726627459
Ti 9.193651337698643 6.281086291702632 8.063117482537901
