18
Energy = -111.77183261 eV
Ti 7.6999217338719 6.3768445431111775 2.3887012017761577
Ti 6.2918457357399555 7.803434201940063 3.912413703910302
Ti 4.752135144812327 6.147525115778687 5.343290607366965
Ti 6.946963660021788 4.978787692061852 4.338479064617434
Ti 5.350829486253752 8.760263691612984 6.289789036323232
Ti 9.098391797826139 7.021225578057584 4.4443611769092985
Ti 7.93932641659443 9.196252336313732 5.550830853346628
Ti 7.149811520256209 6.826347177063099 6.250462304968179
Ti 5.07748929772398 6.715779200792023 8.02554293100141
Ti 8.94488273097597 4.94688188097556 6.14825801723723
Ti 4.928195308298931 8.896559272200362 9.290781882820818
Ti 6.390715130531001 4.339938176729602 6.896688462115982
Ti 5.988009537254973 4.8539526386194005 9.588133883547892
Ti 9.571366113573381 7.502302097837779 7.020136567630162
Ti 4.372340022431242 6.701103006078073 10.523470232896594
Ti 6.775051655396209 7.28198461835834 10.167345723316826
Ti 8.210709022075346 5.731913799781833 8.529378689406094
Ti 7.363243561464748 8.76290217638766 8.13950239066275
