16
Energy = -99.7666881 eV
Ti 7.064414288579712 5.229135990002153 3.510956777969606
Ti 5.625844812530933 7.167469259833556 3.175621130846206
Ti 4.337713044968684 5.182602805058162 4.333695401658883
Ti 7.88504992700431 7.422119545586024 4.474127758960136
Ti 6.349462943354169 3.482925209692434 4.972089721706652
Ti 4.993509838973922 8.392160178341339 4.854215367215726
Ti 8.522387472330342 5.003132116314963 5.674032857157535
Ti 4.431562931590807 3.9193450787806663 6.605552478215827
Ti 6.099970361631355 6.042360121842558 6.105210733502904
Ti 4.900867385817119 8.883266611041138 6.962795577388623
Ti 7.044584851197898 3.684163417996796 7.342005742694262
Ti 3.712952516754954 6.426777528732224 7.103185589692994
Ti 7.471187035424617 8.264768426286526 6.829471729643022
Ti 5.3718920282446625 5.046008547726366 8.711475713674556
Ti 7.85970200550005 5.919015965115166 8.208170234934911
Ti 5.832904742898954 7.438755384452427 8.641399371540333
