16
Energy = -97.40452585 eV
Ti 7.884046512101048 5.177204285315236 6.088657667259363
Ti 10.312241284691744 9.87399234250811 7.43362174338573
Ti 5.084143721262885 7.718393783557174 7.874397998190154
Ti 7.0153593873802516 7.577397488838115 6.190530153854403
Ti 9.252462738129093 6.9191903878615735 4.65078738884658
Ti 5.152828935598257 5.6737388747091195 5.741503278804546
Ti 7.090260639243397 6.366685043447064 3.877953738738349
Ti 7.711154770047557 6.605590333048039 8.853420675905543
Ti 6.535525215538784 8.586916972411544 10.047374700741365
Ti 9.55255842972099 7.4131179840871075 7.2226576453324505
Ti 5.157351696348463 6.385349506871399 10.014398753604132
Ti 8.825907237476308 9.404709384425008 5.52822142282714
Ti 3.609449799214009 5.662423815351055 8.059474201991254
Ti 5.995138531467906 5.033894156265311 7.979777840751228
Ti 7.73583566589136 9.48256012862933 7.884997877683779
Ti 9.215005374365704 8.644615671494394 9.68082577280215
