17
Energy = -103.65964549 eV
Ti 8.769096071667633 8.125664335133381 9.0685849449292
Ti 10.894182471971654 6.965102356339489 10.165563768685287
Ti 4.088643320633181 10.286886528596908 7.384725638122863
Ti 11.139771442082939 8.525696685657735 8.029635508443532
Ti 7.616410266453086 9.256778207591267 4.91532504437734
Ti 6.429206888797012 10.90212892347578 6.432656312758266
Ti 4.384031595589622 7.844371550255657 7.8416464531237455
Ti 6.444840066991626 6.930586290298785 9.335232579600733
Ti 9.473120925315303 7.514594244193715 6.3215230070276665
Ti 8.716436958935969 9.892320709874326 7.176532474290326
Ti 5.0499925215630315 8.932098991986745 5.521576718923688
Ti 10.294478750816555 4.567492183429556 9.823484760449174
Ti 6.241764496669336 9.494088357409405 8.72179316720359
Ti 6.943669037643425 7.621982196601604 6.848551708766082
Ti 8.512243836158335 6.016797742001096 10.82155527988589
Ti 8.405340833624814 5.541118169274969 8.233045076370026
Ti 11.020600110452964 6.006122123246331 7.78239715240881
