14
Energy = -84.91329186 eV
Ti 9.766174323556376 5.0144344556856435 6.411503722661046
Ti 9.432172825984377 6.333714341983569 8.324917702148417
Ti 7.943461112879393 4.810387352840588 4.738435067449649
Ti 8.28957407298665 7.084666931882579 5.837116642053069
Ti 7.1853376458485325 6.337598572119098 9.796709254355818
Ti 7.384527073564903 4.988434362192965 7.445502478651688
Ti 6.4591937590600175 7.039114262566788 3.7425460908795833
Ti 5.671332650936899 5.696312526481449 5.505974846611107
Ti 5.665813708930244 8.122885071496558 9.898886116867658
Ti 7.5929619589826105 8.33005044274293 8.171300055045643
Ti 5.325150677062452 6.771907197555263 7.694731635419952
Ti 6.469057943469498 8.742384482248259 5.7719525750815714
Ti 4.2856746089206 7.9520130623414635 5.39924023368498
Ti 5.023934914924707 9.299329607758033 7.8080812482521615
