13
Energy = -78.36413543 eV
Ti 6.366018709578305 6.794019160184644 6.407970961912633
Ti 5.568379070682865 6.3640181060032 3.797591023469171
Ti 7.506890485609815 7.289071639443615 3.942395023037071
Ti 7.158206614527635 8.531072122527128 8.40161454822636
Ti 5.356914806895777 4.765480618611273 7.7069316249692426
Ti 4.84019600820226 4.539045130573713 5.186551546097354
Ti 7.39821329388226 4.847394812809601 4.999983075981236
Ti 8.408798363616516 6.226251029743349 7.937692875632929
Ti 3.650395135203541 6.288322305860663 6.340379963895481
Ti 4.293036969017454 7.156865277094281 8.201178438230869
Ti 9.207192863215884 6.614819329270552 5.51425461823891
Ti 8.458184788189401 8.578796488214355 6.688861890943753
Ti 6.2875728913770255 6.504843979662494 9.374594409363993
