17
Energy = -106.99292448 eV
Ti 6.211811125428377 6.893417671882206 4.035907820524423
Ti 8.727612437704584 6.427700362343281 4.7952033952303035
Ti 5.268446314630499 8.993446275518354 5.195944919280254
Ti 7.738891911693384 8.923706339038002 4.655532588809371
Ti 6.63295396547722 5.053590463553866 6.124182939269672
Ti 4.3010240592810085 6.5746607795136205 5.7622771097770515
Ti 9.234275002170113 5.804701399927597 7.315700118792219
Ti 6.838037908097346 7.2503663082230245 6.710191847507086
Ti 9.354156182417377 8.29945017340776 6.487249087835981
Ti 7.080838111056961 9.695209913318175 7.316400607151411
Ti 4.819377511292536 6.042172107281554 8.29872116498308
Ti 8.006563837659455 3.323888975037836 7.3263948977713556
Ti 4.561477178827792 8.53977133587329 7.55064423828247
Ti 5.623886906979467 3.474141778962367 7.804992027395322
Ti 8.646206529540594 7.836024984866669 8.833610762045124
Ti 7.222549078268318 5.368615303158243 8.953217815542658
Ti 6.228839368217986 7.996083256836153 9.330776088544933
