11
Energy = -64.98027553 eV
Ti 6.558792924747151 5.722694073285353 4.10679371042034
Ti 5.5885027965978455 3.9053080065817753 5.588556558044442
Ti 8.372632626392912 7.4824567406886215 4.982319065462392
Ti 9.0231589934386 5.637119689890542 6.14242595575045
Ti 5.9609697556454995 8.162635697381099 5.283867479995155
Ti 4.3379602930493615 6.142776593184082 5.5867118325185485
Ti 7.679067489053961 8.262612188124798 7.454640821538996
Ti 5.0429241076228255 7.734147569894436 7.689266395965104
Ti 4.673302194576585 5.1407260381849476 7.999816981919986
Ti 6.80267138030463 6.641212027750476 9.20341619273843
Ti 6.719593733677677 5.927887722283985 6.7217613007529495
