16
Energy = -99.23362279 eV
Ti 5.425226495900348 8.026475892642344 10.072873024593191
Ti 7.618916577342843 7.710077575865284 10.28842047211646
Ti 4.51208372406774 7.499195058940889 7.308207158213031
Ti 5.785116663061246 8.778800640252484 5.318896759433814
Ti 6.919269671255187 4.83063512586732 3.8691747420467504
Ti 6.391977584620515 5.93676602267633 8.744402638082004
Ti 7.156327026777111 7.341037306877271 3.6842761418875813
Ti 4.569061336695636 6.413416112935834 4.59752735888461
Ti 6.623249226601409 6.343650641851053 6.073534035011099
Ti 5.178164341713072 3.8629074483770838 5.1769117879831
Ti 9.00767964399477 5.95440762575048 5.0262730061325875
Ti 4.4585374436793055 4.9611018445176045 7.112413349634069
Ti 7.5222760185143995 4.124714653221723 6.634677474874981
Ti 6.839270106644561 8.50238788731506 7.875552575860015
Ti 8.46355375572621 8.360660358913943 5.717975959439587
Ti 8.727327696088773 6.551803116678294 7.696920828490108
