13
Energy = -77.27913945 eV
Ti 6.091610456178951 4.169837878621636 8.277302713629801
Ti 8.132831114818051 4.06762539308084 6.619084391152895
Ti 7.130234138126424 6.219646871565602 7.548044563850076
Ti 5.725142765120358 3.9159786273108983 5.658658387010795
Ti 4.569034491662418 6.02613653625945 6.836047532294351
Ti 7.74132595710717 3.6152565874213627 4.17388195720793
Ti 6.070873935355566 8.118709878845596 6.1330763829109145
Ti 7.4009867991887495 6.072320492401369 4.941467488364057
Ti 5.885429936347831 4.726802953465115 3.0935350487508804
Ti 2.4490895964398045 6.30117768698876 5.2037354705910355
Ti 3.579844208646824 8.302762779151577 6.083291993089776
Ti 4.777396788676735 6.892719752440473 4.183662995826535
Ti 3.496208644577245 4.621859884713148 4.273378147273575
