11
Energy = -65.03455128 eV
Ti 8.838244891845813 8.096209553567247 7.098596037047196
Ti 8.629278564164158 6.402129425984492 4.977123699500469
Ti 7.963918953955975 5.868516726309886 7.423451479670334
Ti 7.2751864639378105 7.5216922991554185 9.028759621763133
Ti 6.568996723372996 6.341211874030709 3.5556943678574053
Ti 6.704333405071392 7.901492884423309 5.500929095713823
Ti 5.784510442281276 5.255052753066581 8.697842503526893
Ti 6.254721468919779 5.049703953594281 5.861119994047402
Ti 5.186939616636776 7.2811834320202165 7.400747252211275
Ti 4.4147895262681045 6.563345206357102 4.907338816534742
Ti 3.8744790790797965 5.214861027024768 7.043796267661074
