12
Energy = -70.35642868 eV
Ti 9.753571656833206 8.957497201605102 6.956198169352692
Ti 9.500916882390332 6.363836745362776 6.655998679288672
Ti 7.339406001832358 7.68268111904559 6.569484405577994
Ti 7.463720587503813 10.354868475080389 6.034652085123237
Ti 5.727139592711237 9.221490196596367 7.772429006499678
Ti 6.072038745726599 6.867036472930506 8.87687084097408
Ti 7.197853834855881 5.000451557519951 7.062476335766195
Ti 10.763526688728186 6.827188584411347 8.524300166444323
Ti 8.03031327435791 10.429182106662125 8.26214625511443
Ti 6.214176284448124 9.455143516862009 10.012123950015644
Ti 8.37621588981679 5.624969241369584 8.93651430872153
Ti 8.48612087636589 8.140655098124325 9.2618061126916
