13
Energy = -78.90637763 eV
Ti 6.658280147049941 9.587864238417367 5.751394364661197
Ti 9.288145692117844 9.580120284650388 6.411981582549982
Ti 5.703780280508013 7.241586043002199 5.929335850981519
Ti 9.955604050217236 8.760816449251509 8.767066379894413
Ti 8.147258444336705 7.639290105460625 5.133737587805737
Ti 5.026085212947675 8.826946078777475 7.880946607876706
Ti 9.50326322239256 6.236467729052002 9.009900601553198
Ti 7.573128994875902 7.890504212888047 7.756411242333942
Ti 5.354191205401854 6.327155998433394 8.31794527737897
Ti 6.179172639849271 8.006022718967484 10.050745947815749
Ti 10.054976856684936 7.149841616744667 6.794879568880513
Ti 7.76608033420088 5.5041604100433865 6.966901454362676
Ti 7.250542782591615 5.693965783686489 9.670752113746692
