14
Energy = -83.9894113 eV
Ti 6.438089098352015 6.29908497845017 9.87324907843
Ti 10.382348652937715 9.135676089557622 7.976979768300747
Ti 6.596704312228999 6.067059959322907 6.923387344255738
Ti 8.517075158102452 9.439448236622324 5.563098808234069
Ti 10.88677973451236 8.598727895385014 5.64484463764653
Ti 10.32991120983592 10.969303468732187 6.303879696256286
Ti 8.539428680387394 7.894121232792627 9.884779732963144
Ti 8.409777683158767 7.607464225924141 7.395644879725092
Ti 7.894264588398854 10.064417948151316 8.070141870074139
Ti 4.509059806541825 6.6791414112398355 8.047917617633543
Ti 5.866559651454282 4.354695966461539 8.522567495830902
Ti 6.068291508556428 8.53491751395151 9.066787486952151
Ti 5.960006403246606 8.707540028838633 6.6219792820216
Ti 8.413948387254074 5.242060689771289 8.724367039922946
