15
Energy = -91.77327463 eV
Ti 8.418138030347986 8.544730190702378 8.004245599624207
Ti 7.031247364023037 6.594189662964385 8.924843461761368
Ti 5.424520067275642 8.461062648925772 7.353287473612772
Ti 4.361881423399153 7.499421538160709 9.144372771671039
Ti 9.38711946451447 6.185556421060181 7.684896093395096
Ti 7.298401854033538 7.01607065909263 6.224685628536418
Ti 9.695962980920354 7.616273278890975 5.548836082446409
Ti 4.990575572024802 5.621443050288756 7.315208303018498
Ti 7.425028296436842 4.471380190057408 7.370310516353052
Ti 3.0561494086308754 7.282101942383465 6.868590734608057
Ti 8.963962663895627 5.121990803416732 5.345678918607347
Ti 4.961920347038889 7.298040302260984 4.977122626144701
Ti 7.672279501585686 6.5927955254818285 3.699552921578816
Ti 6.305627480914249 4.793083147330316 4.967080806727157
Ti 3.532190113380176 5.42686520740451 5.096292630336223
