15
Energy = -92.93291961 eV
Ti 6.839843295040373 7.610524309084136 9.17572914307307
Ti 5.963698417150217 5.051922732219613 9.167992737985147
Ti 8.39959451970298 5.66282757605373 8.207830805805168
Ti 6.211071686392933 6.4098141546082825 6.973450199868026
Ti 5.69071269110427 8.954548997338778 7.271840750691134
Ti 8.246647243850942 8.0834607961494 6.823707681662103
Ti 4.269538820130321 6.998060627318682 8.584666320764361
Ti 6.506808355088483 7.804107963003925 4.720549257121919
Ti 9.023615036135599 7.849622763919934 3.908089232198754
Ti 6.658387993411246 3.8307756373626196 6.806810481849423
Ti 3.9362923017727454 7.11899158797082 5.91140962004096
Ti 8.211602709591945 5.770943133814425 5.328688721424841
Ti 4.243246878548235 4.739586150536368 7.10398598766097
Ti 7.694689240441851 6.397503726884085 2.813015131817656
Ti 5.604250811637403 5.21730984373571 4.702233928036556
