12
Energy = -71.48785047 eV
Ti 8.562985225167209 8.39463357176408 7.995491733011746
Ti 6.221185062973121 8.984657874508505 7.372581974638491
Ti 9.661198401244247 6.606758468777113 6.64693102275343
Ti 7.106803234804082 6.405084160102823 7.137104874970947
Ti 7.92982809359245 8.099358109895048 5.355998766689746
Ti 5.850805817264692 7.427878808621361 9.263804355985977
Ti 5.32775639043826 8.205450686260335 5.188556901995688
Ti 8.393729860978068 5.367761790064331 5.038395845318488
Ti 5.684110217412044 5.069665884999597 8.866812512047282
Ti 5.980785146417442 5.855968413229746 4.706866987073263
Ti 4.522638872666764 6.499930339379563 6.996002770089777
Ti 5.8826741360477035 4.177489700299501 6.547161040610839
