10
Energy = -58.11603591 eV
Ti 8.207303987727316 7.405580047729597 5.91737321949995
Ti 7.841555530439221 9.56538618940956 7.517560401131484
Ti 7.527705887403701 5.0636162924692805 4.401873572757938
Ti 7.428575701239973 5.045624130637174 6.8294512064026796
Ti 6.973699778041013 7.166225872115944 8.212228746768487
Ti 5.955273510604755 8.839118796380246 6.416016526672517
Ti 5.85716407415733 6.73138345349297 4.875038263008732
Ti 5.527303908937963 4.657678293620789 8.352280735927588
Ti 5.275518486161464 4.300510932436554 5.689261568365188
Ti 4.6646446384324065 6.483621494852891 7.047661262610455
