18
Energy = -111.06174382 eV
Ti 7.5606104333013775 8.214781074653283 7.790199158798091
Ti 3.6357518804921134 6.222519004717668 7.14012604318457
Ti 5.7118984561421575 10.003808164890321 7.331071175271688
Ti 10.005282148924362 8.456058269483623 8.598214953249633
Ti 7.384565004313588 6.196395099159347 9.534658722304744
Ti 5.199665274149196 4.85957483681196 9.021227503022432
Ti 8.33712989886077 4.305558891671563 5.645296316013054
Ti 7.469764886661575 9.471989519282197 5.427369397526885
Ti 8.651082594441878 10.451794999577466 7.526323290957315
Ti 9.74602296567279 8.470294804704485 6.103828597517886
Ti 5.102985576920854 7.573096844044323 8.745269492741992
Ti 6.39692890158045 5.786500749889431 6.958063184569613
Ti 3.2177622670548485 8.638724816416898 7.27272223767316
Ti 9.193058286019646 5.982209987296992 7.5498005890175675
Ti 10.36268503868195 5.734455875268229 5.30672631442937
Ti 8.054134070053848 6.8035675872997095 5.008824901518226
Ti 7.585413947514222 3.9470735528420735 8.363777133952441
Ti 5.264479609026767 7.943920215576981 5.900421532071724
