10
Energy = -57.76131007 eV
Ti 5.792562903939978 6.733522225044702 6.849739119361597
Ti 6.364795826364197 8.71202830141767 8.186666444413136
Ti 5.87219168778748 5.390321174119753 8.90352503481172
Ti 5.050274524649828 8.22984422493485 5.049579035489002
Ti 6.539858160335672 6.099932429029368 4.4291926657730745
Ti 7.598929333579153 8.330201314360009 5.846866930493781
Ti 7.02143866125565 4.43485446963975 6.688177908921905
Ti 4.558050093244954 4.907238670760755 5.767578697138652
Ti 8.080982370987682 6.66507833613293 8.106208748740253
Ti 8.687944644806237 6.064007009366883 5.739493517519738
