13
Energy = -77.73518004 eV
Ti 8.449679003819089 8.707813968352674 5.826660537564202
Ti 8.50515706914837 6.424596765716786 5.09590040314469
Ti 6.540841860657998 10.120629982025202 6.349643249505704
Ti 5.622459557104115 8.436127420796343 7.829885186546074
Ti 6.142005015949515 7.601932350723078 5.433536400638381
Ti 10.10098705849059 7.446205643757347 7.313652058680836
Ti 8.199715320177477 8.967129239360553 8.524836385671069
Ti 7.730747606350409 6.286390419718243 7.489490337471084
Ti 10.549186330741728 8.897279996466091 9.733415769692034
Ti 5.200542137756081 6.117809645428597 7.39737183035875
Ti 9.209499674740293 6.742870326024536 9.640918491371073
Ti 6.646669810650959 7.097959476163353 9.7462205073885
Ti 8.569962103194976 8.69901693360067 11.126800903097445
