14
Energy = -85.34113518 eV
Ti 5.531391487092972 8.130924286040894 9.236258793807119
Ti 7.853212923879701 8.355048286654673 8.038877841981979
Ti 7.147635729218945 6.108772923717677 9.098001289569932
Ti 5.869702485968556 9.641812494201613 7.080747261848311
Ti 7.762901236071918 8.460648605735546 5.551421570372175
Ti 8.366136278354876 6.09708845291286 6.554716083209559
Ti 8.192827746672357 6.225991998272456 3.797401771583868
Ti 7.103022435157932 4.296771075089785 5.160861660402695
Ti 5.725618695115858 6.978674519594279 6.9418184397397535
Ti 4.610258555581721 5.696670145487819 8.835796176817768
Ti 5.908722123061993 6.952861345760003 4.471274830696528
Ti 6.374049218355728 4.34364501273884 7.541454691416944
Ti 5.962669064428112 4.896593923659592 3.134382896580102
Ti 4.617239445131476 4.839884354226115 5.582374116065674
