11
Energy = -64.72325036 eV
Ti 4.381067379459368 9.090704834791136 6.161689690402599
Ti 6.291463632132622 7.49836119176047 5.33406814308968
Ti 6.472168129412427 9.841563361434416 6.537690335449824
Ti 8.431686867170948 8.017223436550472 7.0591572972596355
Ti 3.8328369417446426 6.92869887374036 6.183173332725083
Ti 8.137228367173105 5.703987083952451 5.826314030337396
Ti 5.802286740157289 7.639470472777807 7.840631150920657
Ti 5.7277452791883405 5.09958087113624 6.724332481741748
Ti 7.636716556679726 5.860386710831628 8.419081232078526
Ti 8.26240140419224 3.707416193100907 7.309618674892914
Ti 9.946203818454988 5.521492146477481 7.526983090632877
