12
Energy = -70.90432981 eV
Ti 10.410111989754744 8.074101464019094 8.312038352230404
Ti 8.600015721595053 9.752324568510252 11.577584306867939
Ti 7.057510787953354 10.551591221219256 7.002941710936002
Ti 8.23467590967119 7.831481864051328 9.917920012044604
Ti 8.894371205429994 10.444448831007241 8.893725372790575
Ti 10.47095113013702 7.4864961486504615 11.037628748628295
Ti 9.517708586322835 9.684104652784082 6.323019473507437
Ti 6.469910044687667 9.636468641688683 9.249708710471385
Ti 11.2378587304893 10.505804507121633 7.684983073812981
Ti 7.821950815062276 8.238701778104055 7.51231620112941
Ti 10.97779295385998 9.813668873308131 10.325906826439708
Ti 10.460581879635921 8.908979775612135 12.909803585199132
