14
Energy = -87.16056141 eV
Ti 5.9839450050574765 6.23075382208275 3.5616673798885534
Ti 8.540204104884637 6.343116685453065 5.104212259946932
Ti 3.4641460127644774 6.347698473458072 5.19256895280486
Ti 7.234243585116925 8.331376701803604 4.7194821306212145
Ti 4.760193905053917 8.32755707164998 4.749134218279049
Ti 7.316972303115851 4.016295083910926 4.910385900962246
Ti 4.6804212993120045 4.016520087941845 4.956423219619189
Ti 6.018632226615985 6.05783040773474 6.02946656819223
Ti 7.642477283442426 7.609503731124994 7.28379617789736
Ti 4.447768473283602 7.619238464689327 7.331808322637194
Ti 8.185422445478192 5.036614440767324 7.292768287390027
Ti 3.891440458974927 5.044961605433391 7.365982246226034
Ti 6.031553479997613 3.521839793747248 7.1366683838721245
Ti 6.0579317720609644 5.75204598536185 8.620988306821987
