15
Energy = -91.74084846 eV
Ti 7.588388686338213 8.602454137202006 8.34118050906023
Ti 8.329483541910607 6.083181064721001 7.619832987057721
Ti 6.956554693879243 6.2551255746753 9.617815759273956
Ti 6.192616634785999 9.462091932783723 6.317915281319072
Ti 5.400778108997048 7.349407207312894 7.760283768499462
Ti 8.437499010364139 8.418299561341849 5.910153372377137
Ti 7.973973805585424 3.883379074531785 8.835335459125075
Ti 7.8681409658753765 3.8208862586177306 6.271800183731233
Ti 5.783837628197712 4.709576419318777 7.691324872797361
Ti 6.737440828163549 8.538988380487764 3.953120060238568
Ti 4.491538222509862 8.051112718123207 5.114680639259267
Ti 6.773153426853279 6.413141234817786 5.540080038537178
Ti 4.076673769640083 5.763538293558419 5.857688419977597
Ti 5.6361692258289 3.969157092919052 5.108815649629782
Ti 5.250739436998749 6.176649035517014 3.556960985044807
