12
Energy = -70.99288586 eV
Ti 6.252524903766516 6.056138988582349 3.2222221358024465
Ti 4.008946738269754 4.749598964812367 4.135184599469442
Ti 6.518397207433464 8.360630449994998 4.457561018975198
Ti 4.197789066464431 7.426651745429237 3.9440661259340626
Ti 6.14151338736918 3.4561287947611232 4.404188009410043
Ti 3.9415281922638674 2.155561239379174 5.106214646351276
Ti 5.867200920810443 1.6253581290450265 6.331872048109599
Ti 4.6588922643401185 8.581804224213254 6.149741328374334
Ti 5.720313220204704 6.0924557599812825 5.765975664888075
Ti 3.154366837979978 6.36759360721565 6.048009745434712
Ti 7.429111283826466 3.8670446152029028 6.41079988014875
Ti 4.821590432968163 3.9732079370795685 6.736339252799005
