15
Energy = -91.85946403 eV
Ti 6.175660070172549 4.4357500948357025 6.107863857934358
Ti 7.413078055882827 7.569919989998217 3.262019691507387
Ti 3.9035895971857784 5.699678290728974 5.534685170784261
Ti 6.491942197110628 4.763058252775174 8.74980968547924
Ti 8.94768400530821 7.739691225845924 5.351691445907931
Ti 7.238639593139482 9.553251053148992 4.933266494183373
Ti 7.051977092760581 7.149758518919264 9.603992943670498
Ti 4.735567508798119 6.028559517482977 9.934722522138161
Ti 4.090790973498092 4.706785338690902 7.742589339777283
Ti 5.721217473780804 5.36566627205007 3.6870931268888056
Ti 8.194073654628363 6.124774091816923 7.389285465346424
Ti 5.38847002693594 7.097214361123241 7.726389813129316
Ti 8.120452874037722 5.405074836918396 4.669962425288186
Ti 6.257155677329287 7.1698971760569385 5.449386943403306
Ti 7.768106082740052 8.689325862916732 7.355645957869761
