18
Energy = -112.98438252 eV
Ti 9.249493804171108 5.884949134911064 7.008083306943258
Ti 7.783975534338906 5.344655558951259 8.777548081918503
Ti 7.127082733496231 4.022714124461355 6.245167772411366
Ti 8.554329929422172 5.397942842589325 4.711522823799619
Ti 8.949037794063653 7.9476601378366265 5.487885312498619
Ti 8.032170348868362 8.05310618318888 8.246928856122496
Ti 5.712387918385258 6.7355982997647805 9.405859629586432
Ti 5.64401645662375 4.297149027174119 8.245547636474852
Ti 6.596895625188191 6.594454451402629 6.606708716687076
Ti 6.017263187375163 5.467013594259606 3.960897341242775
Ti 6.843970936210748 9.305638011105252 6.080116282592399
Ti 5.3766968012402705 8.755649931701125 7.8447442286291444
Ti 3.492797904713499 4.965317020377903 8.688871643814375
Ti 8.253846056747575 6.77939411185788 2.89226740150365
Ti 3.7837339170028916 6.931675179179916 7.529033416903139
Ti 4.324919926734302 4.835187264842345 6.007932180493889
Ti 6.691624929230941 8.03437244458865 4.000893049772707
Ti 4.566069377017391 7.6478358626376925 5.260305499436664
