14
Energy = -84.50745338 eV
Ti 8.585872852854491 11.253865611932644 5.916863078789069
Ti 9.585972285473234 9.700592758930727 9.822710477122866
Ti 9.766005383406828 8.988973455377558 5.699185721009522
Ti 5.724408275716056 6.869377420989045 10.432119115855988
Ti 8.225307538155668 11.662505604059046 8.424167318627894
Ti 8.078747483270504 9.257143110086169 7.54968510460283
Ti 6.52740006163121 7.096734227153049 8.278726990113245
Ti 9.060773163663361 6.823615889697527 7.884063955849739
Ti 7.9052128969392585 5.43083974246248 9.800225874773453
Ti 10.457891163677779 10.7733044512611 7.514465477968644
Ti 6.707879388352937 9.597717860956237 9.643039534609818
Ti 11.05339444434054 8.427484212997822 7.935506941065951
Ti 10.396885341073165 6.955693566718124 10.02182888935455
Ti 8.087527981572363 7.757951837378302 10.583841212258031
