14
Energy = -82.98229764 eV
Ti 7.470997539213372 7.936590202923648 3.215788861168913
Ti 7.073954719187952 7.662218392596857 5.838207739460648
Ti 5.28354108826601 6.630333104083279 4.0428561805537795
Ti 4.54724508411661 7.609974353530652 6.494022359911655
Ti 7.636543433924171 5.47909020294146 4.2958871135413315
Ti 6.557914368881693 9.47992368571337 7.785012408177799
Ti 3.1543096136709634 5.494261561266515 5.7535112951855965
Ti 8.478075704131646 8.530909962725527 7.990542703267136
Ti 3.930847076047742 5.557398330042451 7.987929185812685
Ti 6.387018335462743 6.811676399346468 8.327745884541457
Ti 5.791665043599843 5.134795322576624 6.1458976454480965
Ti 7.704329275333044 3.2487931621212045 6.234855961050477
Ti 8.419331208601163 5.695883705098507 6.911110587246102
Ti 6.9136787049934485 4.081362491223226 8.303962303828333
