12
Energy = -70.76676146 eV
Ti 8.824423960171059 8.09774728791386 8.385035862983552
Ti 7.706411398454076 7.0236780356535755 10.087002523286026
Ti 7.970525296207844 5.64498159975212 7.839004259639308
Ti 6.253051399000163 7.5994316235913075 7.969898775284504
Ti 6.008548285348286 5.540683672137703 9.624624746410511
Ti 5.294856182636199 5.192337307234021 7.252937569004045
Ti 7.180138100923428 5.344399477454399 5.43125438254028
Ti 8.095697910774705 7.734943404780015 6.017790573078585
Ti 5.3172067405044 7.412365415063875 5.465626304787681
Ti 6.8121672895921765 6.847258678974016 3.4752541191689548
Ti 4.9709072494216855 5.177482366988998 4.28425201953336
Ti 4.4102247823043035 7.232001843954422 3.0201875327408327
