18
Energy = -112.91335135 eV
Ti 7.449858194119383 9.126861516546448 5.5323693246213805
Ti 7.100897953632913 7.5492932553557734 7.683971159421709
Ti 6.09671662749983 3.9446665620855925 5.574385240480705
Ti 6.621743988103439 8.723007876239825 9.898420207958242
Ti 4.34060378235963 5.744931821355677 6.179048632519847
Ti 9.628531623549224 7.914304087061098 6.899650092334336
Ti 9.023817692970347 7.615501130923687 9.40167635217148
Ti 5.67463911933392 9.735219662458569 7.634628235758748
Ti 5.892812189133459 4.84173275712558 8.068448406661885
Ti 4.88501338072846 8.227096642658594 5.795889668062686
Ti 5.722628070273477 6.097630266682376 3.8562668524642216
Ti 8.297258118256057 4.608378178835007 4.480472143889051
Ti 6.874846382620929 6.121244404353799 9.864978444112586
Ti 8.684613474599114 5.315105248385975 7.434533662835853
Ti 9.390289128848993 6.475602394996984 4.93702643829747
Ti 6.906303664780044 6.374046013184242 5.738266157112465
Ti 8.266766263345746 9.84048130769274 8.10296253114625
Ti 4.652682158076855 7.2645189209552905 8.436352267940045
