11
Energy = -64.48926895 eV
Ti 4.880361115064305 5.955574126705109 7.542284082070143
Ti 4.882506883559676 5.948838720234871 4.652424515118379
Ti 3.7317095194388963 7.806311691165712 6.092362883044675
Ti 6.652559779462447 4.542459783724718 6.1019892132948295
Ti 6.2695249487746825 7.7395998342531565 6.094047371330574
Ti 2.6026945549355363 5.680112318737994 6.096241491265015
Ti 4.201164216085967 3.879554418185263 6.101619939253794
Ti 7.700573724060599 6.293946143995453 7.717084442231398
Ti 7.703170612830978 6.286127758191796 4.480433077169355
Ti 9.37266862977678 5.253331468421842 6.102682483300065
Ti 9.080713763452252 7.691791324757413 6.09647824936401
