16
Energy = -97.71339393 eV
Ti 8.312882839077815 3.5844958213992695 7.436903765041982
Ti 9.89420673252858 6.016868061526269 6.626406543158062
Ti 8.542217683905067 5.689802521212405 8.773996166544489
Ti 7.4062507576135985 5.771339373544048 6.259528736829184
Ti 8.60042138993804 7.634912613288112 4.927706873331048
Ti 8.66876612643932 8.136756720085007 7.6603339656605325
Ti 6.496370750059123 3.3072196700389136 5.956410960544254
Ti 6.774871812591062 7.24863116730057 9.469425959728284
Ti 6.577687671846496 9.612722176234856 8.268448957123413
Ti 6.033134047340263 4.711775468001167 8.225960476847394
Ti 7.188382312765835 9.406230841316392 5.804008144226303
Ti 5.717131764116683 7.494536015827225 4.509037808708988
Ti 4.744370626928275 5.303809254605113 5.860922508086809
Ti 5.67751430700141 7.51541389547263 7.1632776317619555
Ti 4.672064644794222 9.551286885939312 5.864128656662666
Ti 3.376310592244081 7.617153988410957 5.899463839867994
