13
Energy = -78.0463085 eV
Ti 8.95804588863517 6.806036409234196 8.094086399578254
Ti 9.188262077560141 7.360672449006415 5.199723322646981
Ti 8.185953840153424 5.3055791124553995 6.098247522501452
Ti 7.34406035646586 8.18441817096604 7.2069493177866635
Ti 6.93717624408996 5.150671108374154 8.13420782719242
Ti 6.456376508691732 7.0218734102661715 9.648317909848762
Ti 5.796780431438346 4.277034931786454 5.959949696411576
Ti 4.507637263521752 5.450920551523871 8.284128812767607
Ti 4.753099581510171 7.887008311233408 8.169002453270789
Ti 7.193429489719825 5.782274013278622 3.905835889111577
Ti 5.369488934378102 9.029113881346632 6.058202802564792
Ti 7.04027487946252 8.169244231066317 4.441672307247409
Ti 5.242579013253398 6.558439987374754 5.794324045094028
