11
Energy = -64.33640452 eV
Ti 7.177071953356283 9.098139422992984 6.624227134746645
Ti 4.87059273463027 7.675795605076325 6.717763657100374
Ti 9.197626037825321 7.408208491508136 6.051565172781508
Ti 6.379351828459459 8.654897479661033 8.759226204777908
Ti 6.8801464287657055 7.388855453588191 4.7830924781803565
Ti 5.174282026266264 6.872208961390555 9.267244345400673
Ti 5.438784268090484 5.388523426592859 5.371918845363063
Ti 9.566377885335791 5.100139417543249 6.870719180371061
Ti 7.048550524603842 6.402557468707428 7.310484213179155
Ti 8.191001395441736 5.202619704399327 5.0494501906317835
Ti 4.472366916913045 5.2043419073854364 7.605482747682731
