17
Energy = -106.33898067 eV
Ti 6.344891939824864 7.883499407512303 10.631534879520457
Ti 8.588578466520957 6.414583283263119 9.518579954899124
Ti 8.493154577716401 10.639816923249281 8.506670806257343
Ti 6.140666490321224 9.609263870063087 8.424071569893986
Ti 10.962673921569982 7.289551919718478 7.905772272960173
Ti 7.9589132008309775 9.25002844601069 10.521264210749035
Ti 5.800807385341461 6.276409766823662 8.851635981669864
Ti 4.259652477248878 8.168101652110598 8.879415797936149
Ti 10.347038505481027 9.695097859369595 7.165533725548888
Ti 7.731099469664227 9.531641149076222 6.063916117347296
Ti 7.024533039208772 5.408666513679108 7.109015691082514
Ti 10.244569662327974 8.94574986866663 9.621132743445001
Ti 9.450842201768696 5.624682743384493 6.729256668720082
Ti 9.991734868494481 7.875597886092423 5.560099205992046
Ti 8.25954685349169 7.888279643708868 7.8335032448140645
Ti 7.756671811096077 6.901388856097796 5.186397797497685
Ti 5.688701632257603 7.6417167143386715 6.536275834831959
