19
Energy = -119.92280702 eV
Ti 9.009710975007001 5.540673919401743 5.88547905525474
Ti 7.157569539477194 6.7239856786604 7.5678990060127
Ti 9.198127265614163 8.075819385734208 6.176908413063077
Ti 7.341309090095711 6.762102302622835 4.324242178801217
Ti 8.136404089411403 4.139676352414547 7.698033666971192
Ti 5.630436719902247 4.437916210104496 8.268927440790502
Ti 7.711802298601603 9.303874100965608 4.282677928440267
Ti 4.70099772936892 6.4044681447534835 4.650292246159186
Ti 5.4522701814582515 8.493598306682204 3.4984896337056686
Ti 6.37130434314421 4.735269995661231 5.768161677908369
Ti 9.56741144510122 6.310914618483659 8.46418454725622
Ti 5.643259585793609 8.496592722011556 5.9912947094644995
Ti 7.45820506793762 5.184854980994452 9.910690415360909
Ti 4.336634791037278 6.219111585673266 7.112386253539591
Ti 5.268832693671052 6.737169689963111 9.540118173579582
Ti 7.613765780243325 10.119526017448088 6.715738557358946
Ti 6.209799217689818 9.101846410434469 8.697059172375994
Ti 8.85406890662118 8.949026903310541 8.599844441992667
Ti 7.6600616345949515 7.583540754652262 10.163188571431332
