14
Energy = -85.06639224 eV
Ti 3.3690162737449945 8.55184547747998 6.804825690624776
Ti 5.569971853812894 5.724565191852603 3.9484679553818696
Ti 4.280771077454473 6.543240647216915 7.992234334985947
Ti 7.5423401247557305 4.163078581593426 4.705228623516401
Ti 5.646509117721074 7.763701720037279 5.935359754219949
Ti 3.5442240308290245 6.302532150546858 5.511628543501238
Ti 7.785148245391991 6.610763039134839 5.503165754318011
Ti 8.09905291472415 4.48661853377046 7.222354825338579
Ti 9.445498420236738 6.689945473319517 7.509422174048305
Ti 9.840183528770433 5.07845883499648 5.520217802245083
Ti 5.601634694414891 4.861140069731303 6.397010405484692
Ti 7.899504774669319 8.791595988461964 7.331275492381077
Ti 5.465792894410681 8.833667957321907 8.299531915670253
Ti 6.9103520490633175 6.598846334536596 8.319276728283388
