13
Energy = -79.05701494 eV
Ti 6.989681048599003 8.683748694165928 5.44003436871869
Ti 9.411897346985985 7.479985716677771 6.017123752336484
Ti 6.794935427837103 6.243810996061526 6.1534778171613835
Ti 8.723828625016699 5.232789838108071 7.323660320034981
Ti 8.824493091767739 10.071931653672364 6.426526940719429
Ti 5.18900217192226 7.668719394354418 7.5362727138190095
Ti 7.780595423616682 7.973099800547817 7.847314453256944
Ti 6.805130147942851 6.004013174226934 9.03937362723012
Ti 9.987619016661693 9.201587812696834 8.476516037585094
Ti 9.812155473563283 6.620663555149791 8.931096718266609
Ti 7.613482087204279 10.334287250074524 8.854447451982937
Ti 5.9196455636930025 8.420133354602887 9.806551940897666
Ti 8.362794205240972 8.28048838971256 10.362863488042171
