12
Energy = -70.69102457 eV
Ti 8.73534871444261 12.23830255710621 7.3736486780285855
Ti 7.335151355436088 7.242084081680665 8.355664498255962
Ti 7.823761394844846 11.12941800495563 9.799667367979374
Ti 7.9296916710127405 9.77673050462883 7.543356676410922
Ti 10.271786451733323 11.260189691438148 8.709841060064258
Ti 9.503000310713654 9.000357127048575 9.430435884873262
Ti 7.007467450458856 8.669356022070838 10.222406260637044
Ti 11.616104671094458 7.834185309165935 8.894485288861764
Ti 8.788724609571647 9.188093569137344 11.839246712422966
Ti 9.62083701482082 7.129717972572996 7.547749051169459
Ti 10.51985428223142 9.375992821840432 6.900905317753311
Ti 8.994862872536103 6.749825969851333 10.286834405326918
