13
Energy = -78.58057223 eV
Ti 7.676079193507374 8.962094506157007 7.336793803847529
Ti 5.627847802893261 7.379486058603966 7.844960658394352
Ti 5.7086103819823455 8.978988249645333 5.796864972250469
Ti 8.23365214631805 6.7304996046529615 8.534707484525585
Ti 3.5387329421654883 7.357124229125106 6.060383259060126
Ti 9.805623473588323 7.483093216125749 6.739148851194884
Ti 9.236690735107905 5.038123318889278 6.793022092337851
Ti 7.522336629663708 6.710816083987799 5.84584897452187
Ti 6.923130709132097 4.795516624951975 7.872471786493869
Ti 5.397964665040518 6.671101789311238 4.593108829515991
Ti 4.665780298625035 5.163290984265954 6.984203835287908
Ti 3.7416790970772174 4.947242776519782 4.783100696809009
Ti 6.421871924897842 4.282622557763289 5.315384755759315
