19
Energy = -119.77343002 eV
Ti 9.938373291953145 9.212399949686445 6.920760843171444
Ti 8.689459245672053 10.187786358034174 5.385974508925501
Ti 8.577329564879129 6.916238133247066 7.989172035495982
Ti 8.570539375519594 7.483046888147926 5.398208716343197
Ti 8.584531420416598 4.812900765004124 6.307449057858088
Ti 7.293117867596543 8.900547744738278 7.308529583512617
Ti 7.569155382105998 5.028696354274481 8.806563981110854
Ti 5.793684634495952 7.177696383821909 8.923320977762524
Ti 6.392733034589546 8.640694251739166 4.77751719329531
Ti 6.794548722966359 3.223865176086047 7.403967767162404
Ti 6.184018155014955 6.100889532025305 6.514507045288697
Ti 5.037840132035035 4.7372682019487815 8.81648476096428
Ti 4.756667338534184 8.622627690944247 6.875052856161955
Ti 4.318083332696298 7.374900069782791 4.707583708976164
Ti 6.5808744085053 6.112679787517016 3.837089060924039
Ti 6.339717860003977 3.7323559573154963 4.995829300944015
Ti 4.2960226744098335 3.7780659667849927 6.652308337417561
Ti 3.5997418474289704 6.362602825665282 7.201214203535501
Ti 4.188918449390271 5.100094701450226 4.683822799363331
