14
Energy = -85.33345813 eV
Ti 5.369185260299598 6.919774239957701 8.948211019198133
Ti 6.299551803966774 9.141218244573396 9.089823729485802
Ti 9.007215015587997 5.370003081355793 7.297653074374031
Ti 6.828746701525554 4.894334997667007 8.774306656943851
Ti 7.29396899722973 7.4102916030371295 7.103217406281945
Ti 8.97668320768228 7.371435990613894 5.166845509368603
Ti 7.239945557109139 3.5853391868658213 6.744110067141331
Ti 7.681605873326976 5.233194719985796 4.986357625665433
Ti 5.0968628667594205 8.548100755571278 6.7065650863938115
Ti 7.985406405015515 6.984954397641068 9.53419445759849
Ti 7.352662292992673 10.13109638956669 7.364950815709377
Ti 5.397667250215104 5.633798164331613 6.513124296250137
Ti 7.182477144404309 9.48954911799231 5.211337973109297
Ti 6.3641928950052336 7.315632957152154 4.558034706735742
