10
Energy = -58.78973839 eV
Ti 3.0651347278886867 4.942473446192873 6.785260849661555
Ti 5.878196168944344 4.480182969713451 7.236454019350839
Ti 8.691257610000001 4.942473446192873 6.785260849661555
Ti 7.107096588332019 6.837056424275423 6.864595251717815
Ti 4.649295749556665 6.837056424275423 6.864595251717815
Ti 3.0651347278886867 6.8139188916958116 4.971131488227126
Ti 4.649295749556665 4.919335913613263 4.891797086170873
Ti 7.107096588332019 4.919335913613263 4.891797086170873
Ti 8.691257610000001 6.8139188916958116 4.971131488227126
Ti 5.878196168944344 7.276209368175233 4.5199383185378545
