17
Energy = -106.41229747 eV
Ti 9.440309957250681 6.5349135184199865 6.910614870539813
Ti 8.291807313513234 4.73535679106536 5.6173918567261865
Ti 8.093588195951902 7.223360170794147 4.603600604760703
Ti 8.425045492783303 8.966281342967678 6.699490799110684
Ti 8.23010353226045 7.5997837258169945 9.031463487759638
Ti 7.577946617983227 4.880882870987876 8.418388614877296
Ti 6.26076600994609 4.4661208856584205 3.797933881907248
Ti 6.891238204863705 6.838464503487524 7.055116534072502
Ti 6.136152274876709 3.67697883340646 6.332045115136221
Ti 6.0497921549071005 8.915267012333828 5.445126582118103
Ti 5.71313629160421 6.204977644076731 5.2910496524937365
Ti 6.225892201347207 9.177231135800044 8.103661209550935
Ti 5.684675326401438 6.894807132096362 9.32710404668911
Ti 4.5808981665247055 7.0421083680768195 3.5364313101250433
Ti 4.756025212133109 5.059536547962754 7.900911893426116
Ti 3.8864365916711976 4.690067636621126 5.347956042701131
Ti 4.235911298934935 7.573586723381232 7.061438340959139
