13
Energy = -77.76276238 eV
Ti 11.805875063087926 5.723813065554216 9.663338880935237
Ti 8.828859218667738 8.904747202729476 8.136209227912662
Ti 10.738685723850066 9.758192320074677 10.051030344488812
Ti 6.219319824246126 8.85970724776814 7.2385573999767185
Ti 6.702438158728919 7.599014700603695 9.280805900682397
Ti 10.474779381562822 10.795176393418398 7.653031921045791
Ti 9.49758544765667 6.988851569588146 9.601051248575498
Ti 8.812877462057811 11.268207585676905 9.578009153702013
Ti 8.354489170851881 8.948352813947055 10.933224951441348
Ti 7.745289395579379 11.092507753926355 7.22810065018847
Ti 6.573085900755816 10.13476694084489 9.359360038092111
Ti 11.501614865742233 7.550947198536738 11.093279985233723
Ti 11.634275069189083 8.029968173804603 8.492497653107163
