17
Energy = -105.61572088 eV
Ti 5.8113477699091085 9.049394179867129 8.627930253428765
Ti 3.964965748317233 6.90837075789001 9.080863911486642
Ti 6.52906820891706 6.772717115166556 9.524636775579612
Ti 8.094778305261439 8.051282412748833 7.735533873735897
Ti 6.478502352157347 9.592302115409092 6.343206051479551
Ti 3.493690275442292 5.078924174748775 6.898891980596455
Ti 5.324169352351744 4.724795533901581 8.635617325413062
Ti 5.381341848981108 6.933655029934937 7.089782143810081
Ti 8.523805092039307 8.914892028341395 5.263947664306958
Ti 7.791302031475186 5.309633654757137 7.606843895511235
Ti 6.858721626149809 6.848542661561969 5.267473457423078
Ti 4.196747699336328 5.67258898216611 4.672582268964116
Ti 9.471416942362948 6.638530841907767 5.903650999439161
Ti 5.8277203841802905 4.139808240367382 6.057468245183085
Ti 8.509843724683787 6.651407883949992 3.476152385222034
Ti 8.286289336383113 4.572572859489944 5.032388747335106
Ti 6.233859018525208 4.9181512442638935 3.5605997375573843
