18
Energy = -114.21863882 eV
Ti 9.711602444406578 11.117705778921922 7.163171338713621
Ti 8.860140825598302 6.2765119517428865 9.549069490345243
Ti 9.934392698055284 6.849590506418858 7.4236515131290925
Ti 8.894928733819105 9.11125501337548 8.859170453182651
Ti 6.053844411853281 9.37473489207359 8.824786655303996
Ti 9.304272764982425 11.813557488262116 9.799357860271082
Ti 9.140522052752134 8.697858346046223 6.03828026385331
Ti 11.326075612766209 9.017050192955397 7.331013355241914
Ti 7.323844883668203 10.313514635280185 10.93911644474037
Ti 6.998827136689423 7.696906655507617 10.375735178076587
Ti 11.723427005975129 8.911248699493838 11.669528022747631
Ti 7.330540601178315 11.55654165441404 8.522896416362334
Ti 11.413901929364917 10.490322173908531 9.339965041881678
Ti 7.219491964744316 9.906378273213535 6.670784170448076
Ti 7.272124461623169 7.272482803278686 7.642098067448503
Ti 9.860654465427853 10.196815499886117 11.47918522906694
Ti 11.18897812125994 7.564248559958366 9.660092486456888
Ti 9.386889505549483 7.565157736039485 11.62539829453009
