18
Energy = -111.56761003 eV
Ti 6.694176526757909 9.643777993521033 5.928468925158684
Ti 10.046220281070623 5.992020737483167 6.189616189690235
Ti 8.789556553703353 10.80540500048256 7.257267989959366
Ti 7.438507050578648 6.891392814722389 5.249192917522173
Ti 9.099434356099621 8.591296076227858 5.913077350982952
Ti 8.765987597072469 3.8750086589134787 8.411929212768534
Ti 6.721384046126384 5.490939863151931 8.997537961974563
Ti 4.773824219354271 7.768646007031185 5.68915615659751
Ti 8.895059460756348 6.581859996023518 8.03067838855206
Ti 10.653203333892442 8.69278297461624 7.707638674112957
Ti 8.425001506627844 9.028697837465382 8.879774414742375
Ti 4.169373042419199 6.329576858516619 8.03459617523901
Ti 5.462842466299608 5.388683489206443 6.220189935155617
Ti 5.887109318949799 3.5660776967643857 8.125222498350098
Ti 7.711055115808497 4.497465120879274 6.40194156384169
Ti 6.405728479764459 7.695489296290906 7.745160783566356
Ti 6.334952292204185 10.52807415213633 8.432746289842823
Ti 4.539484146477254 9.480684738258244 7.503239529940191
