19
Energy = -119.74410595 eV
Ti 7.060746445395356 8.39601561080779 8.864015872455436
Ti 4.540705244590056 8.103862203122793 8.246454501609902
Ti 5.991868774240609 6.3115695839942685 9.69526597070121
Ti 8.535134113535683 6.156769140194497 8.814230159808892
Ti 6.105720858549191 9.091660517596996 6.510932127809154
Ti 4.162476035290819 5.672870061917685 8.020214378807564
Ti 8.603909493165299 8.469577214377441 7.044657164103869
Ti 6.435507656706328 4.123561290304388 8.475965765785164
Ti 6.6933501191586355 6.256815186447449 6.855169832738123
Ti 9.498103845097434 6.53165964894987 6.221191467649484
Ti 8.761252230125711 4.269625475746242 7.108214956919284
Ti 4.5052452447420945 7.16899028654617 5.440070390778602
Ti 7.066733071148111 7.717717322164386 4.556085175785095
Ti 4.62882615503556 4.283062542739878 6.32311824630598
Ti 4.945156414972949 9.391930533974934 3.8870139778764234
Ti 6.785419634357011 3.445414417861521 5.885780053898374
Ti 8.338508804659984 5.161871803300584 4.569693034305815
Ti 5.880466427202901 5.333437807755778 4.222148770562835
Ti 4.960869432026353 7.613589352197542 2.759778152099153
