16
Energy = -97.29157398 eV
Ti 7.484778618448736 4.957541308764948 6.45869002293106
Ti 7.867480449227414 4.145501989436237 8.815471259472952
Ti 9.260557339371614 6.92063865130365 5.067909958863002
Ti 6.399376817815011 6.295645576575952 8.644511444204364
Ti 4.90828276956051 8.338131429193721 7.244170612835825
Ti 8.98920654515545 9.534224690240103 4.977197428119467
Ti 7.19941795176718 7.789339944227472 6.192705808154652
Ti 7.647834837944069 8.392100235229174 9.013899013600845
Ti 6.931268278409767 10.151610846205282 7.389702215666374
Ti 5.065357019170792 6.051103288016887 6.205995260392533
Ti 5.425009769874596 4.0830437819576435 7.878958613977652
Ti 5.069317227828579 8.607913035581165 9.623852675218153
Ti 3.85391622065432 6.340180275746794 8.507953037632058
Ti 11.071592649150622 8.036329724887855 5.809203063047276
Ti 9.368722324140789 9.08085796879297 7.367542940844423
Ti 9.207012595053433 6.460248227308816 7.798061541825817
