15
Energy = -93.01365905 eV
Ti 6.597398583288497 6.375674689259766 8.642522277686059
Ti 7.082337152157929 8.513186410540262 7.822536530319926
Ti 4.578633865007787 7.640301264604095 7.099443007665418
Ti 4.60823795442861 4.993441235633859 8.044927763654858
Ti 7.12902421521244 4.193095322216889 7.5477339213149195
Ti 8.295568582602254 6.493838766358878 6.408716345776184
Ti 6.681945239297736 8.624030830061654 5.5186274579451835
Ti 4.765179338158296 3.4411118663459965 4.085926023485576
Ti 5.285210249240823 5.493907671761827 3.124692725741535
Ti 4.734287560049217 7.662137302402722 4.297805361691495
Ti 5.896858952764871 5.852031417944288 5.868730512027255
Ti 5.12962771715325 3.171781339730281 6.380362379709702
Ti 7.248452735719602 4.151069394561322 4.6922870801337355
Ti 7.260649366074369 6.865616945854823 3.8237024994659965
Ti 3.5209090924293016 5.343096146308043 5.4563067169670045
