16
Energy = -100.664865 eV
Ti 5.709313262647144 8.874954998570267 5.453724859810217
Ti 4.621808720828065 6.921614468479207 7.276748254607677
Ti 7.853830672805087 7.783271488232849 4.33187916106336
Ti 9.55383992654864 7.062091129151557 6.489321766351647
Ti 7.080102505691783 6.968348741528487 6.834209332006793
Ti 6.199399532966545 9.343496131692094 7.9920962195312955
Ti 7.590769649591419 8.82224925027717 10.44033816465722
Ti 7.939833044412278 5.273989921795868 4.898413936419946
Ti 8.477905346680608 6.410582240275327 9.180883917881303
Ti 6.214713712172551 5.086837547732756 8.71758130189633
Ti 8.318914690144153 4.5827287910264225 7.307362361005043
Ti 5.940440858149293 7.2773914135534525 9.62547200615503
Ti 8.123119260247172 9.473355368107296 6.158003998473353
Ti 8.845444547415333 8.897186070617087 8.371012980488228
Ti 5.858022305576603 4.564782430589848 6.299175961022577
Ti 5.609380153988129 6.4834899296443025 4.610214805481243
