12
Energy = -71.52110211 eV
Ti 6.226652171632481 5.094557564804526 7.982493997652017
Ti 8.809382400512035 8.390716416195827 8.89392012889246
Ti 4.914827645410264 6.19334807671775 6.151668787730125
Ti 7.54596495363578 5.714360845673717 5.7217817034925105
Ti 7.593709240552721 8.285212424245566 4.879706767403062
Ti 9.359968130542542 7.545875148924713 6.494652879868367
Ti 8.428305769903407 9.902596379024796 6.861685979064278
Ti 5.8062580257433 6.938982928607325 4.079284204564665
Ti 8.609996016541078 5.916440745224396 8.2930160516554
Ti 6.722864063218092 7.765789282710203 7.367689190263917
Ti 4.4952221644224934 6.8247280390291 8.736719030353608
Ti 6.798423268315122 6.81779647924585 9.852125587737989
