17
Energy = -105.47751846 eV
Ti 7.562987824010567 6.36683537490643 4.345002335828548
Ti 7.801032550349676 3.9138845214382187 5.227893844469363
Ti 4.614389709317973 6.747310626989008 4.004933486784929
Ti 6.134376345719973 4.436624023492176 3.308919693976169
Ti 3.6505402220140075 4.042343032688594 4.090249800736468
Ti 6.150911695269439 8.413160759705317 5.380834472856545
Ti 6.719967936719619 6.395395000503909 7.363359603352195
Ti 2.7177253935177546 5.704880475540304 5.809359836222816
Ti 5.517341362503831 2.547972588638218 4.898308180173298
Ti 3.560156983871023 3.4294278886838696 6.643430907980986
Ti 9.147969398174602 5.818030977498266 6.384107013051481
Ti 3.9080062195572554 5.720013340600213 8.10836981331375
Ti 6.53465337290494 8.725296298327745 8.041384195218775
Ti 8.422719723388601 8.2518987153629 6.2019112024792635
Ti 4.190504207958869 7.668178602338298 6.617233289910552
Ti 8.718751382743001 7.417711178077291 8.537085325689944
Ti 5.366291689473952 5.119362612703864 5.755943015450313
