17
Energy = -104.78937231 eV
Ti 9.23004399023632 6.124386685725976 6.1896200844487375
Ti 8.33549363695474 8.647948187451055 6.274341893535692
Ti 7.537939932158497 7.081348284163493 4.214198439590041
Ti 10.023043967074857 5.267651000690924 8.708854921451396
Ti 5.136579665725341 8.035081363234003 2.9687383459206855
Ti 8.43256958050933 7.328176598723664 8.65916472707201
Ti 7.2535833649980965 4.58811695172536 5.235215357819543
Ti 5.671422810470626 8.801420963043444 5.414858005822455
Ti 4.952740914629669 6.10602789356984 4.7277298256123235
Ti 6.665570157460066 6.686835691757961 6.664261606254764
Ti 6.151336952633031 8.743775509301665 8.17761864899477
Ti 7.671562585831405 4.471518511944797 7.928191039866404
Ti 3.284426977668339 8.118007800949233 4.5816906182349015
Ti 8.16526238120275 5.348501408332101 10.328406990242197
Ti 4.143675325420055 7.229308024801583 7.174100985305199
Ti 5.821063337955821 6.274135845340849 9.161136460184446
Ti 5.068574456944387 4.6833735981009985 7.14126667531144
