15
Energy = -93.12125086 eV
Ti 7.895862695185537 5.4452641914273325 4.174611293027758
Ti 4.324755879677214 5.364359328798129 6.5324323286474195
Ti 7.754025196501544 5.44896510277151 9.093984737080621
Ti 5.402821674001621 6.617332684300886 4.297728516711989
Ti 6.70798033167346 6.600025641941353 6.604207354686108
Ti 5.267018035275482 6.612179996138347 8.82850351714762
Ti 7.772282579781832 7.731910687361363 9.102531705371806
Ti 4.352673624538822 7.886315323942386 6.5338910625237245
Ti 7.925280685433093 7.7282462620598 4.181390206058281
Ti 6.254818484386155 9.060960759144395 5.291097707948927
Ti 8.456719978891059 8.654542167215975 6.6620473411569305
Ti 6.172126880917865 9.060637093199647 7.890768657366957
Ti 6.122081071486321 4.149805351287109 7.886578636626002
Ti 8.410593166604851 4.503260821400425 6.6493644029452135
Ti 6.195319123065263 4.1505539964304505 5.285221940120265
