10
Energy = -57.67873951 eV
Ti 5.607029975910064 5.767791176812123 2.672986951805318
Ti 4.118284513092672 6.805050046823732 3.9998953912621373
Ti 6.445122239670239 5.141865865872858 5.200751494770855
Ti 3.9423433232393448 4.397158248007468 4.763539483390882
Ti 6.283581656643764 7.756474607915072 4.815784696758001
Ti 4.4721825057005535 6.474256793027044 6.542985444267582
Ti 7.8940393408668506 4.258836237201259 7.167391929143864
Ti 4.817826013450023 3.7609525997622835 6.735086628842547
Ti 7.18433054122038 7.122182536518412 6.7585612226276774
Ti 6.087446698555063 5.367618696408412 8.195203565479671
