17
Energy = -102.54233266 eV
Ti 9.402740708335418 5.022591532890558 4.076947870186872
Ti 3.9753297746520837 6.648696025907633 5.188768485877631
Ti 7.056130603311277 3.8870981805676963 3.1702544196190647
Ti 1.3559791773141852 6.572066824902302 4.44219541031334
Ti 6.935776376196619 5.969832956958014 4.097598148775514
Ti 9.833089755505648 3.7007566604813804 6.568579572935935
Ti 8.440285103172622 7.500229480644592 4.843232475768997
Ti 2.2037299801598356 8.701591680129503 5.476071612738125
Ti 5.370577821418805 4.3016920296090095 5.527957802241627
Ti 7.828609714992843 3.2711308592559987 5.364854191048425
Ti 1.8646547255849673 6.640010708514244 6.935845811115962
Ti 3.8984198770603986 8.127680265879835 7.366807300200965
Ti 2.478266622961738 4.53347617606428 5.61971347853116
Ti 8.820553359292322 5.849423766169141 6.56026201909964
Ti 6.291816889695153 6.661986644639936 6.639491155367447
Ti 7.1660123699205345 4.2309824684559985 7.637274100793389
Ti 4.141830944685609 5.444557543189577 7.547949949645762
