14
Energy = -84.33615156 eV
Ti 7.272142975829236 7.093189903104082 4.752611905607767
Ti 5.65224587289455 9.126086379126965 4.452871802712835
Ti 7.655328830642955 9.249455435890555 6.001978244452361
Ti 9.353100757242496 7.855616370502724 7.228511060622864
Ti 5.261929835085037 7.7427280265349925 6.405475147045144
Ti 7.261259816626065 6.233140880032767 7.226559756200548
Ti 5.772190894643419 10.353455177031272 6.8698201100046195
Ti 8.497039478052802 9.962353654434912 8.475861988801071
Ti 9.542792361225109 5.662740932964375 8.41346643169648
Ti 6.417973937335615 8.398773169695877 8.517194445593109
Ti 10.627657571917396 7.858427236584105 9.546172180420946
Ti 7.212803324938125 5.468357328417783 9.72437098826359
Ti 8.324336764457374 7.722192710736535 9.980044334933073
Ti 9.578654119520648 5.702939335353848 10.834518144056274
