17
Energy = -108.46917123 eV
Ti 7.377148888128499 5.430368350237316 4.3728778443544085
Ti 5.1859173304154265 4.708555985097981 5.907989391141154
Ti 5.522640952083672 6.912956830285474 4.2506090965591925
Ti 7.970213848572107 8.137874544197883 4.622308880392235
Ti 7.840948818687534 4.165091100300566 6.460012537672691
Ti 9.438936457106923 8.06651178338832 6.996272828801529
Ti 4.037359422866459 7.216898272867894 6.267844548329201
Ti 9.38150324874084 6.01714045762849 5.768022601626864
Ti 6.433275568521458 4.411806719084796 8.349088965140252
Ti 6.815364056645119 6.8217896939169425 6.82354127777272
Ti 4.484871231173993 6.00398556324874 8.26018550910113
Ti 5.563546713307734 9.078428869716893 5.573327044771099
Ti 8.83154040599616 5.7750197849925 8.481775361905084
Ti 7.451367344933576 9.621569059552543 6.904425665713234
Ti 6.467864068016184 6.591890151880643 9.657399490238015
Ti 7.914406793564937 8.344489458226995 8.98937111172699
Ti 5.258835311634613 8.671363835770707 8.290688305149303
