13
Energy = -78.23013836 eV
Ti 8.415276237580398 6.76787499867592 6.620227064557729
Ti 8.132593613340667 4.2779742717275715 5.890575873849045
Ti 8.641664436105833 5.3227548867376555 8.530971460329093
Ti 8.309992798849068 8.181811487924351 8.565381664584805
Ti 6.6711727964047745 6.584788983506692 5.011091563561811
Ti 7.567984520862561 9.14443489179297 5.9502890622984035
Ti 5.909549249617125 8.257330467645785 7.433515510401503
Ti 6.3200865130940755 4.724271955083556 7.389486233531467
Ti 4.871797294560318 8.485181585722465 5.147215388235678
Ti 4.327777153784021 6.325300672746784 3.9452212859887545
Ti 6.341387097608743 6.497836905974837 9.022395438208552
Ti 4.316434986444489 6.291438080057261 6.5792864105134
Ti 5.35444128009369 4.319158790750184 5.09450102228591
