15
Energy = -91.31355684 eV
Ti 6.4491169325559605 8.347879400175392 4.998219238505419
Ti 8.035271684554944 9.187772634519172 6.8265166656037035
Ti 5.444892804432311 9.448423072625934 7.190388459961636
Ti 4.2804800141470105 7.390285772470611 5.936871162235162
Ti 7.860894749434802 6.58558756813177 3.290539898782025
Ti 6.464647764764267 7.048341834798225 7.391722872169575
Ti 7.15668632329224 9.204864203692074 9.139495852393003
Ti 8.440247939683747 4.540381241291456 4.317440586991638
Ti 6.192983264007867 7.267954823658322 10.024672244401275
Ti 8.563407760977514 6.936617639973842 8.751369691492654
Ti 8.625788462542328 6.657351625006434 5.7680289772778695
Ti 6.100440760783081 5.574735430365626 5.084490002712553
Ti 4.916807317599158 5.032793583401073 7.558936710458799
Ti 7.527291051674188 4.541798159575179 7.0908722919716105
Ti 6.734970727847767 5.108059935087289 9.444247882913038
