10
Energy = -55.65354705 eV
Ti 7.005707582512314 10.165275983835718 7.927397382592089
Ti 6.4244970423070775 8.502330324543921 9.12620897504039
Ti 6.794062585142995 8.381549159467564 6.0767884524554585
Ti 6.141538042288794 6.529491896626744 9.87768618895122
Ti 6.226874221970943 6.010148293908306 7.35363249204548
Ti 5.815246576262569 6.4650534841623 5.044604295804311
Ti 8.952192928100754 8.560712080007143 7.393178801407902
Ti 8.389742714475052 6.181548383881425 8.66568972338418
Ti 8.4987126158262 6.332930195158758 6.004812140119216
Ti 10.551406299207839 6.863733430937648 7.917896210950651
