12
Energy = -72.10350784 eV
Ti 8.929104024464577 7.191054642905524 9.265093976041333
Ti 7.2923700990312526 7.296103864478898 7.332921615715445
Ti 7.132474193936259 9.157605921837716 9.046333329858392
Ti 7.954931887060824 4.9194206739387045 7.943828403336031
Ti 8.97641628626026 8.740331484912126 6.48889001463885
Ti 8.033220570560635 5.934839468535198 5.333626762753039
Ti 6.237933053047385 7.899794965813173 5.114220735120206
Ti 5.612146783813984 5.677687679594104 6.593927031171342
Ti 6.258929188184917 6.587153338947822 9.439928888610803
Ti 4.937101761797336 8.222589110293091 7.576092896638792
Ti 6.5918854740382065 9.918444908307574 6.6565651689232075
Ti 9.89362545523521 6.305113085155673 7.058709403690296
