13
Energy = -80.44575417 eV
Ti 6.4992078213277855 8.574497360131621 5.937655465033486
Ti 5.5433177893927725 3.446244902873164 6.104300307955493
Ti 3.9862614071744376 5.297217976982091 7.499235871707457
Ti 8.018099856845382 4.351697016480174 5.9690370627575025
Ti 8.045789944049455 6.7359456823495 4.551588766420391
Ti 3.9310198862519936 5.25677344057641 4.6969274615907555
Ti 4.014353175072485 7.697843061246401 6.07288456821086
Ti 6.453979521323728 4.716256429767609 8.2298892329952
Ti 5.515579915497012 7.326572313764061 8.210393425547743
Ti 5.98184302026447 6.004049978173398 5.994624885251998
Ti 5.588665268734233 7.330185328740271 3.796451135551185
Ti 6.5339052588122035 4.702652236063942 3.8160399721238902
Ti 8.105984163074064 6.778071300671266 7.338978872674172
