18
Energy = -112.71381387 eV
Ti 7.311385982534607 8.818681511556344 3.111476942826175
Ti 8.453932615522724 7.1664221890698405 5.159462383467036
Ti 5.289747624293258 9.397842587615298 3.6238715056007393
Ti 6.843849785546173 8.882849476052785 5.806538281135458
Ti 5.882074631928395 6.841941418335064 4.228832551599446
Ti 7.782227202801727 4.801083802957923 4.690733422471329
Ti 8.20399764625202 7.647551992778335 8.096215844412747
Ti 9.200154202224539 5.483061915787388 6.782125808516554
Ti 6.389050398995274 6.336819556274673 6.8884852483107535
Ti 6.0767826708916965 6.729186843095445 9.59117827986725
Ti 4.309308542080225 7.961832126747372 5.923031480180849
Ti 8.510109198509998 3.1788573802886715 6.718134408574013
Ti 5.633931688544266 8.730585364116731 8.128257948560444
Ti 6.250910449225076 3.5470542429256557 6.703105439390272
Ti 7.723203650702831 4.910744269911035 8.832437845550029
Ti 3.893544399330661 6.758615068823954 8.124469957496892
Ti 4.173257289363328 5.209674135099321 6.019064234141294
Ti 5.043501933748544 4.568166031059085 8.543548330393929
