17
Energy = -107.69680064 eV
Ti 5.919389118297798 3.9601650304958245 6.559848311652751
Ti 7.5674826593170135 4.6263559062138215 4.4901194773184665
Ti 8.711433129245009 4.50847901443028 6.519084924973129
Ti 5.094226197111023 5.253527589836062 4.410740080797558
Ti 7.55205463617844 4.480248172286752 8.748411245079957
Ti 3.860971988679144 6.327644430633978 6.623062867804806
Ti 8.817669016887617 6.968465769561408 5.325311594208773
Ti 5.248056068011041 5.446949125384738 8.741496711784793
Ti 6.93372193659858 6.718792608313711 3.3886602721429053
Ti 8.824494961755567 6.547023207224718 7.981234823232502
Ti 6.484488118284492 6.515206339843693 6.459600499337605
Ti 7.020023706899778 7.054057476792162 9.61311483771911
Ti 6.796337649145548 8.759707122123267 4.83920093154054
Ti 4.5087821832069706 7.690482689784598 4.379505257614265
Ti 7.404208952369739 8.78521573700406 7.396566181346562
Ti 4.923235455373982 7.934939124812115 8.561262901747961
Ti 4.836365471279035 8.925681903898912 6.465720330338686
