12
Energy = -72.79791319 eV
Ti 4.9607815728889495 8.036473887226395 6.9585151345380165
Ti 7.649108712321559 7.67350034737093 6.833941880983282
Ti 8.112216958565568 5.036301120001911 6.821414119198561
Ti 5.784745017836871 3.768063057038375 6.939366957016057
Ti 6.120387642631105 6.062205602135112 8.2913777730602
Ti 8.403260711783545 6.501824183464703 4.664436792476805
Ti 5.9980850298969095 6.005844533630961 5.466354837664242
Ti 3.737600483865205 7.088285213646696 4.883557696725525
Ti 7.16269162860151 3.8224509542778304 4.730314422615744
Ti 6.262845567926515 8.459229647749327 4.7513403064928506
Ti 4.230842642532504 4.215116473768125 4.877269006724501
Ti 3.8260764868839297 5.579347435423935 7.030753528238387
