11
Energy = -65.07317478 eV
Ti 7.410494507204058 9.362867311758102 6.210720154854451
Ti 5.277097332128626 5.841378954253284 5.144208566026386
Ti 4.147495542653653 6.282175152578505 7.325146300055078
Ti 7.107694486064037 4.432917995160811 4.741697253747803
Ti 5.568075965800399 4.101287544746389 7.02498460117766
Ti 6.148748644605337 7.745794093855929 7.528521389542817
Ti 7.893586238580844 5.18915897845892 6.821819387317369
Ti 7.629874725817533 7.154559402369989 4.994837838407733
Ti 5.15674122386516 8.28732475381689 5.308784122969058
Ti 6.5446147020058705 5.684733235675331 8.863255344946658
Ti 8.615576631274552 7.417802577325917 7.5360250409557
