13
Energy = -78.4889478 eV
Ti 10.068740041836664 7.2566832805788035 7.400044791165843
Ti 10.099952865105198 5.807156666282366 5.543934839931495
Ti 8.408526411027482 7.681696031353276 5.54695720638024
Ti 7.381446495104514 7.9873777061823015 7.990904685496011
Ti 8.00077027890443 5.589255407179159 7.173965903874044
Ti 7.4053074282524225 5.375965045537374 4.664987891880209
Ti 5.848978392502698 7.147823234680518 5.979010197386098
Ti 5.755376294141613 4.371135492497541 6.4349989884794585
Ti 5.7580707197415 6.08044472041549 8.581601875048104
Ti 4.363587290953977 8.191356805057058 7.868255141565138
Ti 4.4234609061321155 5.524005880985642 4.557583300646849
Ti 3.2697074765680156 7.71068772381909 5.6667508309519885
Ti 3.7118381709179613 5.772174776619693 7.086767118383115
