15
Energy = -94.54799686 eV
Ti 4.915676406912812 6.275004389654177 4.7448480483710656
Ti 5.329827321404196 8.797433967567077 5.576014565495673
Ti 5.5363140494405405 4.556005126318645 6.854004412445764
Ti 4.027842311030998 6.939681039746355 6.990165969210164
Ti 6.763338001007377 6.771054767530699 6.76289029809983
Ti 5.522897088938316 8.908724011953709 8.052779530630364
Ti 7.0868660243905515 5.041283444269157 4.60697424525198
Ti 7.131705077770475 7.700999497212579 4.199419216366441
Ti 8.364330651167927 4.519759332773922 6.7192313912326025
Ti 7.983134288190903 8.996533335162024 6.649958710904211
Ti 7.554265417781169 5.2644587512987036 9.023607655971745
Ti 7.55072759268556 7.907673693278045 9.157329310843643
Ti 9.351192675140831 6.762211027839751 7.796593059388012
Ti 9.121335529973356 6.633520460792571 5.2887408187002825
Ti 5.314482333341503 6.479591923778966 9.131377615948951
