14
Energy = -86.1496881 eV
Ti 6.521204295766581 6.498580248333558 6.715773234798846
Ti 8.301880760534052 5.044041017120228 8.012346930019408
Ti 4.555796790019195 5.177037424817389 7.882487464669242
Ti 8.320120496017989 7.83274438202898 8.064248563959694
Ti 4.741297580934595 7.946203515213111 7.94909801994549
Ti 6.602783181700704 9.671014659894096 7.335192985930184
Ti 6.399770884140856 3.438294419678499 7.296883244009047
Ti 6.595235692808341 6.527088826672083 4.289327571519704
Ti 9.12297135652662 6.466076411482377 5.998392347370556
Ti 3.9730701039111627 6.637101755373754 5.8181767063868985
Ti 7.957918638326067 8.619522332878143 5.570676019478823
Ti 5.2899601262059965 8.707752918885282 5.476732622800474
Ti 7.854779492252164 4.3632489838263036 5.533010655000004
Ti 5.141454555622997 4.449536740425495 5.435896793533366
