21
Energy = -131.85486573 eV
Ti 5.548281509783198 7.7344163423232715 4.444680392496399
Ti 5.783032414123936 5.005512866847124 4.607064896660779
Ti 8.01934995849494 7.790290933619087 3.77962283182425
Ti 4.780929251534909 8.806589829902704 6.897740187782482
Ti 6.815965319341634 9.8152439115875 8.220310604892424
Ti 6.962797339668626 5.877827346706449 2.805680714421093
Ti 4.25669265736757 6.242542850262592 6.0011830154897945
Ti 9.562510467508252 7.8852651517481425 5.647867415701626
Ti 7.2643672915139375 9.560235092893667 5.615968467882952
Ti 8.386661809494322 5.541188675181801 5.102064856527481
Ti 10.519984929432733 7.199340328374094 8.162297208574008
Ti 6.88365464763232 7.25673136264275 6.918064798335177
Ti 4.458726371788317 6.131194477479567 8.340807370960778
Ti 5.6218251326698665 8.126345703091737 9.451944624178802
Ti 6.494062462151624 4.547432583558278 7.1134832205539515
Ti 9.107952531507468 9.242749426534168 7.578849069486649
Ti 4.031145765850017 3.7420184459381565 7.023488407911739
Ti 6.818493530630237 5.772907655154283 9.428368687059923
Ti 8.198036722881897 7.963679122577437 9.565796677963492
Ti 5.107151313156223 3.6122267200466966 9.089125484207004
Ti 8.987613629001158 5.757798329721982 7.814799706130489
