23
Energy = -147.00850319 eV
Ti 9.89667150549341 4.807429915510087 8.162444338816716
Ti 6.136397579603232 6.739146858086889 9.959238612368996
Ti 8.41853993253492 7.087412205006027 8.709132392134205
Ti 7.3893908821016305 4.485439576589988 8.939632511126948
Ti 8.694608436498267 2.8109435399749207 7.342022486789069
Ti 9.92423734396767 7.217869068780014 6.496722968064959
Ti 5.807705882165711 6.287640912237754 7.358655709980606
Ti 5.949973389721974 3.6201682423609127 6.928874231057207
Ti 9.186721360844853 9.142029115842478 4.840798671952347
Ti 4.680115570789374 4.716463117803097 9.099580516956532
Ti 8.13882302535101 5.0591409198784945 6.262911973323864
Ti 8.787749819455735 9.376678254684958 7.425593799288518
Ti 7.212974357587579 8.361447704556237 3.4005830632292913
Ti 7.202489680250623 7.803841982369084 5.956345147600516
Ti 6.3435962541469015 8.944415483982304 8.466510034731954
Ti 3.493422476928272 4.949409157424955 6.986994676695101
Ti 8.882415859910544 6.573790261730269 4.193162868510791
Ti 3.5914733965594166 6.957985011787314 5.780273985315714
Ti 3.775006668746559 7.2426241715261375 8.491786949644046
Ti 6.778958966052435 10.211039508570979 5.599689954151128
Ti 5.011777977515357 8.551413636712148 4.310034715433161
Ti 4.567270976085026 9.09716867855598 6.724380815513251
Ti 6.041887234458185 5.941233215746061 4.449264330443725
