28
Energy = -179.3719807 eV
Ti 7.749486719184012 6.908358226329705 2.7967113729383044
Ti 6.765650304333709 9.398116370391103 4.350922318136301
Ti 8.706417922283903 10.462737562706454 5.184629604268192
Ti 5.948952864689257 7.077882443579688 4.373485604821648
Ti 9.194285881268536 7.790437079388298 4.723887769054067
Ti 6.222729161151301 4.683116679422166 3.8661853087660165
Ti 8.52972178802683 5.253542264774344 5.044438685270772
Ti 4.9744381351443225 8.291507597975151 6.210290936213771
Ti 8.93663520612233 10.941902596277432 7.62868896712613
Ti 6.417300648194474 10.804189320478521 6.660999085394784
Ti 4.203664100184146 5.385160987679552 5.511346370674789
Ti 4.3995796979163195 2.934492833186466 4.7103611619824255
Ti 10.381170916136353 9.05590103926343 6.668154368949419
Ti 7.717510956338292 8.538905953422931 6.916316567291288
Ti 9.731238415311312 6.567336457948308 7.149394292234639
Ti 6.533057295605433 5.9871003894430315 6.987233415449449
Ti 6.643793684852357 3.3808131209686163 6.0889242420959935
Ti 8.630567336688408 4.251953218494316 7.488757364224818
Ti 9.386415914009223 8.675979877561375 9.09055223262131
Ti 5.5754379445178905 8.318076479421396 8.668299860485067
Ti 4.276252819000543 3.580684853690138 7.380159437798319
Ti 3.9517735781870007 6.087726882507126 8.16321893871587
Ti 7.215291336693568 10.416843430723848 9.188371092251149
Ti 8.202332096979784 6.132977374206385 9.32810382047009
Ti 6.435006641906714 3.9622707405185755 8.843836824170708
Ti 7.247324320927849 8.360414672002022 10.548105078594384
Ti 5.714614212386886 6.147162995336073 10.116670451103456
Ti 3.943867044354287 4.247156394974468 9.944656423848459
