27
Energy = -173.05535215 eV
Ti 9.91668202195963 7.134272812626432 2.7726484070983153
Ti 5.836128974555511 10.476821778925858 8.577247204993316
Ti 11.611926616273802 6.865840084068019 4.99966964741057
Ti 5.819458983501094 7.684572774460417 8.067925590573854
Ti 8.741916693577311 8.126831414972923 12.099238103936054
Ti 5.0309012356385026 10.501984358827846 11.289862236912029
Ti 4.728270618288146 8.375896112398806 10.099960742304486
Ti 9.280901077604213 6.951342300731922 9.640343735884576
Ti 10.295096403208028 4.915933532704224 4.09828264432454
Ti 7.941491502272888 5.4808569443361534 3.1867022874983317
Ti 6.308501930521576 6.322977446369774 5.152324925312732
Ti 8.180355041215693 4.447559274864074 5.582877770527213
Ti 6.806782542061901 8.746050581504415 5.925660068090406
Ti 9.247187444288013 10.885026798905079 11.513127183425997
Ti 10.210714526126418 9.22984163335602 9.985122468050584
Ti 7.189203560248595 10.371011616192147 12.858068410273049
Ti 8.252830904136301 8.950164838738552 7.97434976475607
Ti 7.015565904336164 11.9973755737978 10.71336677477435
Ti 8.64509522533999 11.321186421233216 8.91658480746527
Ti 10.47869202874345 7.826335678065818 7.402277684757138
Ti 7.269818625542967 7.909941672292169 3.3323241160207933
Ti 5.948781657511419 8.180121046100556 12.361337378118854
Ti 10.42668185588692 5.33501047512536 6.7485748437663995
Ti 8.975946001204203 7.085470342513092 5.189024222742815
Ti 6.770868669623084 6.658169046640699 10.448289839451649
Ti 7.921138781009774 6.291687139031623 7.495294725213527
Ti 7.321689637691409 9.356815603267014 10.398473512268504
