21
Energy = -133.63891947 eV
Ti 9.507108041726966 8.130336999848605 5.524105251502838
Ti 8.82365925449305 5.7720600087799925 5.074084950185371
Ti 7.189022587889547 7.724515090134288 4.108795558202425
Ti 9.427326605996711 6.19135900354883 7.547004432318138
Ti 7.613341229177849 9.918999715767574 5.617215994053464
Ti 9.006192873537817 9.232526228784069 7.933248599237334
Ti 6.796113036633683 4.914481215320183 3.991032923047347
Ti 9.098708469720268 6.958018190370079 9.625175627673357
Ti 7.845792848628125 3.826655256547346 6.406689986791538
Ti 7.297721465488914 7.72995630239224 6.896930436716008
Ti 7.035190973365357 8.188700142692719 9.566668242900958
Ti 5.970374284453541 3.3410333784346284 7.755004028409442
Ti 5.094590828263002 8.710333774366163 5.680312316851785
Ti 6.071247358485477 5.773002854657115 6.4752152111370815
Ti 4.540354941574665 4.130208093691429 5.488324951402444
Ti 6.315992810732547 9.9203055495972 7.862204909916795
Ti 6.6797236188017886 5.556391217427445 9.116403872457214
Ti 4.844995689515995 6.471472137112338 4.152777109221406
Ti 4.181422077030855 4.965549785324596 8.131596204728641
Ti 4.792835531926195 7.59799763437582 8.392935665620119
Ti 3.50134369916912 6.554227403545176 6.2714049817438235
