27
Energy = -170.47275346 eV
Ti 2.499446995390712 6.300053066707449 8.982201246202662
Ti 4.963338566359019 6.212667794354179 9.067683127538729
Ti 8.032734476333312 6.1053486834502735 9.237919545724406
Ti 10.504094162588272 6.105589383118433 8.685992904253647
Ti 3.4618973547025194 6.5803800445320215 6.561913195201986
Ti 6.230884640892163 6.458315201893307 6.840459235581901
Ti 9.010286957219314 6.4037645578403675 6.67344151194963
Ti 4.680776894100649 6.8962368511102845 3.783248005529451
Ti 7.398784355354261 6.743546834479837 4.3392240828934625
Ti 4.159093864664721 8.462643079187426 8.040378775751876
Ti 4.03441969710288 4.349643073826536 7.517901746776361
Ti 6.785964421735314 8.561208029567673 8.562974728994815
Ti 6.647092050288783 3.9661688088011147 7.983583604744671
Ti 9.270846466979851 8.35460791344098 8.31188894785925
Ti 9.14438539941169 4.094614712203448 7.770542994001463
Ti 5.10268815620865 8.697152594775801 5.524375166516272
Ti 4.981771207303516 4.696303160576207 5.016501541515808
Ti 7.914453050606943 8.877053297506501 5.79849426715182
Ti 7.77456970229061 4.291548639603198 5.2158276362919995
Ti 6.5239969611772874 8.830950389873756 3.3296339839454476
Ti 6.405050691478774 5.034988698960351 2.8446441693260893
Ti 5.579385214774388 10.570847575920377 7.2696607020058215
Ti 5.3324902047635945 2.423715942235902 6.2349481823785595
Ti 7.9731410948837125 10.804721144813037 7.344692955875895
Ti 7.710220020504853 2.038458009135147 6.230537841887413
Ti 6.5949141925878125 10.949810524920514 5.009801742583099
Ti 6.340782164865833 2.558980072205777 3.9442019743861993
