25
Energy = -161.78026069 eV
Ti 9.452502107595329 8.18454115029292 10.062123095519766
Ti 6.911074697396314 6.922646418444964 9.68052205122594
Ti 10.161376583354855 9.259856906105197 8.33542065816584
Ti 7.413206312848424 9.314562075227501 8.603932183509823
Ti 4.933150175911804 8.457707242426212 9.064915958962418
Ti 4.597112795020355 5.866072495414659 8.674727360258174
Ti 7.319080527581277 4.687086485813699 8.232232098026554
Ti 8.79330223790671 7.049078871554983 7.744742381353561
Ti 5.156718851554069 3.596983522438583 7.54315344606326
Ti 6.241093870640234 7.376425897001365 6.982020491302144
Ti 8.048853165951234 9.360723920462723 6.268262879518585
Ti 3.490038550682565 7.773816622346709 7.166924133640966
Ti 8.93994787422494 4.894995520132878 6.27479839476418
Ti 5.272099392590872 9.711969496822194 6.552988980364151
Ti 8.581917862455693 7.092575387518098 4.879868426196843
Ti 7.208670225787359 2.9053785517330524 5.870489641520775
Ti 6.543009441034402 8.715848404082179 4.44611827105613
Ti 6.18087458678439 5.24499101774503 5.540802726997847
Ti 3.4635668219501277 5.32047746808795 6.350719924012636
Ti 8.329004431932926 4.576291271523588 3.962351930063936
Ti 4.504190182976458 3.152574392941877 5.197683888870083
Ti 4.293348262393249 7.626083997340511 4.7549800843777446
Ti 6.429622096257089 6.447051265043111 3.1871044741238213
Ti 6.140356924383444 3.6981681501792023 3.3795319660830345
Ti 4.080511258823449 5.248722707358525 3.72821379205964
