29
Energy = -186.40588795 eV
Ti 6.727962812247242 2.9253578947693297 5.062884214789746
Ti 9.150954782338294 3.4427447743198627 4.711953407900508
Ti 10.410820636966216 4.9987513950881 6.533445641864549
Ti 7.416584328668487 4.79620479953803 3.22948093895899
Ti 8.35151199571737 3.1775033467811853 7.094960322645215
Ti 4.91363410069385 3.943312475657758 3.5822270862098198
Ti 9.854394790529149 5.723157468646439 3.9716612322775484
Ti 5.266943379895429 5.110770211805197 5.784598865728677
Ti 7.960116757878684 5.681430416976242 5.920254720910331
Ti 5.321728340191803 6.541662207147878 3.5183678605354674
Ti 10.001646620418008 7.533807045322426 5.620739558556642
Ti 7.957717813648601 7.515257615897456 3.812168586549421
Ti 8.938939615185024 4.799572924063283 8.750427709506358
Ti 6.355834541606802 4.79651017443517 8.164070494079427
Ti 9.254030298811776 7.2250230054653475 7.983730065917874
Ti 3.4054889853396215 5.804651768229612 7.331123543819369
Ti 7.375557766299844 6.697435458165739 9.656259940165523
Ti 2.8757023076215873 5.582099120326858 4.681949319485206
Ti 7.987683883702744 9.101771280595697 6.045132095380989
Ti 5.907603089619519 8.811201019257313 4.65888938720619
Ti 5.949326449029782 7.434568305374207 7.191710716171997
Ti 3.6802984562948895 7.928488668859848 5.4958998402997326
Ti 4.7332555844856925 6.917276237393218 9.734432427705093
Ti 7.507279187809506 9.329046094886621 8.721108510720137
Ti 1.4091408934919163 6.953322935864975 6.367067038663531
Ti 5.561338742357872 9.991355991193053 6.941103956587442
Ti 6.435262933602082 8.5976858451069 11.154939284956535
Ti 3.3804650231015345 8.299157560613361 7.978659913781424
Ti 5.045350052260815 9.480944664706547 9.45343485853295
