25
Energy = -162.25871894 eV
Ti 4.3511589196171565 8.278604326560897 4.65067473022422
Ti 7.1198826728131355 8.250094893065574 3.9360153671901745
Ti 7.961186213684115 5.634036071203213 4.801593555079507
Ti 5.782739844494164 10.213615955054157 5.342192561887762
Ti 5.494736616405783 6.140609143635159 4.098934021871723
Ti 8.524911044974036 9.932713585319165 5.961553814680359
Ti 4.014934847861454 6.1194250239230215 6.407831920579357
Ti 9.429111165402345 7.642784498054373 5.101286101005467
Ti 6.177979786972633 7.702744628360363 6.283806542584867
Ti 5.778935669128257 4.187160359014893 5.5963408850124745
Ti 10.078327448402398 5.810834557422262 6.93969085798572
Ti 10.65364979755121 8.505074520883355 7.146236610919592
Ti 5.016308250643128 4.142155531666886 8.011079718296203
Ti 10.185417447365264 7.26069469708117 9.306232651851051
Ti 4.26688110105298 8.998790174302524 7.3278566751191665
Ti 7.111586411359575 5.557684733167786 7.4715444064635825
Ti 5.015355749650399 6.648955017750925 8.985384370046752
Ti 6.5919706351075895 10.410527292298262 7.621556508495536
Ti 8.835099395084049 9.642821997357792 9.006640896433233
Ti 9.093072228133494 5.08663533814544 9.318590065373082
Ti 7.711310412455541 3.4050181478975516 7.5407239884855235
Ti 8.259700234658865 7.75787745472417 7.619544255190322
Ti 6.129532980056888 8.922226861806795 9.304060057557813
Ti 6.67995112578509 4.566296083264411 9.871049586108704
Ti 7.656688320830201 7.103047427528718 10.270008171047426
