29
Energy = -189.48971671 eV
Ti 10.244343014290232 6.0700703396499405 4.72041251188097
Ti 10.183234939341766 6.9234679901839025 6.963868099871811
Ti 9.87325694218318 8.180730748772534 9.153867405938653
Ti 8.885322227025615 5.56794992815392 9.05915078021224
Ti 9.038767297493736 4.367763580254376 6.471453777590821
Ti 8.733143483553796 4.336002303856043 3.7800338278968635
Ti 8.157409931659753 7.628683400096245 10.670238034483502
Ti 8.68645941544258 6.776071330060051 2.8775061163264537
Ti 8.982384972276028 8.504151308478349 4.8303863842824235
Ti 9.279661502887711 9.486028911221497 7.094131664284506
Ti 6.612249173224614 5.412220995926268 2.9582376433788555
Ti 7.569943924150323 6.298083615787951 5.4038576081834
Ti 7.557536118972364 7.512009931668004 8.011485345343212
Ti 6.5904484504775835 3.811859461316598 5.193099043675583
Ti 6.647751484787931 4.268990153514311 7.836911128290554
Ti 7.612993213500248 9.928841563534016 8.936767091487537
Ti 4.401222046519388 4.068301297224981 6.360039679221957
Ti 6.788366195273634 9.447490805244062 6.066850093256476
Ti 5.235818850984635 6.624167625936748 7.066495227358559
Ti 5.972245139707013 8.526440926902977 10.25294489591544
Ti 6.429808871381925 8.010915618165166 3.732946096502789
Ti 4.686257596426807 5.872199490862104 4.32955420109736
Ti 6.279946624620345 5.825161400999724 9.999467770477025
Ti 3.81025917786889 5.086813838459754 8.590138263183853
Ti 4.906567296462481 9.351660556186316 7.9828749655314635
Ti 4.187978648507866 8.369670342746481 5.482227011488276
Ti 2.8382523541891755 6.001141376481921 6.06868306187575
Ti 2.8099352415519276 7.686877289485615 7.723125168317875
Ti 4.150053025483081 7.342312615588205 9.67975063319672
