24
Energy = -155.49346324 eV
Ti 4.915327452783943 6.22166962045856 8.343979664160132
Ti 4.090557989218059 3.9935161038420253 7.16269281650406
Ti 4.526643000918858 4.265429159418069 4.58226918074658
Ti 8.472121343771104 8.715875683176554 8.427231291644603
Ti 3.747194160806275 8.463279985107144 7.585064138351374
Ti 7.373000999350223 6.339550656448933 8.793277926510392
Ti 5.646391116841007 2.4695942562378344 5.91951740930096
Ti 7.366536994325729 10.525221842890906 7.090456579679526
Ti 6.395262906598935 7.956794652233549 6.641481812125583
Ti 4.192642719518774 8.733485825007172 5.0097172865788755
Ti 6.3470297675067835 3.451856480859827 8.40506187273609
Ti 7.082671299367317 3.9284488974315583 4.053576724511178
Ti 5.615076362251063 6.650422932242382 4.222833920330152
Ti 9.246238864177425 4.554402782624959 5.401963705273215
Ti 6.660983719865686 9.546136334415001 4.595505157308031
Ti 3.5944152820958597 6.3291072563939155 5.989473770831843
Ti 8.080451129974861 6.8022227629067915 4.636520651476948
Ti 5.051533492900708 10.399232486947595 6.6780437947598035
Ti 7.959145158627668 2.6075036557107336 6.3211259638798705
Ti 9.392223588509589 6.663867541097821 7.010698254158864
Ti 6.613363524395874 5.0475274587822385 6.3619804658373
Ti 5.917303542660892 9.075925722009947 8.94659603482091
Ti 8.810868823645627 4.270172693036054 7.98846959524358
Ti 8.914043556209206 8.999782007042045 5.8434887795516
