24
Energy = -153.23093742 eV
Ti 6.6710178414502375 5.210634546389992 9.620970061249146
Ti 5.547659573391369 8.021462428183174 5.282696238403934
Ti 10.140829244902998 7.553501890094249 7.0163788248882355
Ti 6.613596955234209 10.23188856002725 8.92904864190332
Ti 5.547315317307671 10.411590328922026 6.295916020302868
Ti 8.458049019917892 9.112670913134396 11.054516529248787
Ti 9.01203870703376 4.766453792593972 10.220363863592576
Ti 9.927588097982843 9.902047404658303 5.819396518679701
Ti 4.830353404305435 8.567331070104714 7.730144795177973
Ti 10.809748356347475 11.903706753564993 7.2628397379083
Ti 8.505174728599759 7.2668083954840075 9.235111235412523
Ti 11.25509985864841 11.18114756299204 9.668279749304684
Ti 7.328275917620702 9.815049648091406 4.593503623827003
Ti 7.595596424740301 6.5756405574812895 11.679438271990858
Ti 8.527887904418364 5.203317171952698 7.635426826329635
Ti 10.879820873852104 5.976110454006283 8.949520924144716
Ti 11.854988290641566 9.59300411692627 7.63163204764713
Ti 7.9492807780151535 11.344320977579635 6.630768665613521
Ti 7.488923410298473 8.601985944132247 6.937256126156658
Ti 10.986033598265276 8.498718674776852 9.861729159052189
Ti 5.979110953572868 7.814061019881746 10.030536855032922
Ti 10.0617088059912 6.84223159489974 11.432791421635214
Ti 5.995492812310156 6.3434207552826685 7.687538046879634
Ti 9.325747008649529 10.056266459490029 8.513694412454242
