23
Energy = -147.87456129 eV
Ti 5.136292739555753 6.709730805329779 4.053578082131743
Ti 5.703213200017934 9.305691206578096 4.67036216237286
Ti 7.508786280242054 7.799002773895324 3.379854958927391
Ti 2.8390508768689457 5.62429439045592 4.658747339687419
Ti 8.192440041349066 9.638823293921849 5.1228060693079005
Ti 4.5285169035201625 4.292921232202511 3.369866624516983
Ti 4.824933169181541 4.704478275746602 5.860580461274401
Ti 4.879609938554705 7.838036144578462 8.817578767204878
Ti 7.190641803752429 7.389712960948112 5.9050634897191046
Ti 9.572693218937072 7.241556773661809 5.121778843248373
Ti 7.263680127601117 5.14632893809485 4.343225345518294
Ti 8.99068183195045 8.869163332235031 7.3313622812443455
Ti 6.355154868697642 9.420989918807713 7.325140342056942
Ti 8.974615772190544 4.813449970944616 6.356205054038019
Ti 6.375031341285902 5.878545646261979 7.569468470634121
Ti 7.091315156250437 3.382248113022883 6.602218755813148
Ti 4.245259544529438 7.650138224624948 6.300954356843224
Ti 3.7332998793193335 5.641484764709092 8.156146521667416
Ti 9.458192969349541 6.553427736244389 7.798371561497459
Ti 5.446378311201836 3.644697152384302 8.479158226224852
Ti 7.535191936680265 7.627214125414259 9.268288896471594
Ti 7.992860692220205 4.595011990046668 8.977802854749761
Ti 5.666664952868652 5.737557786016534 10.035946090974521
