28
Energy = -182.35545776 eV
Ti 6.508205071941937 11.070093313290734 6.077670904260364
Ti 8.817987479101712 9.662632998383032 6.415786261661124
Ti 8.038585840620016 9.958169175691646 4.0314843441855945
Ti 7.194834825367454 9.413272739877543 8.218682559355436
Ti 5.638749250412262 10.000778564905346 3.543367882977577
Ti 4.804085278178189 9.733399132827213 7.761914338357242
Ti 4.016527366261611 10.063631417345992 5.393646634893041
Ti 6.317970305861681 8.51813759457551 5.71304451438172
Ti 9.0943096620997 7.71212163733668 4.594992245114212
Ti 8.375073144084311 7.107541494659239 7.162258572884349
Ti 6.872050971229029 7.732383708017827 3.072343009286418
Ti 5.612351150564304 7.124862030300635 8.243584335251986
Ti 4.257204017426513 7.8531490720915285 3.9531867651406416
Ti 3.5573799183622 7.782880800421889 6.560422529319372
Ti 7.515480440554747 5.889513315486253 4.936386461307504
Ti 4.872901712669498 5.892602414851374 5.631469076218419
Ti 7.908574368941158 6.203991980797399 9.434778910661786
Ti 3.9960336347253076 4.8641459874207245 8.099826607166856
Ti 9.380177204374759 4.6746373053772645 7.754790332291556
Ti 6.080237443269274 3.9180335414455567 4.332368784819366
Ti 6.678787403679661 4.513436706130224 7.3444777677372155
Ti 5.6898807483355816 4.95193825962265 9.93377458526784
Ti 8.504570270701693 3.4411531884478035 5.417666959950496
Ti 7.842275035769636 3.6436040490268025 9.702998675833673
Ti 4.279039531757258 3.3340239672986955 6.274035113915701
Ti 8.2185723662447 2.3097578508917316 7.70519065959074
Ti 6.394494413620801 2.018529508667015 6.0462561867320765
Ti 5.506389248567372 2.5843063495345096 8.616323086160357
