21
Energy = -132.21481596 eV
Ti 10.144239436902668 6.282303098811572 9.4977527530938
Ti 10.108073824092383 7.200431667115336 7.031506606000786
Ti 8.685871108808612 5.06989345297306 7.632959319957689
Ti 10.225934583494903 8.184590908266994 4.426234932167634
Ti 7.576490474872878 5.920950955744612 9.87229177456511
Ti 8.416529554175678 8.178708203857457 8.793191511012983
Ti 8.793514008388765 6.045391231058788 5.028738568461397
Ti 5.993270720833096 4.614951734835994 8.190951507860744
Ti 6.872027635968233 4.3672392404625535 5.701938327575302
Ti 7.8107802083972855 8.197446273881473 3.827768315597897
Ti 4.893479332946919 5.474131719073736 10.45084117578196
Ti 8.522380405222519 9.165566623203508 6.193863273666186
Ti 6.2452378839137355 6.176580852810444 4.110608599261021
Ti 6.7043422668650345 7.008798511232699 6.758230640358755
Ti 5.721912385216443 7.748782427858576 9.360006314667615
Ti 5.976423114101946 9.27924065209354 5.269676086141522
Ti 6.410231247701801 9.684521144696213 7.685353760261537
Ti 4.592245395511497 5.318917069069659 5.991887393673724
Ti 3.856143460092237 6.185475802277954 8.301787466336746
Ti 4.18578033011281 7.525145489743955 4.785581497739458
Ti 4.322233558267379 8.44400939931394 7.157643544347738
