22
Energy = -140.9335253 eV
Ti 8.721504306231921 7.590615890157793 4.659321113538775
Ti 10.158496316811375 10.781082721545928 8.081394468306415
Ti 6.110239935601561 10.19260290075316 10.107242851907264
Ti 4.974280863766456 7.6075438583304 10.130353956204518
Ti 6.976237859184141 6.555859325141144 6.386691798473377
Ti 8.681480074895713 10.751426262094618 10.029779816197085
Ti 8.620811292303937 5.669831408448071 8.652687127613023
Ti 7.066255236386279 6.228434297295995 11.146614555905227
Ti 7.520078159731627 8.16122093814183 9.469851289196788
Ti 8.22263389933057 9.22313918156906 11.811729562129994
Ti 9.468935939362732 5.639901797702097 6.211133399274259
Ti 9.079521144899568 8.192300020596669 7.251317272465056
Ti 11.65067034496828 9.054604731674768 7.429772798695862
Ti 11.108584884691247 7.53667284504512 5.529167136971931
Ti 11.098073235938411 6.588257959834931 8.017821022561535
Ti 10.353577697424184 8.688466573884583 9.742597475465711
Ti 5.621480735793888 8.628667155131954 7.693152770471409
Ti 7.5336364350370415 10.661787939398446 7.62823870922835
Ti 9.676004778579859 10.005589190794051 5.5538185196736904
Ti 7.076942255042766 9.127770017118616 5.604876988090599
Ti 6.111170644735884 8.35282853074211 12.098095529174511
Ti 6.068458212701073 5.996040998206447 8.703542206867738
