22
Energy = -140.80135688 eV
Ti 3.013908968019566 8.379016608242255 6.722624887823939
Ti 4.528437476735909 9.056906592378125 8.909340179795644
Ti 5.250444942384445 9.83489380667919 6.518062532812559
Ti 3.311430877677758 6.630998238577348 8.71093254645943
Ti 3.5497908250607906 5.716776160342472 6.088068537441938
Ti 4.57655846752553 7.968271413981188 4.702473919340483
Ti 5.2841124062913245 7.317401620437065 7.20854397044977
Ti 7.189247649397677 8.765283688773298 8.225972433863964
Ti 5.168766104272138 4.722841089479519 8.387452073613572
Ti 7.141906341750245 8.725463209257843 5.3951437074645625
Ti 5.7291344779105176 6.956658024696442 9.787988227532598
Ti 5.446797316374711 5.61911352074018 4.047671402557647
Ti 7.798674666380937 5.933065777462311 8.708696583116588
Ti 6.877319938842765 5.82548691873023 6.221363063321458
Ti 5.216465966793775 3.7337390627353346 5.901520985359681
Ti 9.005516418306074 7.511548948789181 6.613358195773031
Ti 8.318631008708488 6.499055635504589 4.160303886078894
Ti 7.4044308437628255 3.559108439979978 7.359365644269047
Ti 7.574924226415554 3.9286296107179646 4.649158497957934
Ti 9.410300283578978 5.085106346912769 6.318150047474788
Ti 10.964647074251854 6.529294468757178 4.646047233598392
Ti 10.23855371955845 4.701340816825709 3.717761443893941
