27
Energy = -175.69773652 eV
Ti 2.7095396296889165 6.285703882600192 4.45579415243647
Ti 4.5041742484387655 5.497900906900743 3.1834866174751553
Ti 3.8900697324211944 4.052560073676939 5.392110931273083
Ti 2.529679798001947 5.913492309286972 6.871474844456429
Ti 3.04370100209191 8.233657396498895 5.966766477703409
Ti 4.588258776350549 8.148870277972154 3.776700914727605
Ti 6.469729616280811 4.207502938360719 4.290958685856214
Ti 5.2288836104688645 6.378839885112558 5.786632251470454
Ti 4.337798541180206 4.8299721731401215 8.11467447693652
Ti 6.595511460915893 6.599798321107645 3.1579830890166574
Ti 4.049648487128188 7.717039724997788 8.163285096020891
Ti 5.957229866467067 3.4719376298371976 6.726525878155705
Ti 5.333402398777016 9.244032234274238 6.302391232123902
Ti 7.340806168987784 8.460226093054057 4.477059951872351
Ti 8.599942560234869 5.931541275826301 4.458553510656146
Ti 8.35152780320346 3.900396540104416 6.263011629400804
Ti 5.693378942778344 6.414446373112115 9.481925825019786
Ti 7.025440444077494 4.371028239349913 8.80160009307903
Ti 7.77309938940556 9.577185305177164 6.556005848091116
Ti 7.7987247383839895 6.67178813886039 7.165493888498428
Ti 6.514555235404299 8.75908893019515 8.738958219379937
Ti 10.258988311839397 5.470447704716881 6.310842034783346
Ti 9.8018696571312 8.077151470086509 5.900800215111906
Ti 9.443874030587502 4.6952492791466645 8.591152821794916
Ti 8.173951967182154 6.774100245872332 9.845373217943559
Ti 9.086918481024373 8.876848923742049 8.398583082716149
Ti 10.398277532965722 6.938176158407224 8.320837445417043
