26
Energy = -168.03449884 eV
Ti 7.479850682022596 12.156060157647218 10.514824062305632
Ti 10.294738930524755 6.139778665872076 6.388679859205278
Ti 8.859730490778553 10.998660355313508 5.842722890677649
Ti 11.365579043710108 10.205089849010779 6.528583076985447
Ti 5.978715220410051 7.750050571162521 8.535213876992037
Ti 7.2650527656698936 6.615911987882048 6.096533626100153
Ti 6.943882043240351 9.505826797115434 6.92041670282225
Ti 8.626815998418461 7.27929757193331 8.099006167644294
Ti 8.667179566845425 4.542763014733643 7.123474295238621
Ti 5.882151886134564 8.26018173839462 11.1430606925798
Ti 7.757360138794229 9.432300074407834 9.833269029977693
Ti 10.259167176811506 5.572846450368122 9.038648355868986
Ti 9.696929115941703 12.516161567648533 9.668337398660146
Ti 9.40076703955541 8.526220313814857 5.786689372931094
Ti 9.487040530086643 10.084259773570425 8.270296459684452
Ti 5.579863354289979 10.554561999593274 9.485953595930393
Ti 6.857032107549426 5.203591981963112 8.387489472260262
Ti 11.644324630507562 10.707383927813995 9.309021386186192
Ti 9.622847152410996 10.662841506253036 11.485074284253924
Ti 7.557218482738056 12.059834840271348 7.919788325386686
Ti 10.307471165102173 8.11918193963193 10.435187046692555
Ti 8.378719525605101 8.413494868195286 12.232309528967583
Ti 11.281243663645487 8.002623530132952 8.067927292693803
Ti 7.877821576938939 6.594751149585248 10.521564202331582
Ti 6.8094040931076325 10.47449063951657 12.049042504744046
Ti 10.38813869907286 12.40161151651689 7.405590906992889
