22
Energy = -138.10468067 eV
Ti 8.893252011637193 11.08502428004377 7.359673631439801
Ti 8.700934786365297 9.333634610026012 5.3672326621833255
Ti 10.661336055522845 9.362735872194108 7.467199554854541
Ti 11.728375898473145 9.08474582219516 9.96288891621764
Ti 10.545056114686467 7.000395006838221 8.768456849319572
Ti 10.201247501312157 7.247778246958703 6.222171686293763
Ti 9.937407666058679 11.068310834305615 9.578550413750245
Ti 6.71288379839188 10.685367365794582 6.6200344549972225
Ti 8.115552684286316 6.824972769289012 5.12998530939212
Ti 5.981609200526154 8.407209761957443 5.58209497795344
Ti 7.7523610285198155 8.06193372653297 7.645149642682013
Ti 8.721485862341028 5.350148757336113 7.345356368431916
Ti 7.085245828562798 10.682263447243782 9.229735996565363
Ti 8.963017811074236 8.999398056027346 10.150695796452766
Ti 6.29531911120693 5.770455283416573 6.319666891109999
Ti 5.211463357092177 9.424924394408581 8.044327021911524
Ti 10.914593646716503 7.63517762945697 11.437396376860274
Ti 6.2828041745003205 8.0524891466466 10.060072289674338
Ti 8.60062648514912 6.565924333479065 10.054192687628138
Ti 4.843507915505402 7.151309194257821 7.822213475998768
Ti 6.615154747903803 5.59916177465675 8.932851865682462
Ti 4.724639317835882 4.276150742156314 7.948622007485031
