20
Energy = -123.29033212 eV
Ti 9.725681615903667 6.324006881654297 7.931875448666021
Ti 4.9170956776063 6.575004957681243 8.53164300996876
Ti 3.8568423630914115 9.21098428946784 5.486862960041113
Ti 4.541593128192499 4.917426204784151 6.600724572475607
Ti 6.798908601352663 5.1609644873706 4.857949430050736
Ti 7.882323498920715 9.91935955602269 6.2924683242272765
Ti 9.808476049382522 8.928868555173024 7.66367829551919
Ti 7.358447501254724 7.910578920215269 8.32977433119812
Ti 10.399822828949834 5.476333321864807 10.33725057748345
Ti 7.10730047026765 5.178612665084286 7.493169339483807
Ti 6.161750860537933 9.159596295303135 4.609071607810695
Ti 7.805513109827643 10.469302185084974 8.64780344957727
Ti 9.108519492215922 4.663119547307218 5.940669516621534
Ti 5.683204321468562 7.160137300280889 6.183499538612896
Ti 9.33829201224699 7.998416227447986 10.041819255636435
Ti 5.399661497555858 9.525366205393116 7.531984803634268
Ti 5.490084578980063 11.310479429287472 5.9400550517112825
Ti 8.348217683659644 7.22370711143207 5.7009761942203
Ti 9.219565527854416 3.9242866819109126 8.779861773960816
Ti 7.9187120422942145 5.833462038797506 9.968875380664203
