28
Energy = -183.74550541 eV
Ti 6.153719750433729 6.135731367750225 2.5466984100992796
Ti 8.398824508765372 6.111078774144097 3.770768998881535
Ti 6.938156021399817 8.494762139101486 3.5949484942696532
Ti 9.355770636181905 8.171686376065297 5.320440959766068
Ti 10.314334764846878 5.641285833943029 5.454751464728215
Ti 6.201024697914089 4.199005572687822 4.417633119377162
Ti 4.333157437752378 7.828294763199085 3.0465438559018763
Ti 8.588419399338624 3.8336143762585686 5.29728182655529
Ti 3.9334075549341643 5.341930219116481 3.6486367059645635
Ti 10.478888128865986 6.90091644437 7.534725098626509
Ti 5.670799556459514 6.771093464951934 5.111709830930755
Ti 4.745794604982288 9.321991497178848 4.915390161497527
Ti 6.86197279043928 9.1669437517199 6.33295454226004
Ti 8.013462014689258 6.307303236385373 6.602371230229016
Ti 8.840281420660986 8.72944534698129 7.819100254427894
Ti 9.376673685287482 4.450590237944843 7.770172770161801
Ti 3.076210638068727 7.194056536702076 5.394016955084129
Ti 4.303240191243675 8.728288755774923 7.425854007480824
Ti 8.569724968900056 6.639482797356654 9.402117830968171
Ti 6.538673542526372 3.668221819663439 6.999394318536177
Ti 5.677992708292748 6.364937656387174 7.827426824323409
Ti 6.522952776691821 8.55687776609198 9.087572409011464
Ti 4.053290348859589 4.567048514445542 6.1545734847177975
Ti 7.185570772103889 4.38763854204782 9.259450365418607
Ti 2.9789745872286737 6.281279901400869 7.804687525754624
Ti 6.1803714375810035 6.252832270806261 10.520570946619433
Ti 4.125418751450819 7.296310919052699 9.70821974796918
Ti 4.517230297711199 4.591689112083652 9.16632585404962
