25
Energy = -162.78380338 eV
Ti 7.572814537387058 7.158882042944442 10.222163694071181
Ti 9.081103418936339 6.0720428870871865 8.179925479031384
Ti 7.8188065550106165 8.793154664123836 7.9418307955354175
Ti 7.375549862134132 9.662159191077283 5.4629818441085725
Ti 5.152269818049429 9.509170557808554 7.160020386636493
Ti 9.733338371416915 4.871056599201171 5.926692784671362
Ti 5.505795155067699 8.494398671114427 9.499132871882377
Ti 7.2481999968551 4.649205477399865 9.66392463252397
Ti 5.127862125850438 6.006500843836346 10.15497920439215
Ti 7.78956054838695 3.539140759540043 7.4233326790143535
Ti 8.997246125216996 7.534435783015567 5.723566949464717
Ti 7.212958611299901 5.426865724149676 5.786668506023789
Ti 5.061073848430131 4.2761064326650295 7.9480487271035765
Ti 8.751115836093906 5.690652943186415 3.6656987756378903
Ti 5.850154277616518 7.540126389943499 5.678787259948789
Ti 7.159528947459653 7.796876282663666 3.4592696521768564
Ti 8.046084823946185 3.3681285806739916 4.615389119615729
Ti 5.11838038322816 9.533304101897361 4.3349776056667055
Ti 6.436858153755495 6.533640215311578 8.025873410260274
Ti 3.7936233653659155 7.011588142974974 7.94512327851364
Ti 5.70605162673591 3.2921777671062102 5.567268743032622
Ti 6.081129948835434 5.049446942635591 3.490013257049194
Ti 3.3273323519131 8.099582098719688 5.5871452562258135
Ti 4.484411058161497 7.163044446393885 3.4565515639802715
Ti 4.069200075686381 5.428762277369287 5.581083346272309
