21
Energy = -133.62783998 eV
Ti 4.622664559458554 6.629040767085346 2.3494250605410034
Ti 7.3483698569231555 6.809519373802846 2.782863827091212
Ti 6.268387813058956 4.738733145710016 3.0361430087516093
Ti 4.320931954597263 3.3872634957719554 4.1032317658526205
Ti 5.601463668307593 8.027213545694645 4.328705083225393
Ti 2.897693195424746 7.98304866324057 4.020825330078697
Ti 6.8833779236535415 2.8224177472116265 4.479355706938613
Ti 8.008175386631278 7.350561834392451 5.14658478273985
Ti 8.512547441214013 4.76253489849851 4.660516478653084
Ti 3.6976105634075425 5.8719379380425165 4.790202642429106
Ti 1.8846182749291487 6.652251592831538 6.272852856366516
Ti 5.27396688861698 2.291129883371082 6.242129610932833
Ti 3.2402076705771945 3.976384240014623 6.515190462393269
Ti 6.035467438915501 5.103384000428889 5.902595508098586
Ti 8.507471565982263 5.908631962491222 7.001297155467022
Ti 3.927311214666966 8.192226256950825 6.34005265071181
Ti 6.367221362551028 7.600324699673092 7.138331493548746
Ti 7.626704495602797 3.3908101901278282 7.0554357395357
Ti 4.119615425233948 6.1755490045301125 7.911562398963792
Ti 5.076052387174405 3.717085944474568 8.228076316031142
Ti 6.67238137396267 5.502191276544773 8.586862582538613
