27
Energy = -170.57997179 eV
Ti 3.1595448197561478 7.956755025459789 9.821817577417495
Ti 5.075870806846875 9.140767636625773 8.713972149551326
Ti 7.279435170895179 9.700991488487308 7.067528419859343
Ti 9.615440654218052 9.69423335161247 8.367124661033138
Ti 5.593752957745679 7.133793264984262 10.412601653228153
Ti 7.686578411676444 8.016942550194804 9.23489147531975
Ti 8.462498286077373 6.000526305853266 10.994508859289981
Ti 3.0443401591405332 7.9421490869016536 7.293962285987849
Ti 9.381428839519895 9.501030801851842 5.1051595171911535
Ti 4.775268549517337 9.123805378804299 5.930281427281807
Ti 9.125129286107395 7.760283866577149 6.93381081172439
Ti 3.9866386505395526 5.841416206232951 8.661037342861404
Ti 5.98487693577207 7.0449452706956155 7.23572447857761
Ti 9.464704341084996 5.956532479692958 8.945746580626565
Ti 7.145482924783645 8.010051001614626 5.016755027675141
Ti 6.743417291991989 5.172288250133381 9.210383012321582
Ti 8.348578178155396 8.733845030353026 2.8504134763510933
Ti 3.8834540208193316 5.956745631219792 5.92949936902736
Ti 9.44147485886005 6.865594993636385 4.322420227060427
Ti 4.830542992403347 7.459225577530421 3.9345116997046135
Ti 5.716861177743369 4.147790998426611 7.067062863051785
Ti 8.202748512671034 5.301519696566398 6.567703551397661
Ti 8.19037090007869 3.3974888882485383 8.241333431333963
Ti 6.192528567208368 5.2544302773021485 4.698029293350588
Ti 7.35926199057254 6.450825148492676 2.7347185053321383
Ti 7.430571762178393 2.993799247055312 5.459142038614222
Ti 8.686614355827901 4.258465542218834 4.069701647843367
