26
Energy = -167.83105217 eV
Ti 7.040365472536948 8.613921602831876 12.750134980159448
Ti 8.695178469611639 11.841933902449973 7.270522199731922
Ti 9.471478654279913 9.824737615257602 12.548570786243907
Ti 11.263558297965389 10.96657789035846 8.083429116379044
Ti 6.98700995161906 8.083957306282668 4.750041425782774
Ti 7.14652348231653 10.615261715711663 11.371699640632078
Ti 9.619284119347531 8.191295560703505 4.082281438522311
Ti 9.237532216817318 9.378933845374073 8.318849519978123
Ti 6.551013954536556 8.114376605589227 7.81623114714493
Ti 7.05802697694299 6.265589931399512 11.635327668980148
Ti 11.263081199115575 8.365067303062508 6.730919716520719
Ti 11.10807030895594 7.7912383685034285 11.319985567300112
Ti 9.136061668720954 7.171657839659037 12.979844339975218
Ti 8.563103825641072 8.311276542769438 10.597165334265874
Ti 6.893258217715151 10.036840055491862 6.5339903653914835
Ti 10.239997844868336 10.248480263651919 5.768954907086195
Ti 9.136053810506416 11.579240608044245 10.058944788094434
Ti 9.437015127722088 5.690911536433714 10.865680716660545
Ti 8.18564594197816 10.316346069784496 4.5034380114931265
Ti 5.89307325866308 8.317430941043579 10.344868659123431
Ti 6.771867129514913 10.67070759319513 8.962377901498696
Ti 12.013103104111618 8.54857865901199 9.010742716830077
Ti 7.572036917448176 6.22488530447573 9.090794989433888
Ti 8.799088416644572 7.551528571167762 6.375140789974998
Ti 11.185194278895487 10.27811063625993 10.578439114446452
Ti 10.269458016352504 6.619454851124559 8.705979720337325
