24
Energy = -150.83872708 eV
Ti 6.810087354022686 6.702772372556548 3.971472230563292
Ti 6.759988747418267 6.7636787953480635 9.600580567085872
Ti 8.215988790387707 4.855088293304711 5.126131655467053
Ti 8.15028423765039 4.850323781574268 8.521930359872627
Ti 9.065891151766138 7.426592072237753 5.193829632675683
Ti 8.958261653184302 7.507728473085457 8.383247633779028
Ti 6.672003973699777 9.085317217090749 5.145886863571954
Ti 6.6925450849045705 9.075281746256184 8.346869072822756
Ti 4.561834925929654 7.395165577898443 5.059462253267115
Ti 4.505038412703041 7.3682129323309375 8.457006104061088
Ti 5.430518244635516 4.747246427047893 5.156573514831973
Ti 5.401784216313216 4.781447998675198 8.43006736631623
Ti 6.73643352050968 6.663682671310856 6.761809386378765
Ti 9.50763757860394 3.1833795467073007 6.852852089400668
Ti 10.039004697875068 5.661455176487337 6.825241085386113
Ti 10.886993220249286 8.427480907735852 7.197409570757223
Ti 8.82253875403761 9.675664071815095 6.335536001636639
Ti 6.905329396788803 11.186315160380468 7.120041512700516
Ti 4.632686880166257 9.412225317500543 6.729887991140193
Ti 2.5074275183116135 8.060653042775321 6.7435522420856655
Ti 3.541643527545609 5.627258307313378 6.754798520654249
Ti 4.19955826672646 3.017788568921441 6.825026755805752
Ti 6.8733446443330495 3.3095188211303914 6.825591916790223
Ti 9.139080281032431 10.212097692376528 8.648046089233313
