28
Energy = -180.62861635 eV
Ti 9.141011464526528 10.670426550508735 9.37457384736095
Ti 10.288777217557742 8.947678307851925 10.504197098978233
Ti 11.034033726075105 9.426764627988554 8.023198219661182
Ti 6.73096960888201 10.610736218826549 8.642034071918587
Ti 7.681578132985136 8.541809767355506 10.578262609805538
Ti 8.786851874598538 10.656988018420657 6.740326182786112
Ti 4.378913765511364 9.926994464753223 7.947369385928274
Ti 9.586902425368674 6.5057513366121515 10.012778727862873
Ti 5.011409780308654 8.221854937729594 9.187429284686603
Ti 8.812289162563971 8.246811317747708 8.186545639443642
Ti 10.140095395505796 8.470885557058242 5.775162260753929
Ti 5.933212463305308 10.441899622524602 5.8160839580444375
Ti 6.903628919406813 6.444813504338258 9.11423339196452
Ti 6.644488837967654 8.56069845122879 6.978876324457647
Ti 4.166553169167238 7.9800739787100605 6.321498374770355
Ti 7.449065118684111 5.057073201788623 10.943157355970657
Ti 6.01573921238098 7.732236719942453 4.243136188537652
Ti 8.809705890697332 4.511893522054246 8.631373942090981
Ti 6.840298301850127 6.044307310890648 6.491802719677862
Ti 9.946075353464002 6.059860742051542 6.928926248751007
Ti 8.06988640550655 9.140127907540647 4.697888088611257
Ti 4.472830976203432 5.600497587360322 7.769334220552573
Ti 4.41585250015158 5.78871046165916 5.10818546719411
Ti 6.5038811006895605 3.8796963140725436 8.30548721263175
Ti 8.632283228933206 6.5496937718777914 4.556725974102188
Ti 6.597490348095732 5.06064862762242 4.011004235350277
Ti 5.556099997552327 3.750485830134553 5.985945923115862
Ti 8.294767418184994 4.031011068227743 5.966882409889461
