22
Energy = -141.98527408 eV
Ti 9.862600775895286 7.691853916879171 9.666173129490918
Ti 9.480497599617442 6.274665192336044 5.638865056084038
Ti 4.652858230956365 4.81111189702847 7.5969618069706595
Ti 7.170891104748998 4.675897684701648 6.3200808715675505
Ti 7.519881240200635 6.7025106204831975 10.284453321737072
Ti 7.032989562157224 6.737902135555298 4.7239479706122545
Ti 10.9416609853826 7.358401265704565 7.552672222867987
Ti 9.131579286677491 5.481274128719122 8.26827546914517
Ti 8.336385390208026 10.556296198317115 5.977882545349371
Ti 10.42869599727488 8.981695133770748 5.724354589541345
Ti 8.305477825293726 8.558359948524728 4.460192127254311
Ti 5.56313329685607 8.711503708347127 9.347366624957006
Ti 7.005805961062304 10.445738971961958 7.9206630714919015
Ti 6.439383386642138 6.751133008084699 7.738032498351365
Ti 9.887818672594591 10.02094122119254 8.195044853546442
Ti 7.969351343367807 9.296233053895511 9.930770600302134
Ti 4.941596568850757 6.1961861166176675 9.812562645728603
Ti 4.940426939956219 6.275508131414464 5.589931594046979
Ti 3.921114927512009 7.446025637867462 7.648203889969416
Ti 6.803567274315068 4.476339676265007 9.016099063015186
Ti 5.860063065036669 8.900354627578347 5.914822935578378
Ti 8.421428014492221 8.157878715951364 7.266519229245519
