27
Energy = -174.09889248 eV
Ti 9.434675420171164 4.587638104902162 7.7195246597110945
Ti 8.232943817472547 6.5825878558769215 9.386182928673767
Ti 9.446030599112975 3.527090599822228 5.431275836459916
Ti 7.533507189274793 5.929316387126868 6.369962249362338
Ti 7.1638626456483 3.2844117954698686 6.631242347721246
Ti 7.158739973958342 4.359990708344022 8.947453731042582
Ti 7.003009723664729 8.447799342778197 10.413358328889164
Ti 4.972541896118056 4.961033419101316 7.697690337589725
Ti 10.029963688123804 6.2079433163905025 5.312860225686338
Ti 9.909178109619658 7.113482103976798 7.626879856277502
Ti 9.85643321712723 4.717320581696988 3.3487657482563793
Ti 7.421843888506466 4.556194693007706 4.0002659203291
Ti 5.457290845318951 6.349338098665505 9.87709981788694
Ti 5.256111313933331 4.261326251080587 5.24333055972499
Ti 8.453239739262655 9.245407146394415 8.339351735824481
Ti 8.695504447467844 8.636163467152581 5.777359761120768
Ti 6.046983019336985 7.995710465170001 7.690797659111185
Ti 8.230559141303853 7.057605928253397 3.6490006552153726
Ti 5.644423263183128 6.663932389594096 4.299123855139565
Ti 4.5685993924464166 8.804591136910783 9.993284957915536
Ti 3.4939227620861186 7.314957400871205 8.190155271331953
Ti 6.276849837061377 10.477274707751652 9.09757937216449
Ti 3.703588139099068 6.215284994995471 5.887433941139439
Ti 6.6304979266593165 10.379257579616345 6.567751422541374
Ti 4.315095894630353 8.755548115447814 5.684888213912542
Ti 6.535530780969058 8.99417097425094 4.470340058290797
Ti 4.145688964718133 9.993182437561257 7.789531496676348
