27
Energy = -175.35578329 eV
Ti 8.635384788486874 9.023987126130208 9.422815491912225
Ti 8.51951978302115 10.810674888237502 7.299291713396949
Ti 8.05094293388299 6.135016454789976 10.38084828709033
Ti 6.105039342636092 10.063356665645076 8.371648445320076
Ti 10.238744679308112 8.960333416544099 7.220182196864761
Ti 6.292906273865557 8.216424246895382 10.140517991404817
Ti 9.680524001880785 6.604958263393591 8.178120130367608
Ti 6.497470216627569 3.930613238904133 9.663121722446537
Ti 8.655321460006723 4.227020070916258 8.550702858953214
Ti 7.603706629593448 8.443410238370676 7.159319148009297
Ti 8.85762792263999 9.355384272125471 4.833568292803002
Ti 6.525612479811967 10.481325391831918 5.7388593493895685
Ti 6.710139058266436 6.0816488566056295 8.123459397890764
Ti 5.336194788434733 6.029449366961122 10.443542598740319
Ti 6.449269087838573 8.942725945723597 3.72318545029427
Ti 4.828129748952481 8.648884294472346 5.901817078592215
Ti 4.389015993428507 7.569799067446808 8.461808071533463
Ti 9.963342381065393 7.106676764371858 5.548161762996871
Ti 8.860730062844953 4.859906288902345 6.116546782626385
Ti 6.477061894946214 3.7075660160048285 6.882394043133627
Ti 5.2524964400541165 6.70180291620335 3.733991811455615
Ti 4.352109710943831 4.721637384819497 8.322368801782062
Ti 7.169003223652374 6.948701835491515 5.482769540789109
Ti 4.517623264750324 6.029261063587721 6.177476304777257
Ti 8.08328212453021 6.896354698195155 3.3555377872087977
Ti 6.664894484333469 4.6037199693983 4.440890660192329
Ti 4.23806029204891 3.8336888784629393 5.269458831852989
