29
Energy = -189.94110228 eV
Ti 4.671818116167306 9.318761349060367 8.913049842439099
Ti 3.1622801816531534 7.0481318502425285 8.886727616061115
Ti 2.9304697207368933 8.859764346096357 7.051443532739184
Ti 5.760886908589929 6.942656445773583 9.88439631336884
Ti 7.341294835770854 8.605437090925529 8.328405174509625
Ti 5.307869241528589 9.916046922784014 6.32073364028481
Ti 4.848139754651476 4.86482824502631 8.297125762817947
Ti 2.8885086091887855 6.273990090837683 6.272859538128683
Ti 5.142294363690366 7.379186080308406 7.330531015104001
Ti 8.033233961108865 8.476147161168397 5.863909603316819
Ti 8.533406779587871 6.737316670814685 10.069465684000916
Ti 3.5727274200559522 8.468818618251424 4.602266199403666
Ti 7.322992567074524 5.914193151244187 7.990221575775047
Ti 7.031645587521436 4.46628432573771 10.054937653793795
Ti 9.391623745521718 4.5415602158264425 8.99955115230095
Ti 3.7528713201194166 5.771556604578482 3.9010600825254382
Ti 5.748626403218899 7.039408954596038 4.961424123745482
Ti 6.134159782571804 9.380709750709537 3.9452747515615245
Ti 7.818273096348325 5.654518905393172 5.586684148480267
Ti 7.470960067818442 3.2074688917921996 7.657921902799936
Ti 5.276801632552358 4.353888010334436 5.820944721371506
Ti 5.118350060795416 7.476178486384688 2.5541725318921458
Ti 9.892135481805273 6.8471576193015755 7.693408652530627
Ti 9.843093095357036 4.262907974838058 6.493191039514166
Ti 10.13514670685644 6.7005715884629895 5.142194929763965
Ti 6.384982176659795 4.944296859157888 3.4599038385083047
Ti 7.93875259573115 7.274033334583517 3.486005112145208
Ti 7.712723763811131 3.111551209253271 5.097475496389208
Ti 9.322075521485635 4.650772744496221 3.8228578627071483
