24
Energy = -152.62699063 eV
Ti 9.345221332696363 11.533903660694168 7.745286125720359
Ti 11.223589620231685 7.101748995282928 10.241398078569025
Ti 9.302842970271595 7.904480418347527 5.121864726730037
Ti 7.286333371276893 7.226745385862881 7.092608151103263
Ti 7.673716983412269 5.701544355709625 11.263827238886703
Ti 6.286214394750387 4.934743450507804 6.673094715404634
Ti 10.323181262613534 9.469865020793721 9.330630204174865
Ti 10.176311775469477 5.267918358070898 9.74042659909594
Ti 7.888105007921169 5.06424093512747 8.757700767929935
Ti 5.836819005311475 7.21398894549521 9.208537116335103
Ti 4.681544225371154 9.362341086380022 10.201180913109953
Ti 10.910766185836492 9.579773251839617 6.70093533869046
Ti 7.111551558346699 9.744479747734422 9.425933125603832
Ti 7.037541321632891 6.400681638844462 4.639435296701281
Ti 10.30476375784646 7.121322836684581 7.676409816975371
Ti 8.934016195005187 10.651920863777 5.301267225132334
Ti 8.473522931846617 9.23162685282907 7.421423099396704
Ti 6.4631753142913535 8.351326602010326 11.519747166728122
Ti 8.588565268951633 7.511897170217458 9.8811130136344
Ti 6.875299322224994 11.240955917620308 6.870378268775556
Ti 8.888721804469155 5.344990758476927 6.210940194945192
Ti 4.9437219730289055 7.109356656177723 6.141284977258163
Ti 6.702797477152199 9.08654061060552 5.088894431849073
Ti 5.30056493808632 9.310168894114316 7.42743336106633
