28
Energy = -179.04124882 eV
Ti 6.6487204016937 9.63263676342975 10.290472170922204
Ti 5.930653182974286 7.7478293365997795 10.792602432060182
Ti 5.924679295935915 8.343208691428133 8.074228919283318
Ti 8.391752258538231 7.702129699106252 9.112078717549954
Ti 7.883530110002095 10.061544968654433 7.851814625515092
Ti 4.200878964445804 5.4921496321525884 10.715317706233018
Ti 4.1017235702208 6.654343585165229 8.43612632734341
Ti 4.557971835316073 7.772151942293098 5.679113760638611
Ti 6.426265422421786 9.864860567506286 5.5325028483513154
Ti 8.03889254715787 7.792770225129508 6.348134325563269
Ti 9.145993347244922 10.139391174398359 5.463781212711594
Ti 6.442745896884784 5.661435646954175 9.465263430907484
Ti 6.156672292406182 5.73309930247562 6.652340323759554
Ti 4.679073825255117 4.131996927115903 8.290545804127268
Ti 3.4989241582361372 5.203407681428074 6.041831341498711
Ti 5.757602809786561 8.409657922002364 3.492611225297754
Ti 8.67383808410846 5.151076236981397 8.251972677633267
Ti 8.193874625045071 8.990741267176322 3.6537146946844303
Ti 10.263096962645237 8.941258002149874 7.333740681582744
Ti 4.768314488433269 2.8609154167482944 6.079214918188232
Ti 4.7621822024845555 5.904774995666112 3.838673948566252
Ti 7.383418082502561 6.516686104974893 3.9664930749753955
Ti 7.164623436331645 3.3688265124139525 7.061323064780747
Ti 10.130497283202796 7.619417686677774 4.853191984836837
Ti 10.366365074885518 6.556918550248318 7.281924286775154
Ti 3.871862503799573 3.4626916482736685 3.971228126808263
Ti 6.4984570861905935 3.9488559539365884 4.4914906096824145
Ti 8.858580525812815 5.057094228430221 5.70577596791011
