23
Energy = -143.42544693 eV
Ti 6.020799598978752 9.85855407837399 8.401599778887965
Ti 8.09605912307303 8.749176104264063 9.196629360146133
Ti 7.428414822107189 7.6295466870133914 7.036068348992325
Ti 9.776399240300789 6.986993119492164 8.735226831425978
Ti 3.6011655626384487 8.834729316592105 8.645557602236464
Ti 7.316585623064263 10.06229603342109 6.347935140609032
Ti 8.57157430573763 8.856658918521212 4.605388290026697
Ti 9.865915396521281 8.110120405769106 6.571130547784893
Ti 4.654969394693812 8.551872180852454 6.4267966571137
Ti 7.377350064661281 5.817046925969124 9.402653060664893
Ti 5.438989519501882 7.298732248729408 9.232085068546331
Ti 9.39383246256438 4.409544371565902 9.14925790941417
Ti 5.974400665871977 8.017428095123202 4.467079593270459
Ti 9.095691071114256 5.161133019279117 6.815897833036286
Ti 8.459346005676517 6.124448114918347 4.681778873485483
Ti 7.555496847898167 7.297127598884332 2.700527172474209
Ti 6.2591530618026585 6.0534148571318775 6.651955265723522
Ti 3.384572602142082 6.462747561266456 7.635829903130234
Ti 4.976705807469673 4.547916353998281 8.153696814706526
Ti 7.281287833962969 3.4892667585261217 7.979992628342416
Ti 4.158453091525392 5.777599640657836 5.335937334951062
Ti 6.034931949961083 5.416865705912956 3.671220570474923
Ti 6.686308176658645 3.854400483260562 5.5570052755782795
