27
Energy = -175.04030765 eV
Ti 8.081204697209445 10.208075492802772 7.558744464233568
Ti 8.201522234808156 9.926983657637592 4.995399512131211
Ti 8.770336901462795 8.270530194689165 9.185999037659306
Ti 10.00250201224367 8.513906887305849 6.503572454859815
Ti 5.748339291039006 10.031350045185938 6.319069023187
Ti 3.4657754556284384 7.472207400570546 3.6607626973397736
Ti 6.272160930376399 8.196261744145481 4.045534135071913
Ti 6.146404567010787 8.748197070816689 8.770569885037695
Ti 7.529243057569791 7.905437039909463 6.434033091646252
Ti 8.895783941906227 7.5641729674115155 4.191963588191908
Ti 3.314071217380372 9.11201181113451 5.225396302049909
Ti 3.7820567577469912 8.695000828226963 7.677095501725391
Ti 10.583348848200972 6.700862761559627 8.138740285230854
Ti 5.084829709639812 7.237888832838546 5.9010572510654065
Ti 9.422833544932681 5.9132981528226445 10.186800702747158
Ti 9.693705021581444 5.682383091993635 5.890960716968932
Ti 10.069018839488994 4.301332844953024 8.206023933282783
Ti 7.730252671354182 5.815277799602002 7.947282692771932
Ti 2.8756457238318944 6.519116868841541 6.103743003322382
Ti 4.571129989355316 5.504063477238268 3.9294737374512647
Ti 4.810087432741135 6.295081693778211 8.468732837745831
Ti 6.8081429716172 6.34013503886432 10.302283411983309
Ti 7.257604290580031 5.477982818705813 4.827536724714712
Ti 7.909557692520601 3.487165659435027 6.905079911473008
Ti 8.088455432054253 3.838776693108499 9.703047051430739
Ti 5.398769056998223 4.643181651787456 6.443614352330063
Ti 5.9123796507037545 4.022343249474995 8.916268963419583
