21
Energy = -133.83610481 eV
Ti 8.545859776300015 8.398685350793642 5.919855629963918
Ti 8.379459635681599 5.470090063808796 5.577194801967669
Ti 8.867849638185527 6.526678740228886 7.8122387037118415
Ti 6.689260716154071 9.991295947752617 7.082095345172909
Ti 6.334671026327043 9.240328688021448 4.715239147250872
Ti 7.06257497570442 7.021557149914334 3.9526134980798076
Ti 7.847348088560865 8.564035030165616 8.606385583471594
Ti 9.353535438387626 3.0498731283094145 5.322063244275622
Ti 8.481389241074742 3.955614157362253 7.724545908138566
Ti 7.8612614867919755 4.08095529001511 3.543695824633864
Ti 4.375211989948126 9.421187530067144 6.331788185820035
Ti 6.110324140595154 7.219779892013722 6.731139847504703
Ti 4.419534939180142 7.337154055521909 4.591720779418871
Ti 5.109047644250985 8.60994022924746 8.852709600965932
Ti 6.827315056946064 6.431572610589867 9.439711216432672
Ti 5.62089236351601 4.975080806144128 4.5285763895040265
Ti 6.888930255793762 3.072953998975048 5.751549660841563
Ti 6.07856781134498 4.4353500492749385 7.773953611923234
Ti 3.286325603784545 7.4743328450997115 7.12937408197483
Ti 3.9207103743946417 5.199787815688524 6.352308999325161
Ti 4.436492907149521 6.020309731076661 8.757803049694253
