24
Energy = -150.36562486 eV
Ti 7.560946720120812 8.538793355578177 4.182450756819612
Ti 5.36743041143967 8.905962191318103 5.430951205326344
Ti 10.045967359158194 8.498451459087802 5.340812843828521
Ti 8.846932258820686 6.318745783270881 4.713580399009487
Ti 5.191376592530617 8.586862021536918 2.8303428621535427
Ti 7.945325170434467 9.18188900527268 6.714963389589946
Ti 5.3238843916427205 8.772525484037276 8.19594994450464
Ti 6.135150088871597 6.34375657566915 3.810752695543427
Ti 11.134230550731093 6.2936286761345155 5.81599834838932
Ti 9.623499199176168 7.223722718660279 7.618449359393354
Ti 7.581378886338042 7.954733307695409 9.049010026990862
Ti 3.710862865983836 7.334103772418655 4.167794329119496
Ti 6.728265919944115 6.646512583442011 6.710559388974121
Ti 5.239536344857155 8.440705753967578 10.798360427321908
Ti 3.97189479241703 7.022516928141344 6.928329089373963
Ti 9.288588936058439 4.637866420597102 6.7995504672695235
Ti 7.152613641158549 4.15285949292235 5.49683652160268
Ti 3.3919963825548347 7.657868583276703 9.591847638739186
Ti 4.5930490194918985 4.938548107777137 5.197904036451803
Ti 8.079056952394192 5.388780467147176 8.8274697707137
Ti 5.649322452305871 6.278937085115112 9.376004719211855
Ti 4.722568291330712 4.678140638263959 7.686917494109679
Ti 7.013372012544413 3.2085338936628984 7.933438837507595
Ti 5.291552909323598 2.566573686460344 6.374867434482486
