27
Energy = -171.66449371 eV
Ti 4.156286289858237 3.7704574384057814 5.535719849972662
Ti 5.859145382406344 4.862644479500542 3.8834125051257793
Ti 4.023775970252911 6.451643540767005 4.906497919866359
Ti 5.584828378140198 4.686936040814262 7.174880477655377
Ti 4.664183014641983 8.943916255953125 4.830734634850791
Ti 6.154348364709813 7.333202897609184 3.2300390830480596
Ti 8.607939833860058 8.304420943865612 3.6966024732929017
Ti 7.446759832813334 3.846131456625107 5.546539696564416
Ti 6.5824413451763215 9.918185465315016 3.2555086614845488
Ti 8.458300064784682 5.700121798473828 3.803722728602938
Ti 2.5700498524690514 8.270644915574152 6.707927781249971
Ti 3.3036632978669456 5.969383870338821 7.439392399948898
Ti 11.044661028075273 6.710524403953844 4.767744171875454
Ti 6.834157656493115 6.696143517382541 5.7927317948624175
Ti 9.847956336827105 4.903092699822504 5.891652798245847
Ti 3.5750324298351757 7.583070944613215 9.403032634519995
Ti 8.293203239114538 5.350754421136174 7.811705075263478
Ti 6.664915909218752 4.343338400871985 9.850796886929368
Ti 4.196160826988853 5.004523252233287 9.67022717591945
Ti 9.33888222992049 7.8680402367061735 6.044271018066217
Ti 8.230464742104687 8.080342523483896 8.177030972669446
Ti 7.15989775413533 9.475586035201882 5.62741833184636
Ti 4.990067582422758 8.340925074948059 7.218031859251022
Ti 10.596527560608044 6.622277871671717 7.766982302028818
Ti 6.079470983697705 6.704561803733725 8.790047619243754
Ti 8.300630131612063 6.2738138786948126 10.251499939220073
Ti 5.751666208989688 6.314671089648676 11.26605339751676
