28
Energy = -179.43197831 eV
Ti 8.18799068696349 4.9216702377362775 7.023825041448983
Ti 10.055575066206135 9.599244676827462 5.643451444129452
Ti 8.458772993300643 11.440342582135747 9.212955541987467
Ti 10.582623313145673 5.697009260797732 8.006810546924587
Ti 7.387008107266077 8.798311702642417 12.407547949937001
Ti 6.100972066384439 6.67543876606119 6.24101037742763
Ti 10.235689540095008 9.89261211053184 8.325809982026005
Ti 10.334254112093703 5.938335869815411 5.509690537255344
Ti 7.075600430568932 10.961948486135935 11.188375353700119
Ti 5.854814021648591 10.678095575474755 8.835027917292482
Ti 6.371495776166789 5.779011698830453 8.608557479654785
Ti 7.924639786323261 10.587755392961935 6.967260071216055
Ti 6.455438964259498 6.701664013421223 10.991585292499233
Ti 11.574887729234758 7.9188662474543055 7.154377448297783
Ti 5.2137549671375805 9.13354324198111 11.001878066156957
Ti 9.471190500391165 7.803202367218942 3.8386193914902558
Ti 10.55469101512534 7.634203309604976 9.710615811206184
Ti 8.672548698591303 7.5728633925369095 7.036452382636297
Ti 9.609483010530965 9.855717787310482 11.057809692747577
Ti 7.670704173783083 8.698968158853049 9.536600832870162
Ti 9.052087616707752 7.260010299210916 11.617846751172083
Ti 11.812590121142113 7.983726198005974 4.597482900785739
Ti 7.3838826263040955 8.795983579285856 4.909527620436536
Ti 8.675240762789727 5.6764781101732895 9.683747076251938
Ti 5.001514564115429 7.886942344922496 8.784170660822705
Ti 5.314182689371456 10.456348363443132 13.287910825793043
Ti 5.829029746291857 9.170272861576578 6.818667061654155
Ti 7.888158306638713 6.114788530439764 4.664553987697882
