25
Energy = -161.97105025 eV
Ti 9.056617481328567 4.081954603188069 4.455828230319696
Ti 8.993520696674635 3.3654708017986437 6.8987817190062355
Ti 10.126100970319792 5.816308153870991 6.414739952676038
Ti 6.941126687523989 3.0014173009242566 5.417241352510556
Ti 9.016682912113088 6.427196092243867 3.8994542071747174
Ti 6.500311459889783 5.065831704948576 3.788980327718467
Ti 8.660810389773344 5.01778721517063 8.651304787298507
Ti 7.633397302604211 5.613001386265976 6.121396369695292
Ti 8.403429370952814 7.428962883495211 8.228859766676877
Ti 8.905659364828502 8.149814550542827 5.658339251916843
Ti 6.51149985119144 3.576703467211956 7.9417742767315715
Ti 6.38193936889822 5.8244493040022345 9.588849473699582
Ti 4.680030018169416 4.216422273136114 5.842085355670551
Ti 4.198545406846905 4.494136744905317 8.499987862032814
Ti 6.792582626481909 7.821691831606957 4.00093110999342
Ti 5.482784723000028 6.4689094934181925 7.181892434237519
Ti 6.64632185971071 8.80529200955696 6.609801966206818
Ti 4.37098695138961 6.676946347386366 4.737962122497581
Ti 5.802243769155848 8.522839689521371 8.984544295900243
Ti 6.91127118465221 10.48449304854779 4.796029096810273
Ti 3.8918590019290744 6.905411898680569 9.224251309723968
Ti 2.9310873823206847 6.007729973319073 6.855231880132006
Ti 4.696875387338312 9.28534439101205 4.784037130564235
Ti 3.730531678269603 8.591893853464667 7.141028554177461
Ti 5.225699968873539 10.841906796017412 6.76858298086512
