23
Energy = -145.87932136 eV
Ti 12.036579031587387 7.024609522237925 8.013958187482404
Ti 4.611865075933962 10.137622966358787 8.20026183526923
Ti 9.966811118699678 5.712977871888156 7.05631373629887
Ti 8.560670768733969 7.480621882221014 7.903249697899666
Ti 4.965030659671728 8.759109869607665 10.483843880582405
Ti 6.8039108136509965 11.4935478864223 7.674478630289743
Ti 10.489641362686163 6.05354153356687 9.679314311380331
Ti 11.61669052469903 10.791267460298467 10.097060299816027
Ti 6.248411465250394 9.011968828057423 6.34385685550667
Ti 8.699390968741007 10.249181086389813 6.787853574299571
Ti 8.228892799199375 5.138045888325337 9.045184889553243
Ti 6.2134514708740785 6.438247876728441 9.730254429260045
Ti 6.615884951030933 6.099325740250077 7.123632417716111
Ti 12.202811973880182 8.144949370305744 10.40395948730746
Ti 10.254624398304683 8.9295400020967 8.966334893610227
Ti 10.890026669270021 8.704880162939423 6.331835915400852
Ti 8.760032758028132 11.061185703452805 9.519010100078393
Ti 4.767851793481824 7.632858270125694 8.098807021777535
Ti 6.957091752627233 9.134693843594906 8.929725619661296
Ti 10.785538256498288 11.210820914588433 7.67454003133063
Ti 8.46999841107735 7.503003143949289 10.669727261564356
Ti 12.715589253685293 9.476068396059604 8.156186309236762
Ti 5.977890888418439 11.269198711190727 10.084699770120313
