24
Energy = -154.72326234 eV
Ti 6.34639611153156 7.615763564614973 3.7265476642321733
Ti 6.920036421065399 4.43439385759706 2.0736776498055676
Ti 6.091104351215691 9.42167054328427 5.763511177888438
Ti 8.487951112480268 7.990083666168225 5.329904401785608
Ti 4.170125217257533 7.439791785253561 5.406668545547725
Ti 4.063311235707183 9.0069049588657 7.443896618955024
Ti 8.294506577000046 9.496549344047773 7.420649196280351
Ti 4.938135162623224 5.545666106259064 3.646741048476322
Ti 7.9571435295052515 5.47590566613272 3.9701068803695194
Ti 6.145347897131833 10.120860236535842 8.465832449062534
Ti 5.9115673659509325 3.3314194011407188 4.129702392348596
Ti 6.4275531163308885 6.041252156840372 5.897013582061785
Ti 4.286621066051984 4.560520172778271 6.052670080789106
Ti 6.370208336792536 7.583651628907867 7.7947065330198
Ti 9.25715568910742 7.287784324995177 7.744208307675293
Ti 9.084531102788988 5.329737166724601 6.219271010256931
Ti 8.417449118575805 3.03828910494374 3.88768865253729
Ti 4.842653718874369 8.333682467897937 9.804707031984046
Ti 3.8333117306134312 6.42818239627165 8.109947026348324
Ti 7.153635313818655 3.548620714425011 6.33063721090037
Ti 5.5355460169036315 4.4398188393095674 8.232812147752586
Ti 7.688360297268816 8.119164318180246 9.816196124719331
Ti 7.979412898985415 5.337408913479205 8.745328832763052
Ti 5.796595181239607 6.071537234167807 9.98623400326113
