28
Energy = -179.00257918 eV
Ti 6.306841494990305 9.459404479767507 10.533795666146016
Ti 8.067643173937247 7.955998316291107 6.568135468349544
Ti 7.813698805399274 5.419329653385464 5.496339372960361
Ti 9.334982822690883 5.640463418364809 7.973295469447443
Ti 6.523260405240096 7.422041718694423 4.231910267082016
Ti 12.733262157054817 10.688238490595152 13.697569951348038
Ti 8.97546061850197 7.314345959979491 3.959056697499547
Ti 5.549660956797835 6.619687011374976 6.296224010100045
Ti 10.249703082356241 10.183138911830286 7.711886323315962
Ti 10.259622944799036 9.140612955000838 5.396891935263968
Ti 10.316651499738349 6.374400562276668 5.745822356522424
Ti 9.868606587357935 7.462406925110737 11.907308674520367
Ti 6.954151579370096 5.7540395879430735 8.231227777899631
Ti 6.006950446612886 6.72239417647385 10.380064564094713
Ti 7.410716545726721 7.633166511922888 12.142328104810806
Ti 11.435676046409409 9.705292541174465 12.746140746969187
Ti 8.715428805942679 9.798984141645143 11.759933523250657
Ti 11.060356174476189 7.805780911606555 7.674181084308915
Ti 6.432166991666077 10.407495038112978 8.172023270587637
Ti 5.394666510549257 8.111865377361797 8.346374086042186
Ti 5.784764281108656 9.355069589663099 5.940838999487138
Ti 8.398604661441945 5.550409851607814 10.702282627719551
Ti 8.41569498191935 8.032666413990032 9.504905673794624
Ti 10.811764152799306 9.284824794219684 10.071269136669242
Ti 8.19506599343936 10.816732856926011 6.393078280158889
Ti 8.567331238988748 10.892326407199613 9.473371865702047
Ti 7.871335237581386 9.597916678094817 4.24431906503164
Ti 10.805702343585313 6.524314906124173 9.880772605185971
