25
Energy = -161.51225144 eV
Ti 9.356784323606055 5.488859613648239 4.341058108785214
Ti 6.919625014747898 5.50763707674165 4.129883993611153
Ti 5.690157578465107 7.561107209305144 4.662730828212205
Ti 6.718975026687263 9.622759251323307 5.700288609666345
Ti 8.32115442109369 7.91748645690903 4.101796816012281
Ti 10.51921775167889 7.236448905809524 5.8583805905740185
Ti 10.507064947085576 4.675620538604315 6.339879342162195
Ti 9.144158095244718 9.329605371459746 6.290293266052577
Ti 7.848618150821455 4.076668539755814 6.180609995944933
Ti 5.358413530818053 5.436058891479408 6.31321603391489
Ti 4.280512915879062 7.851433302346469 6.748367331383039
Ti 7.84073298397424 6.712966990922495 6.361632353996568
Ti 11.448518821664148 6.387778185509326 8.111466504336747
Ti 5.7175186027794105 10.386009497239879 9.865196410094784
Ti 6.8502630069797545 4.778707622624593 8.41514695424153
Ti 5.0505778426957315 10.387546342064358 7.4434197712611345
Ti 9.274562423594464 5.359503313479414 8.49496149302602
Ti 4.850821862348241 6.194582360423112 9.030600683133837
Ti 3.925131523105526 8.687803632916294 9.062651203145801
Ti 7.733238507612202 10.520384229923987 8.115129871866726
Ti 9.38235772073369 8.184660371891965 8.61494998296453
Ti 6.51359679898218 8.168003441308647 8.289054374343499
Ti 7.421833538002043 6.493902258514637 10.250822632538283
Ti 7.874563152193222 9.133335004228917 10.463850882983161
Ti 5.563071004325395 8.012601136687051 10.92608151086604
