28
Energy = -183.07657805 eV
Ti 6.899285189916173 3.5860399907756078 3.966544137497655
Ti 5.09808235373061 2.935657520177874 5.811198153481112
Ti 4.660865283412058 5.066709417322142 4.215628341949385
Ti 7.654372955448982 2.6116692015945624 6.227912120248867
Ti 6.968975209186074 6.416646659731522 3.7442918702710606
Ti 3.8313317519715944 5.406951422709171 6.676987883950059
Ti 9.076153149138074 4.639901201266935 5.217146400145127
Ti 6.580195787675444 5.041276782749909 6.143393044241462
Ti 4.606256413243668 7.442781056916155 2.917398340870702
Ti 2.7173486244995804 6.83302884896422 4.721046000639852
Ti 5.045443117600193 5.884145015222327 8.967306003467282
Ti 8.902165943587246 4.13444160860138 7.995377592747968
Ti 5.285018464186172 7.49479591973601 5.6142264711526835
Ti 6.160928953866354 3.4163988735248783 8.236656250542461
Ti 7.316436108394102 4.960164816734295 9.853477412823551
Ti 8.939149157583296 7.406533918543032 5.12615351973254
Ti 3.4889634134215104 9.238884522800483 4.3683906392337395
Ti 6.151382874768701 9.281265990699422 3.8277791097550216
Ti 3.010237431362317 8.227379322123955 6.850954759735828
Ti 10.26408204780715 6.076898545798642 6.982704557659796
Ti 7.653125460160922 6.790179186245206 7.705876517041023
Ti 5.38566546877018 8.332487157773459 8.194353724416706
Ti 7.396026032331476 9.144131775614428 6.245199653465127
Ti 6.8270191810932035 7.354920558072113 10.255030983716448
Ti 9.422103515232775 6.64841115343699 9.499161632037534
Ti 4.931600371020352 10.062144142986153 6.186919462702355
Ti 9.732341332385234 8.475524985517717 7.423471286443563
Ti 7.991048829755094 9.086234825910104 9.021018551580076
