29
Energy = -184.52441177 eV
Ti 7.611081938893261 8.300819196074785 3.8480479867345783
Ti 8.023482885043517 5.525792498439608 3.828686497885398
Ti 5.4664280137582395 6.654318777892442 3.520758796493091
Ti 5.174454459578832 9.031378326698615 5.085544088601423
Ti 9.416236873669076 7.485602605824656 5.4158496315501035
Ti 7.677473176521466 9.566009072983976 6.058302418152728
Ti 3.453048684195234 5.088788524182161 4.004235449939809
Ti 8.398088291642674 2.9029659762072106 4.826757954022685
Ti 5.827615126022943 4.096109544243076 4.138132944246371
Ti 3.400753435979827 7.3217045055135825 5.236549220089193
Ti 9.687188290681595 4.867110257666834 5.692882082788851
Ti 3.2933296992003473 9.52520592396183 7.341543821872356
Ti 6.840593757269271 6.68799862850288 5.9443484558014275
Ti 10.032867728133931 10.144293039137638 5.874623098195288
Ti 4.468522580267242 5.0301523142983395 6.231161804624098
Ti 5.719204009534245 10.510238074870237 7.380707729849926
Ti 6.945171202949221 3.965350686091816 6.521828030505367
Ti 4.739777389326237 7.700091720365905 7.545159501960266
Ti 9.241671894240739 3.14756419576045 7.367161366812954
Ti 8.33402226006966 10.42316581768074 8.434069029688894
Ti 8.817849595844276 5.771863890605029 7.956836515220721
Ti 9.72535171720552 8.444134646834982 7.79804022266941
Ti 7.103204951649661 8.123412441870611 8.341893389973896
Ti 6.210845822394569 5.46994813947731 8.661347097647386
Ti 5.18559163183561 9.645165886716752 9.52270609541481
Ti 7.919285484707085 6.728427359216663 10.337945125748199
Ti 8.185488936715075 4.15434791537857 9.929896167399832
Ti 5.154985680609829 7.227200421058082 10.220798227230693
Ti 6.363555191742872 4.8700075755128935 11.262859493363433
