24
Energy = -152.47666999 eV
Ti 5.374524016936768 11.793315653219883 6.860377062624399
Ti 6.138255783330302 6.5804408001849515 10.259329130990794
Ti 12.876266017624811 7.926731006496657 10.078304576686008
Ti 6.777370712977736 9.248812261077761 6.7958123576781935
Ti 11.325577595600715 8.912523691157151 11.761731446834935
Ti 9.03427634134925 7.639563958865785 6.980552158006859
Ti 9.725576405380936 12.47380561291157 9.55339793557876
Ti 9.725700790640442 10.695610815711373 11.341013312049418
Ti 11.856653500021876 10.528568062436538 9.618922766731759
Ti 9.272008677044495 10.016667997412219 5.971477518100025
Ti 8.574866779106316 6.299892278864072 9.454810989438277
Ti 7.913214232790541 11.683167598787499 7.580350106988287
Ti 10.543127385790923 7.792722372587832 9.400495239412319
Ti 8.819789459004351 8.039098730516384 11.585800827644793
Ti 6.675721051952265 6.712890980919172 7.7233531828653295
Ti 10.992060484920314 6.427289942613587 11.447180084732947
Ti 10.802933818037419 11.588818904856753 7.272956307860272
Ti 4.882455813965163 8.227626305269702 8.466446227039016
Ti 7.234431399333281 8.717777404237012 9.490817695398578
Ti 9.35490321895301 9.929395923686194 8.71602496661295
Ti 6.614460929159672 13.307621860913418 8.76874945332704
Ti 11.42048188571487 9.049180638099141 7.2602687848180665
Ti 7.475972969240942 11.459261713906562 10.528007375994111
Ti 5.6629290627618465 10.882563714010637 9.012568248035002
