23
Energy = -149.53432164 eV
Ti 8.209089970639823 8.230842624992437 12.073419830099546
Ti 5.760953780065986 7.647945982676074 11.484831117390387
Ti 8.813231336149034 9.873585704333166 5.369938541627417
Ti 6.912289878344288 10.9896985825152 9.03947667631606
Ti 6.754579508250164 9.851980473070556 6.763103599199401
Ti 9.22766204929802 10.890306164954117 7.882533199342654
Ti 5.41118833132861 6.439607794327852 9.372863133275828
Ti 9.082999478012432 8.171506631562865 7.457658855538399
Ti 7.475454417961733 7.499773023898572 5.499026321763573
Ti 7.797345419333063 5.942952350831025 10.643441295543871
Ti 7.427256828479247 8.283843115240497 9.443693634343875
Ti 10.011716635803035 7.556849413925309 10.701000123705292
Ti 6.586250012786541 10.081970157882282 11.281970005018362
Ti 10.174422208246785 7.773348621696366 4.955159240784434
Ti 4.925600066051327 9.110392443684407 9.364454358905137
Ti 9.497977356139705 5.7685430400675255 6.314414186582803
Ti 11.088120118782935 9.097270046883239 9.00822663032329
Ti 5.616178850222084 7.591241724308556 7.253248616573862
Ti 9.85834681985897 5.879815761455939 8.836101786044182
Ti 11.119830363018076 9.651981568143796 6.519734075314004
Ti 7.394007429303594 5.6792689426970355 7.860278526638754
Ti 9.1148351960395 10.227702204655811 10.470790685344404
Ti 11.581574042651937 7.109571408252046 7.105070464645924
