29
Energy = -189.13432203 eV
Ti 7.027347927738337 9.193732869717081 4.808163479746422
Ti 9.069122567564007 7.653351161575376 10.092649738275519
Ti 6.015578608460841 8.442496669208765 9.51584100483601
Ti 10.003965534143854 6.174529103141974 6.440521998887163
Ti 9.345344131637749 4.93944793759514 10.781144868551564
Ti 8.603074663324627 12.313480660301046 8.937764911416329
Ti 9.609834050477273 8.779518043693345 5.389104712979578
Ti 7.766431516621616 12.697578526463067 6.767914327287552
Ti 11.039703624282074 6.619660802893525 11.656769962399991
Ti 11.70310976343782 8.414398194476965 10.12405020257581
Ti 5.504457493909438 8.761873960974938 6.970090801547537
Ti 6.020175814276849 11.334024778058089 8.467007458670613
Ti 10.131345085345162 10.253890813092417 9.417884511068122
Ti 6.8679467514307575 6.037400783268019 10.555284652078113
Ti 8.506516384001156 11.168299165227372 4.906077673341694
Ti 7.6179544095298475 5.022490870424015 6.3046123361810285
Ti 5.935550028876794 6.158943665509343 8.01035381494448
Ti 5.980947232102461 11.157269975704724 5.878161068388995
Ti 10.212039560348115 11.352495772832123 6.853308532266711
Ti 8.667025001371938 6.6101091538595105 12.572275456228526
Ti 7.13413564901721 8.396077507128785 11.88760532833618
Ti 9.828607423393484 9.058690357609123 12.076186184175208
Ti 8.1262982441366 7.467821216853857 7.642962694234197
Ti 11.022413466984487 6.053748660396553 8.95253104405352
Ti 7.200908253398428 6.98348734431558 5.23354998164154
Ti 7.811469673399104 10.243289635287624 10.311823276983231
Ti 10.941250304468133 8.461835792434128 7.616853554010719
Ti 8.036699031927721 10.072245058468061 7.439735386528806
Ti 8.47609905173311 4.906946564758643 8.524603978501577
