26
Energy = -166.5369046 eV
Ti 9.00544419350709 9.93601406460929 12.49985183230737
Ti 11.30070623023419 7.001536033433243 9.643306498127629
Ti 5.804635548655917 8.256372902621747 8.70667151222964
Ti 4.962556284902062 9.428919952938191 10.855955084141714
Ti 7.685715385791249 9.057528179344136 10.440145362973132
Ti 6.755016301069837 11.263360627886184 11.67774248703566
Ti 11.406357744185465 9.742013214338506 5.661159344741304
Ti 10.604263979362164 9.49089314279817 10.091551691731583
Ti 10.007824596534839 8.29242226494745 7.448830099244773
Ti 9.643346061607327 5.875030619867194 6.449802340639898
Ti 8.028700336026564 7.356047422748238 12.76857683957141
Ti 12.497057100801854 8.802824389058268 8.003010060394987
Ti 8.81194241784489 11.54341019274835 9.923014747386318
Ti 11.928667579027588 7.2421093474271 5.756018242395244
Ti 8.878867334755794 10.109445416674182 5.6336028182948565
Ti 7.672745325758416 9.920528391130848 7.7189727511903286
Ti 8.174815770899214 12.395633981877994 7.4756442861871815
Ti 6.057046181246704 7.052733308985874 11.025059955753216
Ti 11.90439980924338 6.106709183315156 7.8114959310570296
Ti 10.429275040054984 11.021006388168967 7.834431494916232
Ti 8.271960768502785 6.820290392387514 8.988856313165522
Ti 6.121427921739456 11.036933214319257 9.214538600176928
Ti 9.797264171083436 7.501965557888121 11.589708108772628
Ti 7.683499761970931 7.617031365788883 6.293103285118317
Ti 9.72295103850947 7.858209014515282 4.72172952471174
Ti 6.39484016326011 9.042677051403016 12.891950699869254
