21
Energy = -134.06213728 eV
Ti 3.7407538130230966 7.718224953686892 5.496011434663527
Ti 3.6430296940685127 7.358834456356135 8.02407408595517
Ti 4.290247495147378 5.264162257359622 6.4842554602522675
Ti 5.704663442287997 8.912226013939934 4.561322977084424
Ti 5.034405645952992 9.7170056458817 7.105180740386186
Ti 5.783938735247742 6.148351942395771 4.398603389500636
Ti 6.901283882385538 4.3578280594626495 6.233224354456934
Ti 5.910053489839812 7.451128189016713 6.8412575424023885
Ti 5.931339064389043 3.27678418783924 7.830869654376601
Ti 5.555655834815646 8.317624643620533 9.401256492460885
Ti 8.552348484842355 5.412766175759263 4.464045235434819
Ti 8.271822265819825 4.791852083230203 8.700587194284847
Ti 5.592668907829953 5.598654997718489 8.942974471059028
Ti 9.786661502201522 4.901630999366256 6.641215124153268
Ti 7.69017335170813 7.009866852657611 9.671120408915922
Ti 7.7266118214084365 9.2119115063669 8.351290819644069
Ti 7.804143449017513 9.52941403799679 5.97712145832101
Ti 7.901669413474932 7.77841229489781 4.113175496011737
Ti 9.956233325159923 7.033293119809335 8.341042589603356
Ti 8.066212806660731 6.77256127180185 6.805633719715398
Ti 10.083782212384028 7.364949716471764 5.5251191430310485
