29
Energy = -186.73081523 eV
Ti 8.814302254386337 5.774416130204241 10.462617638206954
Ti 9.955512047353169 5.750321315425965 8.208884585127988
Ti 7.684033703109191 7.985753458891251 11.080631124426903
Ti 10.662311081404361 7.525982000724003 6.381928351785397
Ti 9.738179017760078 8.056948739835352 9.29364511294164
Ti 5.203732152340998 4.178382477701942 8.16061912324921
Ti 7.6635222397435 4.30316731712444 8.458930830296255
Ti 8.406756564971213 8.030883858297877 6.664484168195899
Ti 7.340023249941301 6.963156438028534 8.646068976859357
Ti 6.096342206735877 5.769258486971569 10.508632488333193
Ti 9.021119850003728 5.288607276520111 5.953355281052304
Ti 5.4511588219492415 8.387535780347752 9.983088112227932
Ti 8.675233094517164 7.116522769734128 4.171396630549999
Ti 7.568968493283795 9.617250530215856 8.936610626544178
Ti 6.948974724425046 3.3970053603514705 5.884323200895423
Ti 4.6472739810235115 6.617176866786189 8.249239554301662
Ti 6.265741257462294 6.083005358825658 5.941901056646107
Ti 5.69201014179507 8.896847045940875 7.179545869625526
Ti 7.470771835849138 10.407563317632924 5.924805762503515
Ti 4.63086751599088 2.522335310852535 6.197583938267638
Ti 6.419595808662651 8.419853355897699 4.43391607612691
Ti 7.511156489575221 4.84996112372984 3.8431292760836677
Ti 3.7691225042484207 4.9511970782912345 6.096515705547046
Ti 6.334745306229559 6.6994817507314535 2.4155270357975813
Ti 5.117274195479088 3.841640195680738 4.02126715515517
Ti 3.8765244006582997 7.964590347038835 5.58593039335756
Ti 4.975113247920891 10.417419235559327 5.0979853656638925
Ti 4.2695824507692555 6.2254308518586114 3.855685629454778
Ti 4.397593581232488 8.624764112248746 3.013038905257738
