29
Energy = -188.89404988 eV
Ti 11.658173746090728 5.038544909004618 8.550220591892746
Ti 6.227134689349766 9.648558192287751 8.928897632181485
Ti 10.962828903390438 6.8221554760471195 7.527908932974633
Ti 9.58789310325493 6.2959531256911605 10.123914284024886
Ti 7.981438778615933 8.202202571481196 12.91421191342274
Ti 6.167873753878764 9.432059799184275 11.507044220471393
Ti 8.964573161584001 11.807058812670713 6.352881598856761
Ti 7.364455159409183 7.592833149120038 10.286553975525885
Ti 11.711628153271645 10.554341791413467 11.727886192314136
Ti 12.447389136043498 9.051440680650733 6.993787528889722
Ti 11.314538268142863 12.02664359060883 9.887690954649266
Ti 11.282845189216097 11.36271977787099 7.542655670589575
Ti 10.60756577131598 7.845595226130255 12.215681774175971
Ti 8.30217786884947 7.795098614072735 8.00549621510207
Ti 9.90611635471162 9.213474667993198 6.442312297747537
Ti 6.842253101517451 12.004158273343025 7.8572892374129255
Ti 8.87875963201211 9.768411140612303 11.036549407998557
Ti 7.531780806986222 10.896175321185309 13.002150566042634
Ti 13.215004373558777 10.266955516852803 9.29183655435435
Ti 13.394468580937824 7.538132308736845 8.757162573612215
Ti 6.986983947202671 11.861037388537088 10.516456604460586
Ti 9.864420064708899 10.03745341630305 13.478190686465785
Ti 13.099327421721949 8.44914271165934 11.20948495689717
Ti 7.287470718769419 9.797198580987677 6.489055817582105
Ti 11.992131791095993 6.320019433164302 10.58635303317882
Ti 9.092531883278967 12.973843955973464 8.941123342810213
Ti 8.778641319340847 10.436083551194711 8.562634863833164
Ti 9.451252071342758 12.257605718286927 11.721009066395775
Ti 11.026925490880727 8.803919073857642 9.339889301578125
