25
Energy = -161.43058373 eV
Ti 8.09010757806718 7.01224392987392 3.423646293210106
Ti 5.765774680102646 6.371206099904992 4.216163197715624
Ti 9.17599645224579 8.912957000835064 4.463915013303105
Ti 10.017779194015475 6.357480083050184 5.2624443439391095
Ti 5.692111035532409 4.946824616021486 6.327313456183883
Ti 6.420050328192598 8.932862422948253 4.495200479936079
Ti 7.8162348662580445 4.85733579425049 4.716836063074403
Ti 7.880954103568535 10.114547614122761 6.492119841968005
Ti 10.165594318776302 8.677794381958522 6.731474567043729
Ti 4.43521185130202 7.453133108773314 6.2057017014526235
Ti 7.7742301963263944 7.273380659251845 6.0724044004808775
Ti 8.291489866415398 4.739469102446155 7.2587585097187075
Ti 5.340426540091262 9.650582464262355 6.841430393925903
Ti 9.8999548727395 6.604294984936056 8.164454218834713
Ti 6.4178081358899455 7.316002532619171 8.195511650354948
Ti 4.089887990834393 5.851340170689864 8.248846642345795
Ti 6.205744550264065 4.522560089275977 8.794894134361805
Ti 8.664404135334753 8.953459955797316 8.8747257173236
Ti 4.291421290630165 8.429157092000734 9.035321741527929
Ti 11.284853466905792 8.613296453592204 9.381485541996664
Ti 8.04103521688719 5.997209922778811 9.939371569842551
Ti 6.348453322186763 10.153659937479613 9.006381942654395
Ti 5.401472029165191 6.312118086831628 10.433143612515845
Ti 9.879972187108644 7.682791496383107 10.81568031030816
Ti 6.708783504261122 8.36404371301807 10.702526369083696
