29
Energy = -186.14740122 eV
Ti 6.855498592900916 3.6389722366013086 8.691397535701533
Ti 9.280809474574069 3.603679436352325 9.662308251110009
Ti 4.754363462954209 3.8299302168483065 6.843058066862443
Ti 8.014030541455822 5.83019553501834 9.547627900030848
Ti 5.608313058414861 6.101072740110911 8.397539641320575
Ti 3.109598041032676 4.3743936223285935 4.888520823499808
Ti 3.4124277850246494 6.194714050742901 6.753801913557672
Ti 7.075918209856939 2.63086061814636 5.991096492866416
Ti 6.6983279658339026 8.379456586294344 9.3304523521616
Ti 4.369388440529272 8.6802632499897 8.259840319802072
Ti 9.107241787453805 2.6509454033653856 7.513111945224547
Ti 5.3698353191597645 3.307099625051907 4.337512364156853
Ti 5.471425670946033 10.77373248284358 9.262778795184381
Ti 7.345789823981721 5.198719671925973 6.544669723145146
Ti 5.2204545218173335 5.905349754256973 4.615761150366566
Ti 2.8401498006116532 6.824698435441423 4.255924116411066
Ti 9.860585568297545 5.215151284039539 7.68240092649861
Ti 9.43608587627123 3.924778225272532 5.36052763608016
Ti 8.715114614164541 7.694742877029577 7.772356751743223
Ti 3.6556395068087637 8.693204930265876 5.757812248171866
Ti 6.271019335205731 7.932916479503568 6.322921571200601
Ti 7.644009538903253 4.694107857014714 3.901096827622782
Ti 7.288296728475148 10.166699686311311 7.446247386540404
Ti 4.91462458828309 8.376715992927632 3.518497027265846
Ti 9.243427656840256 6.583370417097207 5.275689530660353
Ti 7.350558616680519 7.659738095993491 3.748103986039455
Ti 8.646573857039684 9.090035287711398 5.4729222103526975
Ti 4.832999017358869 10.78643381127196 6.821531395119854
Ti 6.395162213794964 10.056630320412376 4.8108855173117355
