25
Energy = -159.05165108 eV
Ti 5.4923296500011345 5.919850047134811 4.14751505509903
Ti 8.564632902087233 7.218003393267092 3.825827997314784
Ti 7.700348643543105 9.427384805748057 5.591772391533683
Ti 7.485015461924886 4.79475439233927 3.7626289158079107
Ti 6.31874907494297 4.207513405902228 6.136652398988962
Ti 11.26049481826812 6.415131363689903 4.451814695911999
Ti 5.467997947881356 8.702474304411245 5.5270462156195155
Ti 9.455425972154199 5.009795736676893 5.493667180295531
Ti 4.557526019872577 6.404246360268078 6.585978974484288
Ti 7.287238159687791 6.543364716372817 5.882339713335585
Ti 11.445998926714067 5.964456086283801 6.920479260590906
Ti 9.73208611640112 7.755064171555512 6.160815262064095
Ti 8.880791885602036 10.074151476770387 7.674168356135678
Ti 6.228806433657206 10.492540528715557 7.787593409032335
Ti 8.771059228157164 5.513731687138052 7.970619926148158
Ti 6.829190169409222 8.003632107512885 7.9605814101108585
Ti 2.393300535035267 6.328068803972216 8.073813278478193
Ti 4.116749254795087 8.677976589166903 7.8313419722905895
Ti 3.698967900653161 4.409529778006675 7.988791416774083
Ti 6.30256506905117 5.039060963563182 8.56396331491876
Ti 9.489658387723583 7.812815598358968 8.799304109228675
Ti 7.833236156262443 9.548996511059439 9.884889321367057
Ti 4.672919057933581 6.534708478839585 9.444153719288373
Ti 5.414252518731025 9.041843207671832 10.009115674950204
Ti 7.372558063846149 6.9328038399108 10.297024384566754
