27
Energy = -174.81670248 eV
Ti 11.945196151200715 8.818619587280246 12.509224926602739
Ti 12.523945223467935 8.039555906370689 10.269561940234134
Ti 11.32187536892973 9.945853405821074 8.045957074451088
Ti 10.514858139077868 9.681144598103478 10.594569467166805
Ti 11.560946111190216 7.502795033700758 6.932793469972552
Ti 10.348514590175638 7.125973193220194 8.969004300158678
Ti 9.389919979175675 11.336323395344966 9.014259644693333
Ti 8.93330330936619 8.752801081068704 7.137114994688799
Ti 10.14250586694354 7.109080699922416 11.412871208937267
Ti 7.643412746946055 11.021395917616395 10.95801630659786
Ti 8.890353288960716 9.150514013805674 12.566740484907124
Ti 7.953248699073623 8.566820614429963 9.949121671570992
Ti 10.029798828269115 7.425257011356041 4.804471298398017
Ti 7.032453734160753 11.03676057776206 8.277840518173443
Ti 9.362636618492333 5.935022865700495 6.727027766235276
Ti 6.320220557200636 8.973440951285994 12.08870314025328
Ti 11.105600531333552 9.65435513662219 5.5146957872013855
Ti 5.442789216422378 9.79442004865834 9.95115154392789
Ti 7.61376281447358 6.84595419379024 12.169263278036114
Ti 8.287578193133848 5.723506947707108 9.934025979480921
Ti 9.200900614447932 11.325689019939219 6.460406187578068
Ti 5.910185683899555 8.514776268892772 7.741576949051078
Ti 7.148414731405429 6.499508535136265 7.895113877522352
Ti 5.765631411784428 7.090704161458517 10.235903921575282
Ti 7.389896292484856 7.4140708364341545 5.37817681509278
Ti 6.809836446058032 10.062686875202289 5.914462496486047
Ti 8.730406866122157 9.545905089691422 4.504031195860561
