26
Energy = -168.20819485 eV
Ti 4.921334466398172 5.201006600781883 10.949159217392413
Ti 8.703218185095361 9.40460517523319 7.006319887066009
Ti 6.406596634454723 7.361323351581769 10.848529526860236
Ti 10.356771956398328 10.985334203915018 5.445571238432
Ti 8.070955558221309 9.747964394006164 4.496282612646599
Ti 10.500736194784475 6.938001757916727 6.985624314105798
Ti 5.675094673101168 6.525847484334645 8.374523026346704
Ti 7.883943594323494 5.768556254536064 6.89382775243649
Ti 8.202454766287444 7.635317520721321 8.970650471051973
Ti 10.795183740617915 7.650230831583456 9.671396597675995
Ti 9.758299728212023 5.346934605242088 8.767949491307233
Ti 7.224371473046027 4.990244329748308 9.513320589057505
Ti 6.354249252600892 7.8838687724303655 6.19033896966989
Ti 9.072270055354645 5.98597691922562 11.090159135003615
Ti 8.634089126223582 7.21809895390907 5.063343338144601
Ti 6.145712185479977 10.3991195707502 6.388472443022283
Ti 7.28291493848996 9.859420640048938 10.589096113777265
Ti 8.092573498647624 11.90761215259089 6.0964886148037065
Ti 10.584216190345977 8.65291194272502 5.109103174511257
Ti 11.337159945023615 9.459304550436265 7.593375428032504
Ti 6.754827288341344 5.114505706904526 12.21533051439197
Ti 7.47313537877956 11.324833219618835 8.618724981527684
Ti 8.915258131133346 8.296412709769607 11.583654254768051
Ti 5.740595031289413 9.163486372444437 8.563323238334764
Ti 9.97969049270404 11.733313996072352 7.844101592153786
Ti 9.729513101082752 10.182125608026544 9.820235753246962
