26
Energy = -168.46444242 eV
Ti 5.326120985908788 3.166533938456172 4.17216888300747
Ti 3.4198579012697894 4.8058142360849585 4.885243287741122
Ti 7.225675589054657 2.9805916050769925 5.696462458419773
Ti 4.7740078716987195 3.5176457505457375 6.78820206415266
Ti 4.989442092270478 5.244691134760448 2.8458395463830595
Ti 7.631840904429155 4.530950589002358 3.501198852526915
Ti 4.743907012960032 4.856321429909661 8.996411013675566
Ti 3.6953172298863253 6.21081992164814 7.113421139273196
Ti 6.0709529483184514 5.484895826927179 5.301075709660175
Ti 7.141344282289355 3.7829690081021954 8.136546315218592
Ti 8.811328798684537 4.893924131055081 6.240772712116824
Ti 4.19790865537728 7.2836532989764935 4.472947415100123
Ti 6.611008786544884 7.052503294141117 3.089569852974174
Ti 6.778491834673258 5.4773698632778345 10.15634288611723
Ti 8.928041998151967 5.611086391160669 8.783001653599895
Ti 6.594529525653924 6.51898789401407 7.65829302145466
Ti 8.517260148701942 6.9276392574592 4.716345996725292
Ti 4.972822661406453 7.437005997224424 9.450292856337002
Ti 4.561555278453464 8.585398031712188 6.925341324806269
Ti 6.4513675214459605 8.537102613635746 5.2578939866381456
Ti 7.86997784633691 7.8252258959150165 9.646360321001735
Ti 9.108346103900036 7.726822209485462 7.233659592592062
Ti 6.569558529641254 9.311369134928102 8.060225837465095
Ti 8.62674608794797 9.666661863244581 5.564261659598109
Ti 6.6561651082392235 11.112521965012924 6.252221327576929
Ti 8.669188996573713 10.394259418061473 7.998664985656726
