20
Energy = -126.51556221 eV
Ti 7.947666028496639 7.069501984994526 4.254046658691585
Ti 9.364152662288173 5.613824820858451 5.710597044291276
Ti 3.8951989418732107 5.096482348815252 5.638796994174486
Ti 5.372018045523436 7.387166354390668 5.6729474631349275
Ti 6.82065963608613 5.15970822268558 5.500293952707944
Ti 9.913516767408426 8.158944439754983 5.908624518457573
Ti 7.556132672579896 9.24790162343284 4.934197651512951
Ti 8.49301797737736 10.20894624187535 6.958113212517896
Ti 3.048812170432374 6.562408805623264 6.943034228141541
Ti 5.992819841423816 9.859809613464792 6.826749309679506
Ti 5.515045645076688 5.597250793638952 7.7795416889517695
Ti 7.641682910373325 7.411354308268369 7.359528676907605
Ti 8.170777992223627 4.32826960024176 7.489439133193619
Ti 9.824134841729498 8.88875439046605 8.455270146029498
Ti 7.229768179620066 9.555250868944341 9.209971804144136
Ti 4.950152605209483 8.184003348615713 8.205521265258122
Ti 10.07240045330313 6.268189587111479 8.135234099354244
Ti 8.720083946634894 7.537390500096102 10.1034780655024
Ti 6.219559100595326 7.173220777669788 9.988006449142695
Ti 7.88359725257573 5.322819039882983 9.557805309037343
