29
Energy = -189.7140528 eV
Ti 9.877700079784232 7.035433761668421 9.099587901575076
Ti 8.996305285795803 9.122611112653566 7.889232028345342
Ti 9.918421910613134 7.068609135537212 6.303368976504344
Ti 9.76208063095194 9.330985195136622 4.635658952042958
Ti 9.531227168121966 4.888380155818169 7.9579968090529265
Ti 7.714692564970568 8.122349801684624 10.01909943544347
Ti 7.7406496525045 5.444753339147788 9.929571887694795
Ti 6.158982585690192 9.084032770721484 8.137172823017028
Ti 8.556653828310976 6.945595074755446 3.751640922270712
Ti 7.6428908918965535 6.799290604546959 7.672549637394585
Ti 8.314722113597695 4.8308034141995275 5.613907816115138
Ti 6.650834024321625 8.917415987712754 3.474514088407306
Ti 7.7592422987839385 8.775921389295608 5.726061185560084
Ti 7.219863949668951 3.6784221674348756 7.799963889156211
Ti 6.150234320596736 6.670065939008754 4.888583731244304
Ti 5.3211778420268345 7.017577546770718 9.73854122043566
Ti 5.935794259277854 3.566406702093627 5.386662869804121
Ti 4.587844452263906 3.1671568939216432 7.67164309405726
Ti 7.049084481172913 4.67232496266484 3.300898859914569
Ti 5.239919470762141 5.719106952388939 7.2084493714371565
Ti 5.317385845772842 4.441403783255656 9.634217283442172
Ti 4.845736303745154 8.973436322119905 5.674348664678228
Ti 3.8079003962560654 8.012268728683004 7.8537153862421505
Ti 6.223430548532419 6.717496055647914 2.231947179901839
Ti 3.3234654345208257 4.265528995586912 5.8842875470274745
Ti 4.204595092794179 7.8165463545875635 3.411551737903069
Ti 3.1208084148681348 5.446578708133342 8.343686252618395
Ti 4.39419203875929 5.151276971474182 3.6372217266416293
Ti 3.1375971341060818 6.821654193817689 5.627351742539601
