22
Energy = -140.95196783 eV
Ti 8.678001097974878 11.085333839982212 8.961197023012966
Ti 10.111526615082955 8.967076526567594 5.503143946468429
Ti 10.713786512254172 10.079553994649881 7.748809266687179
Ti 8.935688473366525 11.212240518164213 6.31520442382107
Ti 7.436580057424665 9.542181433056873 4.955073036941575
Ti 6.4904354098679224 10.947524389441389 7.235858909200873
Ti 5.062909196160045 9.197569246140379 5.947252818098676
Ti 6.471024305936339 6.939001247196128 5.155455628256632
Ti 4.979708613217013 9.129346440825564 8.714121978990816
Ti 5.8125558786705165 7.342511759744967 7.395395054482641
Ti 7.1856147220034545 9.23922057992884 10.057519167575963
Ti 8.935559091934596 6.660268225903149 5.8502959161010395
Ti 8.11606710674051 8.975379119449508 7.3508284629425225
Ti 10.024322266692575 8.881433731019225 9.968028694251279
Ti 10.969611302257858 7.479063552452748 7.678645607547975
Ti 8.540834916487247 7.045850196116514 8.708629900158995
Ti 9.780720548152173 4.973384915718568 7.754816543281582
Ti 10.539250395451736 6.2113997179170655 10.050834842106017
Ti 8.30851240248084 7.147446858600545 11.292730874369106
Ti 7.1188863402786495 5.125493551646751 7.527744203428093
Ti 6.168833441051213 6.524149376091277 9.811740095561643
Ti 8.2683013852209 4.8336292920773625 9.954754809958903
