23
Energy = -148.39699416 eV
Ti 7.157021927104215 5.577914640223553 7.382562562273867
Ti 6.598403461845172 8.757719400932574 10.382946030476777
Ti 6.918398214275133 7.7507164690083865 6.2979120190067555
Ti 11.065756087894936 9.193306484719372 6.927861212190586
Ti 7.113131702766963 5.699982016103446 10.034521744804453
Ti 9.56096510874226 6.7577893699188 6.417020132378404
Ti 9.172563862569573 11.148143544476298 6.212311940835664
Ti 5.740184549970282 7.492918578416047 8.456619198554893
Ti 11.493859881337793 9.69023311031659 9.61588019641358
Ti 9.767769168068273 11.930455287592348 10.28602159053153
Ti 10.87324884820437 11.724151549184551 7.997467605882559
Ti 10.639061047782775 7.862872905277347 11.089043208101028
Ti 7.22172561294127 11.211306012069866 10.126501322805652
Ti 9.82215177124789 5.633217809057993 10.546987291616372
Ti 8.923714064182844 9.757657885462963 11.432732219128239
Ti 8.268973501640794 12.414764341695587 8.18448347010144
Ti 9.07898522846487 9.91700717505853 8.637432852507223
Ti 8.672860692867465 9.044651600730226 5.755091529812786
Ti 9.369769873450386 4.990211780466724 8.321653667425103
Ti 6.664441246392777 10.123915634583973 7.557395263332241
Ti 8.248022737339523 7.2650756494381925 11.735561060672836
Ti 8.567900428243881 7.466662662472763 8.837080773827173
Ti 11.232984669050424 7.028965784977955 8.628381975042915
