26
Energy = -163.80442394 eV
Ti 8.35415053943627 4.349492409491008 10.41516268591075
Ti 8.785144524874646 6.99213723862981 9.863147397601187
Ti 6.679054600331781 8.508087897464177 9.392114666013168
Ti 8.907453541138514 9.639401499666453 9.334833551500507
Ti 6.607139152482688 5.833461995472593 9.052634590838915
Ti 8.875867182078053 4.918723328169143 7.889536749931675
Ti 7.254088833403374 3.121143058419084 8.962010590331495
Ti 4.05007824445045 6.611406253697326 8.041125170393865
Ti 8.762888067184967 7.9589137692332494 7.464069326138497
Ti 5.1582198801479135 8.890255716119997 7.320957926216173
Ti 4.8463012534637055 4.207091353340165 7.790275524007656
Ti 7.349399917288652 10.132207037635423 7.285048748270338
Ti 7.082332520952944 3.8454655022260775 6.312676353859406
Ti 2.529560490284611 5.283026020653614 6.278114611823861
Ti 8.498751678887087 5.9984245030094705 5.2847958547752505
Ti 6.393458192858564 6.6591806996181955 6.543571152811596
Ti 3.6307691310658834 7.652159926728737 5.619176311685127
Ti 9.160249116070018 3.901605626954435 4.2525181881060465
Ti 6.775257958883174 4.528794377077485 3.6939566279148806
Ti 5.445098795179961 9.524199548867772 4.7683575791491695
Ti 4.727409027499627 4.833500377262982 5.372914846815146
Ti 7.798074483363159 8.568148741059485 5.09144286214465
Ti 3.3849919123396903 5.999766711276591 3.537299082707446
Ti 8.56978517362056 6.1096936362177985 2.8378927738873876
Ti 5.983164719037984 7.030833798167359 3.8861825232802643
Ti 3.7767988585087178 8.251251050537924 3.0855179661912375
