29
Energy = -188.81824278 eV
Ti 11.196175007230506 7.2401612630151355 9.19251591672297
Ti 9.89680290237431 7.154468993738568 11.413452454753077
Ti 10.429616636280503 6.017356761630967 7.008002572343539
Ti 10.04169580452976 4.973957624041455 9.582662859300644
Ti 8.206246211612578 5.705968698484766 5.1533082031486295
Ti 10.196847036238447 9.535541883313263 9.959616002953563
Ti 8.671588696077333 4.9507507969004925 11.72179987133247
Ti 10.16079231698623 7.676084786743491 4.904441423937433
Ti 10.773995861355438 8.809473242713654 7.288712380282607
Ti 8.483951341327922 4.48066780104752 7.5434445070169085
Ti 8.177270090656474 9.12129352483033 11.43698251401051
Ti 8.301664969163049 6.970055974981562 9.28632191857997
Ti 7.0977162664876605 4.638445819205214 9.751432767758985
Ti 8.069953159838352 7.582571784685447 6.542949721633672
Ti 6.95383957109273 6.818152407583002 11.580734923852297
Ti 7.941092653211921 9.54324244749329 8.18754222996068
Ti 9.395847062293932 10.15932243516482 5.571401488254084
Ti 9.920874825958183 11.295997015469442 7.943674015827706
Ti 6.194084553885999 5.532737497685634 7.249956646476968
Ti 7.8407478719111126 11.236796979836305 9.793797888852689
Ti 7.844421730252378 8.295352542001606 4.012349647352262
Ti 5.961825554473132 9.05369007874877 10.202799828424604
Ti 5.428259750271658 6.583414510430861 9.521048933866233
Ti 5.842826909925851 7.181849875071176 5.150571705836001
Ti 5.263782492999761 8.181270860679904 7.603504394364461
Ti 7.607264559695079 11.888490162714678 7.028285508398362
Ti 7.548867655105341 11.048272401852055 4.367397148396211
Ti 5.604231733808823 10.805970166078925 8.19193869645907
Ti 6.1002380767868996 9.783359581165017 5.760439118363301
