24
Energy = -150.32846505 eV
Ti 3.5270595459621474 3.884836263457405 4.746187522645799
Ti 3.9174998905616505 6.6426834987672025 4.844519399399393
Ti 5.096734187449212 9.068140506040889 5.327867390535815
Ti 3.8527579567137296 7.7862139055090775 7.343631939360543
Ti 5.896165864951937 4.6461043880965285 4.517745050608497
Ti 4.087497416918091 5.032889712544162 7.020015735767351
Ti 4.595949845471268 8.45059162810287 9.799908513614577
Ti 5.577905869391923 6.229820183489179 9.196023290208402
Ti 6.374155008778778 7.284937139528884 3.678897358611972
Ti 6.0892934018716405 6.724461522493265 6.327834962625317
Ti 5.251769018217437 2.7946282244257423 6.321534617484148
Ti 6.264091976331011 9.149150253514524 8.021582070323483
Ti 8.968340923680277 9.185305179948905 8.498407967021752
Ti 6.869667247986343 4.364898948557676 7.761304867677349
Ti 7.071930521315555 9.694338345803716 3.572474002025934
Ti 7.140485162403036 8.098056974772076 10.325624491051807
Ti 7.888554440089849 8.910505776250295 5.9211442455408445
Ti 7.827804907744434 3.254435898803361 5.673467161509478
Ti 8.41418245392653 5.7579716204786155 5.123602194773314
Ti 8.107051529659055 5.43329228920485 9.93709283572737
Ti 8.12809549085952 6.968107314020988 8.050239628595342
Ti 9.016251772790008 7.98612866520732 3.8098933050615744
Ti 9.447359234679551 4.750486440314473 7.324347561651996
Ti 10.04262558090219 7.358139234531978 6.331397458606436
