27
Energy = -174.37134187 eV
Ti 6.689199155326006 6.880408455244032 3.926325504758898
Ti 8.834062868976533 5.639807003372298 4.676198889970748
Ti 7.141513473003894 9.69525235068882 4.668165336339155
Ti 8.841090394020503 5.075522895242683 7.2665804431167835
Ti 9.026773562263621 8.092487546892475 3.9318754178963924
Ti 6.718713683341944 5.010095787621083 5.801209002150427
Ti 7.516077196322142 10.8106848413762 6.881168179726532
Ti 10.460672404788339 7.0399264423591745 5.934692022383601
Ti 4.882592933889559 8.484250920974535 4.603273563828625
Ti 10.491228471642682 6.438772022028948 8.580336368122243
Ti 7.72750858855236 7.638762188300688 6.369726492569578
Ti 9.622626281456725 9.738815460463675 5.867188595089142
Ti 8.324146887853964 5.376738877126959 10.016506136216348
Ti 4.9830238975215515 6.821677310394981 6.352012545556228
Ti 6.139767376390353 6.53255335254419 10.716001717707767
Ti 10.218037957801068 6.338256605001037 11.161701244986785
Ti 8.002886849922033 8.098622107670222 9.188570534761295
Ti 5.40156175998961 9.541804732031483 6.9213978731573755
Ti 10.8317287354267 8.75476858194926 7.80256962490716
Ti 9.2661401232149 10.618535932585273 8.637708071505772
Ti 6.339503254161892 5.640096233693754 8.289253610288563
Ti 8.221066815457391 7.6579053841653275 11.90457612100299
Ti 10.42799892706749 8.731664239389454 10.276256977245303
Ti 5.081437064444132 8.021645626418465 8.895144203180566
Ti 6.124767644623306 8.972336802230005 11.138765567465976
Ti 6.500729584276687 10.499787234964172 9.21254413191735
Ti 8.411643408686649 10.143166113378724 11.056864368549292
