24
Energy = -150.86711566 eV
Ti 4.979379454810031 7.555431658865543 11.768626602208508
Ti 10.759545577789675 7.357170954558153 6.776011034456216
Ti 11.48501115821851 9.247942567882152 5.0223656167153194
Ti 6.683748378861128 7.049761446767125 9.80971175154176
Ti 9.781153432824182 10.95689944928027 4.8507622683777205
Ti 8.152939170660577 4.9801865832042544 10.884248161325795
Ti 10.166463548951306 10.011820572263417 7.342546344430887
Ti 12.034998788854786 11.450313261689354 6.372009552898256
Ti 9.233027341328059 7.408484855656588 10.982382799393521
Ti 5.006071129167137 10.341490766619579 7.171173914244684
Ti 4.911359437973157 9.268445218127775 9.639364525399737
Ti 8.923643616036058 5.888457542049115 8.696927959185903
Ti 11.227075212952851 8.10870943436675 9.167524723288384
Ti 12.779518531936267 9.095586056052202 7.180264510448666
Ti 7.243834321693885 6.7994339540288555 12.476184086480544
Ti 8.894253464930989 8.491897506232911 5.3952640294350696
Ti 6.1750814328933625 8.252300950426879 7.185542151925318
Ti 6.970698566760268 10.468070264791258 8.845760066582615
Ti 5.6950267762011535 5.127180367665171 11.381660563994238
Ti 7.508843119999605 10.329800018002823 6.2784697539574905
Ti 12.130523875079334 10.636811834552482 9.04350504316201
Ti 7.024703456448942 9.241541615568368 11.284720350113856
Ti 9.647170418822979 9.912061734009159 10.18293291741014
Ti 8.577943972471065 8.293325521588734 8.287780892666094
