25
Energy = -156.97645794 eV
Ti 9.033642219145054 5.438003826842628 5.44293843559227
Ti 4.833180516466526 6.616122157529583 5.253653826009968
Ti 6.510305129550696 9.140392681505288 5.0895577874646785
Ti 6.893178258997002 6.2116183567552445 4.131727189666377
Ti 3.9137440469859675 9.54824033990373 5.637699205017729
Ti 8.944550192023035 7.8256496480273485 4.504475051723821
Ti 4.828078540838529 4.109545603215181 4.571225804954704
Ti 5.283764861947011 11.455647100726567 5.474436274470625
Ti 7.431676586063336 11.44594858473363 6.542168997327156
Ti 9.179025332993147 9.540456585465014 5.970014303473619
Ti 9.296373163704619 3.0978402318685507 6.775214210254537
Ti 6.715210965854719 4.35384091370923 6.283690363385814
Ti 7.318372748514016 7.23752393082372 6.705782134474604
Ti 9.985646800526531 7.251619615204028 7.005454035283537
Ti 7.830733208619394 2.4691964217770335 8.137621857949066
Ti 5.605304967378059 10.056527585260907 7.635408887765079
Ti 3.878267940048214 4.7337245362820015 6.754882874219905
Ti 4.523086382596676 7.83985234575825 7.460097062018095
Ti 8.228475119450112 5.179225118406734 8.179719469458334
Ti 8.286876939498761 9.420356212980003 8.2433714983019
Ti 5.910582415683347 3.5799278354939985 8.810021676817833
Ti 5.387348032736895 5.8074500533697195 8.609506949319607
Ti 6.6335157985255915 7.808346426065646 9.449286092686796
Ti 9.089963406070735 7.210438865037135 9.625094853751518
Ti 7.264511910994608 5.427920508470943 10.512366643823187
