23
Energy = -147.85691547 eV
Ti 5.4855396033597055 6.166440603487908 9.731842642161029
Ti 7.59344320011417 4.4374698078633745 8.46212691721241
Ti 5.033053542815847 4.1214293410351885 8.078235019733683
Ti 8.205954237956098 6.529761076298016 10.066883237202207
Ti 3.7165247568562894 6.219103413133027 7.537957584233421
Ti 4.658091227896596 8.442179352993161 8.534194935745578
Ti 6.753948839395902 8.665232110418268 9.830466975800114
Ti 6.976272615805792 7.12322760269069 7.792363454403962
Ti 6.563731565497984 3.1778211161879124 6.309574264073934
Ti 4.166119155677007 4.137893303181107 5.6344745902015685
Ti 9.536880961827944 6.13369624111244 7.903528941922932
Ti 9.013492808410872 8.565571439235685 8.505950828647943
Ti 6.031631480075319 5.8200864463630495 6.03168247423531
Ti 6.342396443885791 4.223610662643297 3.9753236568736647
Ti 4.55568638989665 8.41908136781151 6.096916492742157
Ti 8.586701172801602 4.922245033856802 5.865785135831795
Ti 6.787571443003222 9.633632344834904 7.2516702918719185
Ti 8.871579598775183 7.728744585124905 5.912093999289279
Ti 4.773128487798013 6.501295612445966 3.9549810255904068
Ti 6.5354225593190085 8.43843970994726 4.768366894345452
Ti 7.488118037983977 6.4503412300660825 3.6984478758478865
Ti 5.843661575568489 5.758450294902446 1.608310703879769
Ti 5.982960139189286 7.8861571482786585 1.9507319020649247
