20
Energy = -128.75443083 eV
Ti 7.862060036363135 4.469021901627959 8.328574165419003
Ti 8.813297506486753 5.730716933271486 4.163104485831049
Ti 7.237336353047857 7.079066044883174 5.705260514541141
Ti 7.63451417500856 7.1189375873765695 9.08346140292874
Ti 4.961555800756825 7.905664226795346 4.764888649464949
Ti 6.197746047014359 5.572568638343465 3.7680067823862387
Ti 9.444120953362322 8.144902146980598 4.992157329829787
Ti 7.319184638646588 7.792938280551441 3.248437222842726
Ti 4.36921980505809 5.175103518966042 5.569004691170744
Ti 7.173050740066142 9.602527738959289 5.160676362024795
Ti 5.513241802030851 3.5178143770642385 7.601823339728214
Ti 3.6867057588658936 7.460796852413585 6.962863692152059
Ti 5.865987997750833 5.051152132174582 9.78257336686761
Ti 9.300159171004944 6.103047319397555 6.919233970863943
Ti 5.830216420018299 9.010038826546841 7.364335583799095
Ti 3.631743081912874 5.280315608931747 8.26521966817797
Ti 8.525656688005816 8.781583778745498 7.28432016740846
Ti 4.812148631306568 7.4460984093099585 9.344800271333256
Ti 7.39046649590837 4.170243088654879 5.7402182438910625
Ti 5.918192770291932 6.074067461913282 7.437644962246578
