20
Energy = -126.70790968 eV
Ti 8.746840348355835 8.378107150162773 6.059577077642536
Ti 7.307724104907514 8.411595782675139 3.8059850315846693
Ti 6.048913530214994 9.098651456340471 6.571967431356308
Ti 8.959742677575152 6.251842344185871 4.485778366764352
Ti 7.827371472260095 8.19711355201066 8.31691090042905
Ti 9.035348163422084 5.9448402551836015 7.253885738449697
Ti 6.7706183983813535 6.724139050954002 5.573988372960093
Ti 5.1853978319890786 7.729789082311637 9.091068384451077
Ti 4.808317872368457 7.787875203300747 4.220510472412301
Ti 6.479220023812175 5.652126507409566 3.31015299330005
Ti 5.812487502712085 7.300597957720424 1.7489160942363404
Ti 6.179890895790283 6.03255349401627 7.633207604217957
Ti 7.651455243045102 6.186696260410182 9.719153321943551
Ti 3.9460436587839935 7.569648776890298 6.618223060456553
Ti 4.3945417999288745 5.295477668633049 5.29892313001083
Ti 3.6261351353102227 5.552265661002875 7.929205838473944
Ti 7.601134873168566 3.928945381483839 8.342087579296948
Ti 7.488027481161733 4.151544740382986 5.684918973461802
Ti 5.415764060064591 4.766742215330766 9.652488976927243
Ti 5.257631899591901 3.582054432439984 7.225657624469548
