27
Energy = -170.54217986 eV
Ti 9.717369163802077 4.696361405073686 5.618691150014929
Ti 9.76250617184775 7.289667020419303 4.262742107087546
Ti 8.236922135742772 6.8876958294349 2.6733024674500823
Ti 7.445451472263007 8.443046678492168 4.979862901433693
Ti 9.707943711100635 7.127987251565294 6.863018873121655
Ti 7.338058351744591 9.372391898288257 2.6274502919978295
Ti 8.169264965178552 9.220169876294287 7.647466392406932
Ti 8.564659556030305 4.777522328430713 7.98080745133337
Ti 7.4324138504716535 5.769893168472955 4.960717787527949
Ti 7.454662070064669 3.299866412773584 5.959377952502223
Ti 9.404023320711422 2.420117305101504 7.321735391683034
Ti 5.795240537525121 7.280673520791639 3.06825423969539
Ti 8.748987968785523 7.179822349050073 9.295701793155613
Ti 7.187314285671252 2.6967497634077082 8.505534251727987
Ti 6.996316340566585 6.931510094436462 7.409757716373863
Ti 4.92664045172135 4.5698881033992285 4.676283088692913
Ti 6.347833185893086 8.382304448041227 9.573940503854693
Ti 4.847600805775617 7.041194665899016 5.469625283378394
Ti 5.142738713653965 9.452932528810614 4.31773132139148
Ti 5.37389967999762 9.196696892863478 7.240638273725838
Ti 6.521177780173637 5.623779856263355 9.708870950143067
Ti 5.51764893965943 4.522590924571224 7.244869238712866
Ti 3.0096880539840734 5.4004266430427625 6.318443809785941
Ti 4.397828381632412 6.83252230960607 8.303099598740612
Ti 2.9231692972448773 8.245309233603974 6.638818728186999
Ti 4.28576489219049 7.098187065601159 10.826801480659439
Ti 3.596329999398382 9.009765390578838 9.348383795566363
