24
Energy = -154.12372966 eV
Ti 6.519388319957459 4.043137939889062 3.4767852514465907
Ti 5.196944094289083 4.3882438539148145 5.89210209917777
Ti 4.650807280812246 6.460793014570663 4.154052579555455
Ti 7.1723747531765065 6.070537291708451 4.577580263729329
Ti 7.866418222213368 3.6801662064967373 5.723180808999485
Ti 9.178594749614929 4.840269425570312 3.736615626315993
Ti 2.9891173358582535 6.0518783220588315 6.057087686648956
Ti 5.24472610049883 7.050147537306313 6.7956367640299975
Ti 3.622612096559684 8.570819665900078 5.3806405665269725
Ti 6.756533557207454 4.449677823997033 8.003534243347096
Ti 4.10349345100393 5.56014719029357 8.543019908989528
Ti 9.324629640359893 4.042895086828832 8.027138742988187
Ti 9.036474812780822 7.891339124527861 4.873788371794353
Ti 3.0729848034712726 8.018721886329674 7.826401020991806
Ti 7.64701237484023 6.921790139394741 7.038303691797291
Ti 6.209890345585648 8.731907269760491 4.756841383059666
Ti 9.878624567392738 5.755531971454795 6.28403507486388
Ti 9.079519071455975 6.366369997634672 9.072592553037852
Ti 5.296441332511515 9.648553664174088 7.236244967408085
Ti 6.534835418423434 6.2325330846251745 9.66455433027165
Ti 9.792112887015595 8.248312181098681 7.419667891413543
Ti 7.491518936770916 8.741862585493601 8.970825712796758
Ti 7.845053635379582 9.628359582503677 6.505191925914811
Ti 4.936368369252066 8.029080265117157 9.414632687357834
