28
Energy = -180.14780058 eV
Ti 9.754549107454082 9.159975835916134 6.773748997570508
Ti 8.024106090217582 10.087571115436717 4.681141044578815
Ti 10.467968814258409 9.106956684712111 4.373118785370148
Ti 8.753625818583545 9.05811380982111 9.60625673936884
Ti 6.446903625132307 8.317154579128 3.259946532585816
Ti 8.843523783520187 8.052304294831307 3.1018896314139113
Ti 7.361231620110082 9.669247793062533 7.565593874965994
Ti 9.33816507778482 7.0589555898455725 7.887808667573636
Ti 5.382472246096127 9.410169763793013 5.164669662177105
Ti 9.871092478214578 6.572584875860118 5.239788664233564
Ti 5.104531752112619 8.468511904219515 7.4475765805799305
Ti 6.1984653832315235 9.33818009559847 9.884626408871345
Ti 7.008952961265823 7.076108552899092 9.049898751485648
Ti 7.475820574722745 7.698337389427825 5.75927907656303
Ti 7.754134657195954 5.813603665771508 3.7630261768220663
Ti 7.915891851366879 5.202100603851359 6.568790350471467
Ti 3.157666170429843 6.818780268907936 6.898665174062616
Ti 4.177161358042585 7.290402739639134 9.416143515179632
Ti 7.27796642877856 4.121560977849623 8.998929147817426
Ti 5.031786100319026 6.6593256634629 4.978194073699759
Ti 5.303805697154245 5.166907971153137 10.30862862548497
Ti 6.015759272766822 4.238820588624395 4.699062307748536
Ti 3.7816417095378463 4.1194364170123885 6.292153390049485
Ti 8.579239371872896 3.504930058486935 5.070393335096419
Ti 5.456299606639507 5.521480905683278 7.578186723848429
Ti 6.283919235883358 2.913371106279968 6.758124252194494
Ti 4.751670814981347 3.172600657322892 8.736545499755593
Ti 3.081941359760781 5.002242848064401 8.754286358236511
