27
Energy = -174.45948603 eV
Ti 6.764982906494066 9.424366637430088 3.8594505738065132
Ti 8.012381500169399 10.61116396638604 5.602917786435523
Ti 10.192145297145043 9.848424553204355 6.958521508250334
Ti 9.096460325823582 8.426210653746859 4.738471311970047
Ti 7.0519994829832555 6.884015772395847 4.0250105471391056
Ti 6.1114176414981936 8.938913607055374 6.32413763399049
Ti 7.442036350610301 10.673107710799327 8.16623842743766
Ti 8.66203218748809 7.961654248048389 7.5277032321569655
Ti 9.012843964276247 5.76047254059622 4.965882883119323
Ti 10.7636899729811 6.989220053391809 6.6306101561241135
Ti 6.760215448248066 6.1952809935822355 6.855306356616099
Ti 4.992298088017046 9.751988051450384 8.814102296373298
Ti 4.843202513476341 6.847216596225981 5.044171163486921
Ti 6.72127779628102 4.40134840680921 5.135872383744002
Ti 10.883387309728443 8.247286274199235 9.00419363991091
Ti 9.969091027641468 5.935308374531544 9.087765408804001
Ti 5.165871452281677 7.498967910832216 10.41962154435043
Ti 6.773821011843918 9.802485792481368 10.689046992492196
Ti 4.182029615038852 7.337181251083432 7.776240756003447
Ti 8.9551645680693 4.593430799732826 7.121007776399212
Ti 6.874183795701744 8.02939249236527 8.911168427464574
Ti 4.4752752718545645 4.850744430951041 6.637022905263486
Ti 9.235740089869735 10.008325478169894 9.599842582714585
Ti 7.597737219566285 5.333525517464755 9.600883718583425
Ti 5.0419131081218715 5.257012842600712 9.063033882408757
Ti 8.848521517122702 7.733513377762351 10.729350386206542
Ti 6.568533568840006 3.66082780013315 7.728801873938484
