28
Energy = -181.19394719 eV
Ti 11.529391579813122 12.491803113165101 7.013812843236611
Ti 9.598969173516346 8.513838200486296 6.180595216989514
Ti 8.811619113011165 7.316394084521006 9.055913015420375
Ti 7.633670409669836 6.723467813876722 6.5854482587775225
Ti 11.468821639635667 6.24562919111387 8.993188731816876
Ti 7.1245383403165405 7.016100119019422 11.021016738295845
Ti 6.925324533763526 11.845204856969266 9.109355372356333
Ti 8.822932631998324 5.061670709739139 8.85077840976858
Ti 11.347793824802972 10.304351851073593 6.260932893112558
Ti 10.283634691997738 6.232337619698001 6.868672967969852
Ti 12.922463778292622 10.471885131416268 8.422572691886552
Ti 10.574024625633598 9.107620968414997 8.820612377389466
Ti 8.904938529037173 10.955205730033637 10.337766528589865
Ti 5.201715614835322 8.32692064625248 7.043951578348412
Ti 6.0294095730697155 10.939658168017619 6.807156747623897
Ti 7.234935570502007 9.2132574989474 8.462166156916565
Ti 6.518707886309963 9.801249463496184 11.00401180248193
Ti 6.278015314712806 6.23295581584072 8.587901610244135
Ti 9.060011468262209 8.95274664409181 11.495265274552319
Ti 7.327093234946589 9.25292103906304 5.626526312317965
Ti 10.698630497390992 7.310215290062278 11.078348049379832
Ti 10.769465317824135 11.992528314228796 9.069983358345128
Ti 4.823554381021424 10.28858740727608 8.931125865849749
Ti 12.949916669216217 8.196089446496721 9.761475863899305
Ti 11.560120837057125 10.159994836409966 10.912253360270089
Ti 12.36276812763937 8.069474137844031 7.166084524891512
Ti 5.0555290510652675 7.93207730047222 9.745754615090307
Ti 8.864005911527045 11.131170160838405 7.159858398417089
