23
Energy = -147.98984829 eV
Ti 4.366813596912099 6.865932514811023 2.274509119638609
Ti 7.187050976209552 5.89448512056945 2.8165962423004096
Ti 4.703559113925155 5.084518531501705 3.5877987981030097
Ti 5.265040889042392 4.352892974845019 8.552477948462686
Ti 3.9679568657968987 7.246101434601402 5.207904049336074
Ti 8.906532029941143 5.368477741748998 5.037302701329097
Ti 5.817204701602691 8.166377109774794 3.4952376709552535
Ti 8.18406141233384 7.912643720638133 4.161238286816262
Ti 4.591144581700281 4.501296149614619 6.0402658801674445
Ti 3.8960812043096533 6.372930548987413 7.711774047266273
Ti 4.989328039397769 8.685597171920872 8.527536346765174
Ti 6.154129491203677 8.903137368697765 5.959691430594768
Ti 5.022687849690725 6.422059538406713 9.99089572228519
Ti 6.76022044453723 3.8131744894504536 4.403899809167822
Ti 6.525125154415085 6.223358823926117 5.410639389431601
Ti 7.295650544375553 3.8867691199370062 6.940403870722995
Ti 6.69203891432879 6.714064569351921 7.93849316942611
Ti 6.92959737668561 7.923507230916159 10.310480212825173
Ti 7.51224439871857 9.308496864375307 8.156805905362813
Ti 8.943887922743302 7.856505086377238 6.483301383103839
Ti 9.21718258600424 5.418774944573815 7.61192673375927
Ti 7.540822448838152 5.213637367584338 9.801348882927629
Ti 9.045999286547495 7.379621406648891 9.093832228511957
