20
Energy = -125.98655301 eV
Ti 9.779932076181433 8.695255894554455 6.390549911018609
Ti 6.485398307174658 10.20514351482098 9.173094956031726
Ti 9.896287560210135 7.847460477285281 10.77801192207221
Ti 5.558780380199419 6.039063301557336 5.718331995665968
Ti 8.196276729124438 8.40386158580028 8.736797122943134
Ti 10.81935851446013 9.17685299060138 8.772219660197509
Ti 7.985450947169192 6.0784062457188295 10.189291458531216
Ti 7.961793132832321 6.338661368936849 7.191056157426626
Ti 5.769705192298465 7.5145735058304295 9.836242125038941
Ti 5.904111289758529 5.5138303428438356 8.320187083989182
Ti 7.7681073928708315 7.677654488006334 4.895250725134548
Ti 9.017515857190523 10.320019690093012 10.381742217057525
Ti 9.813500060826996 6.074393245422374 5.469286928139451
Ti 7.437529205790351 8.466867443046414 11.294149520947695
Ti 5.259730024046142 8.467426687254656 4.916337707160182
Ti 7.705472042499981 5.0175058451564984 4.986836326336111
Ti 5.419089352468944 8.10241397589339 7.404508275508793
Ti 8.93870346938709 10.830212437925795 7.904408068765742
Ti 7.228163285583141 9.834540223586382 6.474275079683437
Ti 10.30328894217003 6.64405049790688 8.415616520593451
