27
Energy = -173.00312192 eV
Ti 9.932316626605301 3.929441914932488 7.03323335027946
Ti 8.448815149033337 4.870420540769108 8.954213812019896
Ti 8.410401387168246 7.671164139979818 8.62656837952298
Ti 10.28819725019006 6.34245116355735 7.657515015393329
Ti 10.304274796866133 5.7306647492572615 5.084916585265566
Ti 6.429214216419408 6.526155508075042 10.0198807025179
Ti 7.859758801782314 5.7915513393059195 6.507773372631026
Ti 7.304580370503892 3.238663885305044 6.893844121325535
Ti 6.436766726505918 9.055170299688424 9.481347265646527
Ti 5.850950176369243 4.464110789532569 8.539759917313166
Ti 9.147079765735905 8.118061882103797 5.872513315751831
Ti 4.203214301276311 7.927269888646372 9.824120545135754
Ti 8.988684633187138 3.3184104726472077 4.882210933856533
Ti 7.148700590236665 9.572550548240466 6.8707447856111985
Ti 3.590155864309951 5.776397144769758 8.118215264495527
Ti 5.621847947492877 7.362504123254171 7.525140242345328
Ti 9.183630937713485 4.35947337897485 2.883232549370547
Ti 4.545144957966734 9.862007157705634 7.8572156216524665
Ti 6.834867862721142 4.6591738744216435 4.194381851520261
Ti 5.080596389616844 4.875409563010093 6.161623470788723
Ti 7.458784084404431 9.317321159291206 4.181315630262479
Ti 2.5022400962605182 8.01177420807923 8.081058111348943
Ti 8.43208797657804 6.744379336864268 3.6322720274621663
Ti 4.925089272006681 9.538197734158782 5.339027778053455
Ti 6.145623502384513 7.270028784170228 4.748991430078537
Ti 2.4245385422925723 9.500030620693144 6.292817511660948
Ti 3.511824708514463 7.20778199806843 5.7389360194527805
