26
Energy = -167.38975737 eV
Ti 10.316202476309263 9.765214446016554 8.224631601476476
Ti 6.030531534708124 5.495769040643731 6.085793479007706
Ti 4.228745254056737 3.4624920454662 5.987839408016909
Ti 7.371914425664237 5.79657693598526 9.563260068227875
Ti 5.675363808855038 4.184509846168089 3.886527613061503
Ti 5.066585366407959 9.28018252364221 8.388348364186683
Ti 7.846769538511289 8.593221002348884 4.950899523488772
Ti 3.6146580568009203 5.72992606184789 4.83339684462667
Ti 5.8297604731286174 9.601597453782713 5.990478926676043
Ti 8.151134602655254 4.140667818398557 4.782279829330865
Ti 6.306396836530784 8.16190756017262 10.1512830193097
Ti 6.6118147040600075 2.810421613524144 6.1491492756496315
Ti 7.816000968076376 9.75807441778946 7.862748132363083
Ti 8.866976204840135 10.968743495011928 6.040539719471973
Ti 3.406479808380858 5.307857051465323 7.324246851914752
Ti 6.911528686486206 7.41880245479455 7.481190999568661
Ti 4.7637736234364 6.551560927591247 9.05390074850504
Ti 9.16624697780024 6.139848329511381 5.7084024776828075
Ti 7.442814586234203 6.255218722300213 3.6574263977874164
Ti 9.96562099173245 8.638633506787562 6.122824243345576
Ti 8.270805176189294 4.344188512576679 7.476384158170165
Ti 8.58618143488776 8.235912477519836 9.873560806239986
Ti 3.9638008583646633 7.727331109924616 6.586541067801179
Ti 5.372595725482092 7.624660120085948 4.33019419185115
Ti 5.642870096961508 4.033556479850728 8.320287078222622
Ti 9.660989917954023 6.994492653985702 8.160046662310865
