28
Energy = -176.94124251 eV
Ti 4.094289282833184 8.383428736916454 10.316911722402692
Ti 6.161762638790093 6.364430477607231 10.594652793774815
Ti 8.21842905483653 4.840645228495176 10.776177422579936
Ti 6.466501542853634 4.236823674826544 8.963271335416543
Ti 4.614581968015053 6.21365379585746 8.549101702636055
Ti 3.0669065624023135 8.373072583211862 8.111279543082455
Ti 4.773428425897944 4.480819514931066 6.304441822726949
Ti 3.3956895532700893 6.639751403695854 6.2084095151151715
Ti 3.5008415885693043 4.771923025341161 4.065526361222473
Ti 4.254591400985244 10.371913892612788 8.511129935605519
Ti 9.120667545797485 4.133250068913787 8.537240799624763
Ti 6.103612860657234 8.620637499637821 8.79349510256092
Ti 8.047996923465941 6.472891737605157 8.861091839656407
Ti 7.570587480709836 4.054563408108271 6.4859968954652585
Ti 10.351117947331018 3.806732816140667 5.913805466438668
Ti 6.603434005148842 10.658427851056617 6.819777956324143
Ti 4.901471461125236 8.86111492571684 6.2071633088207365
Ti 5.030487390349308 6.83011112022027 4.229494751547832
Ti 6.261172762933331 4.570729432410676 4.2113928052534835
Ti 6.466155766196171 6.604556619256582 6.525286666413838
Ti 9.411613296841129 6.14908860351688 6.412325190605746
Ti 8.848601256061968 4.160337259427672 4.087243192583544
Ti 7.86140660513824 6.702998835992668 4.140863177985993
Ti 8.29596202054355 8.734825129789094 6.904856142205008
Ti 8.825990454667942 10.783193016146743 5.539435470284688
Ti 10.55563980426969 5.814355774459488 4.130083639647785
Ti 7.005348329038188 9.263534604850042 4.539024451980228
Ti 9.581646926504087 8.50553891433947 4.675264729304677
