29
Energy = -187.73829802 eV
Ti 9.004937506629261 3.8419779733281505 8.113731588202798
Ti 11.453746092858513 6.956083301667516 11.23684585629719
Ti 7.712176293555135 11.8246287221777 7.312779028829231
Ti 6.18044901907031 11.31792871060647 9.795868698099552
Ti 8.768851441699091 6.932203293410753 11.292382715346417
Ti 8.265205205235862 6.679883194874759 8.471563885553495
Ti 7.780131798766747 4.583341574208761 10.165732239038363
Ti 6.6922380538404385 4.820786326034935 7.726608287040367
Ti 5.709483918859963 7.5153804529700245 7.795724774534867
Ti 7.088545079278266 8.60612998175778 10.048183933440313
Ti 5.923754943590173 6.232042087548986 9.900333650561825
Ti 10.28586452497721 8.274769999237725 9.193836255200033
Ti 10.295485456802007 5.171068924533442 9.976723466396116
Ti 10.312117837889645 9.404246108880002 11.552685544028908
Ti 12.395865844730913 9.023383932767638 7.589538167388912
Ti 12.761118288006708 8.693988606800898 10.170232088142052
Ti 10.228188110669144 11.943239092084955 10.91201727777391
Ti 8.744912179209622 10.425718668471905 9.131236604191724
Ti 4.663343029043379 8.87362919114124 9.910724463757143
Ti 10.123908998716091 5.415799351159098 6.9634675949258575
Ti 5.860464151444565 9.976414676104842 7.82785116450988
Ti 7.938906578237889 10.838254494630819 11.66281422783051
Ti 8.11008314992384 12.920800367748207 9.942414830461463
Ti 10.056632514155663 12.654555596929654 8.352822044377422
Ti 8.012346789203711 9.031325396300614 6.7085841766156475
Ti 11.766353401107203 10.89340901405147 9.123930588503356
Ti 10.256058110554301 10.554778277407912 6.817083006257651
Ti 10.466350439873901 7.809558601214387 6.50994194755924
Ti 12.144512925283081 6.565085818655243 8.533989893126424
