27
Energy = -175.75597655 eV
Ti 10.222484848419468 7.0712698201087445 3.5784650432520784
Ti 9.777976788920483 7.917792101308576 6.192861320412753
Ti 10.15384102581431 5.251497672374599 5.471929295479459
Ti 8.61179771664135 9.065542720338188 3.924277141224966
Ti 7.850418422480603 7.146075684971527 2.2976420135605102
Ti 8.852223515297327 4.822977669451026 3.161573226698923
Ti 7.345108537561766 9.528399756393698 6.141262759823113
Ti 8.006831091145601 6.620886995061646 4.812129751264682
Ti 8.71590733605904 5.739622007513354 7.66030534303387
Ti 8.284602774474484 8.292037193944214 8.285585026479254
Ti 7.872269832635972 3.9958531448101877 5.477847853481224
Ti 6.008294612326561 8.309868815472933 3.9135259767087653
Ti 6.4724056204052545 7.107967335839364 6.649157290826841
Ti 6.149343658037949 5.4055136766667475 3.527931104570481
Ti 6.972168881814956 6.608500657227083 9.74752978789599
Ti 5.661577391467316 8.84018102131879 8.554783829567588
Ti 6.832576449576539 4.062696246349164 8.425527924951693
Ti 4.710284676686337 9.099151209918718 6.067023632467451
Ti 5.414512876498689 4.305383335349737 5.941626511825948
Ti 4.977520369820111 5.911984286042898 8.110035967786743
Ti 5.08475988579038 4.752929432640359 10.388474321125992
Ti 4.331895164044735 7.316087432107128 10.206255678268837
Ti 4.138409714425833 6.705235200235919 5.1552273535753015
Ti 3.1720800877817434 7.685973409035733 7.6627286188067965
Ti 4.239917100893039 3.4228891503763434 8.226866748238416
Ti 2.891753832854177 5.087356649800611 6.661925780733738
Ti 2.7483475326525104 5.425637119869834 9.256810442464968
