28
Energy = -162.1554143 eV
Ti 3.854487160557411 6.053116719203659 4.640434828444775
Ti 9.57589913990152 15.143519114695161 9.036289627746646
Ti 8.780614927861649 8.477947023139086 8.962953709219871
Ti 4.899158044052617 7.983697935656654 6.9042434732788065
Ti 7.048515446304781 7.169140343156983 10.642663341020482
Ti 7.199812373829327 3.556939523375865 6.804781231548664
Ti 9.288705784366863 6.083717632932415 9.904718554137608
Ti 7.356328937209823 6.33996048219348 8.037942109546025
Ti 11.39282195577675 11.686441293023254 14.504816754327138
Ti 9.49124582997642 8.398781029766395 11.729175150897422
Ti 10.364355691454001 15.249229629178123 5.943714141881966
Ti 11.131302180874846 15.364209706070987 4.124332572708994
Ti 9.671677184254808 14.794503487029427 11.005042841119359
Ti 7.511446664435328 8.601750761599542 6.503734019515144
Ti 5.125134663546175 3.709219429774226 4.737931886674304
Ti 7.6259235297142824 3.7967601353961977 4.192297247324168
Ti 9.510163490236735 4.39324631811009 5.80700496935957
Ti 6.803785963675186 4.604918852380166 9.655562829907895
Ti 5.7203595008991535 7.878325405416583 4.4139030608322765
Ti 11.109855549864026 9.5355028861655 13.323844872171934
Ti 5.294229506852053 5.41569794208162 6.655333092406715
Ti 9.201896884654365 4.222418260248668 8.326841018618723
Ti 10.535060771151851 13.150520667008369 13.498385161851042
Ti 9.814861200099763 6.720379309902238 7.244472238812544
Ti 4.9390930341252455 6.560259235584733 9.262322278572663
Ti 6.234468475115069 8.833480501094455 8.871687542947722
Ti 7.542433349729722 6.17422172685997 5.198810147066305
Ti 5.8742716634395755 5.615576281885296 3.2128697805447377
