26
Energy = -169.02419928 eV
Ti 4.311462348759173 7.309459260164707 9.29306678551984
Ti 5.245907856025233 4.8931931935121735 10.30815610538101
Ti 2.9437720668202574 6.534963035647229 6.961762128914672
Ti 3.181492520817858 4.899658240079893 8.736524378670623
Ti 7.27888712526444 6.618745360579695 9.693881346640449
Ti 6.595959494618884 8.484744198954179 7.942216796315955
Ti 4.346132594701597 8.460019288403403 6.734362279536215
Ti 3.8961847612862153 4.184791361106907 6.115330684072576
Ti 5.6078616756111295 5.6723612869550575 7.907951317459291
Ti 4.975714032539348 3.081137568976703 8.37225310711306
Ti 3.8472307568436794 6.6440594108259585 4.416072842641237
Ti 7.322470919913408 3.9834243351496377 9.053221004965286
Ti 5.770906344804054 6.2455920096344295 5.640955761796989
Ti 5.625466245497575 8.897158855032595 4.574623141558754
Ti 5.646904107542915 4.407202576204811 3.9847618770415547
Ti 6.6092950516124835 3.5047282579512937 6.367636192262056
Ti 7.80354634658504 10.10644449327542 6.125205878035768
Ti 8.419347368820993 5.618932422773918 7.480001151390435
Ti 7.870845482623195 7.577479581925982 5.601943976510173
Ti 9.242988280008598 8.298013288723656 7.716256235381542
Ti 7.947237094956509 9.257462247155951 3.5978287478386495
Ti 6.639136382837075 6.862829175121525 3.1547250193588217
Ti 8.238156900698451 4.960653411313264 4.614222509219684
Ti 10.022721557804966 8.971070011353808 5.199959707102017
Ti 10.257639394593362 6.4794636051623415 5.92984834432016
Ti 9.349294913049048 7.042975148651113 3.473794305588827
