24
Energy = -153.10173052 eV
Ti 12.294401793043916 12.084751935490722 5.71251350121675
Ti 10.488767694328892 7.194489640151167 10.672115489645629
Ti 9.158380202186873 9.233017688129685 11.946904208087249
Ti 11.940514770552598 9.702766734741443 6.843096704427837
Ti 6.531904251986308 6.086602889549277 8.205420309122015
Ti 10.000303872599037 10.913964914617951 5.442931148747063
Ti 7.252884853244957 10.858701005798272 10.98198981647979
Ti 6.50864936919661 6.044615649712482 10.726905864669599
Ti 8.44658966650437 6.75317500219419 11.921806116472622
Ti 7.646627083036592 11.164207914470348 8.399904285159385
Ti 5.617647419690011 9.944921889659206 9.436568798592663
Ti 10.939652544070986 9.43196186406197 9.713039482325678
Ti 12.215536290292514 10.231900189134262 4.285015852439285
Ti 6.38973222954859 8.557574724912168 11.771187072060796
Ti 10.602198327686414 11.535047487357279 7.970963229872538
Ti 8.85461761065407 5.539150121570914 9.463210811141614
Ti 10.566247106837265 7.257568605852301 8.118293899220873
Ti 9.454856064932807 11.290507260886645 10.312550991249783
Ti 10.573112506538406 8.342953603515213 5.199535922221476
Ti 5.137687336328622 7.7141982512789715 9.455649448804156
Ti 7.988713517507627 8.247969493885531 9.571923838665827
Ti 9.16871426101493 9.341487711582683 7.238045984525905
Ti 6.449850716449713 8.665256016415565 7.218577476244125
Ti 8.420208182211132 6.900455121034524 7.023472712765999
