26
Energy = -166.82887721 eV
Ti 8.682358674530068 9.974066504037408 6.06223488136168
Ti 5.874001742611346 4.148386221736208 5.516020303285768
Ti 6.096798610202108 5.8205964003507775 11.663667980392631
Ti 8.506503161002362 9.357709252256813 3.632660441654107
Ti 5.5828366844308155 6.189836971056446 3.7228404952599012
Ti 8.588062804170061 5.070662186381011 5.1937816712409575
Ti 6.403546301605393 9.205369053637849 7.580203197002192
Ti 9.046581932914657 5.950950387196687 7.526695621417871
Ti 6.4177143437251765 10.210229606635854 4.997470689800503
Ti 4.634020266805197 8.334841178794852 5.391071109675215
Ti 3.740297800941908 7.139314441776521 7.827470162614906
Ti 9.912682229639113 7.546099443295627 5.2497280765968615
Ti 6.159309833306562 8.501388405964459 3.089829245001236
Ti 4.634862759080527 4.305049805323829 7.89323220483521
Ti 6.250914744988833 6.409972392577859 7.439883247121673
Ti 8.38722533697348 6.803231622014441 3.0526289908611624
Ti 7.398098675995713 4.396851685902794 3.3056250014882718
Ti 9.136310080535615 8.413713241459348 7.657239752908853
Ti 7.338970532486309 7.681423568484944 5.37808058949142
Ti 7.215181570009541 5.177670623822154 9.609951325985929
Ti 4.219847846351796 5.5653566342473795 10.007173842433675
Ti 7.7563688828193085 7.624804364128061 9.540484036899208
Ti 5.384423590116706 7.706615327437696 9.811306015023805
Ti 4.046053038093453 5.843696407970836 5.7508515403710625
Ti 7.3069016867700185 3.7397152671430702 7.515514179438657
Ti 5.701725785750352 3.4190346900340596 10.209019469442822
