26
Energy = -166.68264222 eV
Ti 7.534398560278681 7.7716299547717 6.605930823563741
Ti 5.829612662470039 5.924856589014326 9.805155359581084
Ti 5.753585131729167 4.102624948306772 7.72417803109706
Ti 11.679937235879162 6.3106781577210285 6.431190947287668
Ti 8.009834478426791 5.363591666787634 8.3611958002462
Ti 3.8579886140341766 9.201970599671842 6.772124032304916
Ti 6.189307569476248 9.912531317284717 7.748949977801447
Ti 7.206328186600495 7.703983818849719 3.987375379041339
Ti 4.00279328304916 4.92650638902633 5.864630443790202
Ti 7.294447189113321 8.073458340639453 9.346539832081291
Ti 3.6130090104496073 5.516245034540657 8.730460439378955
Ti 8.19792441366257 3.3909158768837764 6.6651658973526
Ti 8.887323500427863 9.657682079122907 7.705957626128017
Ti 7.862183733895188 10.063417647268652 5.37124374767023
Ti 10.556220771284455 4.498911707229847 7.658966860922512
Ti 5.619933890398297 9.500473980473043 5.091058624880671
Ti 9.772478140075549 7.136110278399599 8.04753350602915
Ti 2.7373526441306493 7.143052712114078 7.102681553388169
Ti 9.79854861877845 8.25851064886961 5.529974243979927
Ti 9.380860599713573 5.572719234145311 5.684987179822542
Ti 5.709032041827788 3.0445632012238426 5.0631040885119525
Ti 5.3367248263592515 6.935854191485973 7.350770000358379
Ti 4.309325262035667 8.152087529747776 9.240667688333861
Ti 6.693335008311125 5.290638153719902 5.418858525783138
Ti 5.180256291520554 4.890017019732146 3.4475572353593558
Ti 4.4401926867170705 7.223883346980978 4.745857257830932
