25
Energy = -156.94720502 eV
Ti 6.450193322207152 5.9868320944205085 3.345762286691726
Ti 4.12230716081596 6.1086162035021125 4.477470176125022
Ti 5.386772769514181 8.379777604461056 3.970995584267287
Ti 8.396357628172922 7.6959585889550235 4.412530432558474
Ti 9.710496105000844 9.377007463968864 5.791440879974475
Ti 5.880626726035607 4.167500702073852 5.025012765005236
Ti 5.032539571985783 10.921834623055371 5.412553944711436
Ti 8.448873831333712 5.173200273334574 5.1566420441259595
Ti 10.672024842548668 7.043787194040504 5.573868610321422
Ti 4.290439861982765 8.61745039330648 6.364479682565122
Ti 6.1892683162844175 6.687723515832424 5.8676296239260015
Ti 6.894575590258106 9.309956662590304 6.1093031671112445
Ti 7.757007963032199 3.161639199685478 6.592744068366539
Ti 8.741318389474438 7.308631780626095 7.150613652386213
Ti 6.997872531048838 5.374988279368326 7.987913687801366
Ti 5.994080247012516 8.02428867351409 8.575642527049238
Ti 7.978259893289843 9.87009998181438 8.382846922691634
Ti 9.549154480124875 4.630648845707039 7.697820953787785
Ti 7.722948109160596 3.2169675178853816 9.150578673404814
Ti 5.320981268986945 10.463209389732109 8.013668859365676
Ti 6.129773473618584 5.740337411221774 10.360262451342651
Ti 8.797860553238658 5.108914315071514 10.135576670885449
Ti 8.208819026338425 7.574108876413902 9.875704994181383
Ti 6.007608158896178 7.7644119513063 11.375516196209306
Ti 6.7216851584852115 9.693953436959857 10.59526612399209
