22
Energy = -138.21891802 eV
Ti 6.082074157971974 6.584857411695954 10.058961480778422
Ti 9.818952698018247 7.488982491009316 8.195543877130945
Ti 5.592786849285959 6.385136070560776 5.122000281995935
Ti 7.374847722296028 4.433139492399108 6.037964653984082
Ti 6.199168378969217 9.16307600280118 10.956015157239703
Ti 7.142665942351444 4.176460433842625 8.775252884174822
Ti 7.227761974714915 9.20219101603987 8.515600169277826
Ti 9.441874748289996 4.9628239276733845 7.5682649837727975
Ti 9.879610211883126 5.375814122403684 4.723700593954996
Ti 8.809927927445868 5.707399674918326 10.010057000998673
Ti 4.986391217460081 7.847048037743456 7.198268232048751
Ti 7.596486684239882 5.646328936089274 3.5624868348942735
Ti 5.127403432445884 10.346827868814316 7.345603833554657
Ti 7.3440303903212945 6.579737348319368 7.8763274832440935
Ti 5.089204517232346 5.183553051970265 7.622145613258653
Ti 4.482904027245562 8.775072365117046 9.455923655730889
Ti 8.356777639547877 7.021474136553607 5.718077157042471
Ti 9.344009191990256 7.5403292447829875 3.419322669888462
Ti 4.68312476998574 9.040407796047537 4.895431687449024
Ti 8.467978172234218 8.008874708482145 10.42787581062968
Ti 6.774020445697072 8.050572737163211 3.469804124266709
Ti 6.991495837081488 9.298955342067721 5.85310078516109
