28
Energy = -182.98755505 eV
Ti 4.737660203467307 8.84507576890272 3.7736143997290696
Ti 6.7427394719362725 6.969685392753341 3.146163374947742
Ti 3.95832191342654 6.159109040214821 4.080986435946557
Ti 7.097990885802383 9.579028848977607 4.5438709604074425
Ti 4.209116629726522 3.483226815741889 5.711087970768214
Ti 3.270254848577711 8.163965319771714 5.87600346184577
Ti 5.088970449623263 9.829869504794505 6.514615802430654
Ti 5.791394830486204 4.4703946514977195 3.4839880036128967
Ti 5.920188404964505 7.451493623276179 5.395768968576041
Ti 9.048388585080835 7.753263336787195 4.70586844384634
Ti 8.28839111026403 5.034790598094818 4.326713694084651
Ti 3.1845904416002258 5.923165396208256 6.706840079221783
Ti 6.842630754620237 2.8082727909449776 5.094782635860537
Ti 5.871229928178758 4.979906672189138 6.116284006522406
Ti 3.638530148909044 8.048697637138211 8.663795449690461
Ti 5.561317473421694 7.2957532832825205 7.672601342781736
Ti 7.8013960621689264 9.313461720656653 7.009244442589525
Ti 8.055973749808164 6.4550284083206595 6.783266095500117
Ti 10.351120046741345 5.720842677404952 5.907900455283236
Ti 6.137349885964023 9.303208737836256 9.100057749804524
Ti 4.496661302881695 4.874166278342525 8.530328621247204
Ti 6.224019056632891 2.9268182889461243 7.673578497172337
Ti 10.092671760581538 7.9377856101025985 7.295968098822267
Ti 8.637775724350389 3.7645374882770697 6.863032040282963
Ti 5.715084592135014 6.819175932789027 10.1404967060572
Ti 8.171448862187242 7.590016121842386 9.299241626692654
Ti 7.269805400016077 4.918264093205705 9.098220592445893
Ti 9.798886692508725 5.584905177762136 8.48958925989163
