25
Energy = -159.94153758 eV
Ti 8.270503038653626 7.9122182433981525 3.3028542062690853
Ti 8.569714759204718 5.363079732391825 3.796204219131839
Ti 6.404957728743625 9.265725972498851 4.458310546547001
Ti 6.030249449843973 6.522749602317092 4.122350637137656
Ti 8.092251279730196 6.9034252663403874 5.696733336242882
Ti 10.391322469224287 7.237707122519209 5.044665976712427
Ti 8.821468136544606 9.57020352222347 5.164754341270722
Ti 5.115933417123352 5.8641152258012585 6.553394533298205
Ti 6.638009752341036 8.349036722875617 7.143137747901961
Ti 9.534668758111543 4.7134214486014585 6.237530782453133
Ti 7.019491639931719 4.393331628256171 5.790533436741769
Ti 4.3966246203688 8.355832206274984 6.031610169397046
Ti 7.102064839889096 10.62950991439607 6.974401926305112
Ti 7.64612019280036 6.116718074546486 7.975964197148031
Ti 5.696661475280305 4.733594515285909 9.039673138133999
Ti 4.646192336683285 7.243096511668641 8.69102989177051
Ti 4.854331408086129 9.847089678120263 8.486304377064531
Ti 10.44662474568732 6.39394678673341 7.739876060782437
Ti 7.176519485392642 9.222898800776132 9.569832218751197
Ti 9.471768435163897 8.814119637297331 7.4993128003537395
Ti 8.833515377661202 4.733199518228567 9.305647987017963
Ti 9.250103734800955 7.388521314627922 9.712192032528241
Ti 4.43845344050491 6.000975948839087 10.944396036121697
Ti 6.885968099170368 6.645780452982262 10.553837722055269
Ti 4.998871877348952 8.512092651291473 10.897842177155507
