28
Energy = -182.16504057 eV
Ti 8.319851116006392 9.749431714205919 4.1545546695756395
Ti 7.475325020622141 10.40591122289591 6.592265701041513
Ti 5.84487523077054 9.678028825741158 4.4648037093351265
Ti 6.743618784111675 7.629213591421043 3.058897484241965
Ti 8.90747153064261 9.488361123661415 8.692170609455001
Ti 9.499685811264337 7.626681208970607 3.863757538691813
Ti 9.709030068673323 8.621532221926378 6.374733065781642
Ti 4.958441368339244 9.55012390253145 6.754239005649091
Ti 6.814055152898868 7.918564182092943 7.969885307498156
Ti 6.421276953959686 10.043232966101511 9.137786603184306
Ti 4.63278787877327 7.320470462397602 5.059461460351171
Ti 8.247793838295452 5.585445224429825 3.6590426197013546
Ti 5.801712837270811 5.000487189076217 4.250076509353975
Ti 7.39113042005715 7.6969852959200065 5.497973517313345
Ti 3.9893503042748852 7.367846170120677 7.562594847851548
Ti 4.140264538788137 4.84357765599076 6.489782282017834
Ti 9.614972710559442 5.864371443469464 5.9561105207468685
Ti 6.614600837362402 5.455585398294142 6.844027107673371
Ti 9.293004698240125 6.806908161784545 8.426865950848075
Ti 7.748783446490772 7.998079819615945 10.441351043024431
Ti 8.13201590359961 3.7828621750862865 5.188624988816083
Ti 5.1217695749551675 7.797342038651331 10.079830401820045
Ti 6.0764422258595046 3.0026589744395378 6.210482609524324
Ti 4.444036166185008 5.591500576442389 9.098906781068857
Ti 8.347907408964165 3.7686864507775275 7.723258186680039
Ti 7.392598390920294 5.505501759659364 9.646467781706818
Ti 5.765918054053105 3.6117966086364293 8.689602223873118
Ti 5.822120323745001 5.5561882733320065 11.370807890775911
