20
Energy = -127.70465455 eV
Ti 7.8117170231198925 7.583693981782013 3.6362096715676824
Ti 5.3379564038887075 7.316220987907639 4.272497117411473
Ti 7.166682775459891 5.426640864315407 5.174735148273711
Ti 6.430274219897493 9.73005050239522 4.498512304678533
Ti 6.556400245847114 10.215132148601212 7.2976365836795285
Ti 7.073218117994832 7.889446649961157 6.081539600678877
Ti 4.646769952826511 8.905371411135691 6.1960978395690995
Ti 9.56969678758296 6.784878056228859 5.58999221494717
Ti 4.921806982151063 6.234442281320707 6.847263082138344
Ti 10.376255309292603 6.6280682921373275 8.093563685014452
Ti 9.061736316399722 4.775639998609379 7.020107198466849
Ti 7.527100999862912 9.493353024495212 9.442877724975379
Ti 9.317206720280756 9.072816785259015 7.433373256501516
Ti 7.665328859643321 6.978471669162595 8.178301462571342
Ti 8.429897776032101 5.214501692524424 9.692286906576268
Ti 5.229085973893772 8.277162506925084 8.74899003014493
Ti 5.645673883410359 5.674136227703983 9.408123492205238
Ti 6.697792781523182 4.409430689111564 7.640071482870982
Ti 9.443585524864679 7.923750214257798 9.925136459395231
Ti 6.984101765993846 7.359080436131845 10.71497315829866
