23
Energy = -148.55590371 eV
Ti 7.417026938754955 3.8856027624783773 5.578966017965087
Ti 4.799178158652921 3.4473536809863634 6.300683474449699
Ti 6.492207709356142 3.2929944516580143 8.057742468838521
Ti 5.376057858846711 5.232578053438967 4.317645222157154
Ti 7.938962921968836 5.601602635912926 3.460827383761794
Ti 9.613947457571996 5.4529065668503724 5.208250876464728
Ti 5.843741315191562 5.790241242461376 7.218592572486822
Ti 8.647042700324212 4.920978027185345 7.690506885938906
Ti 3.3571969732453217 5.461889743330464 6.124843105075129
Ti 4.188756033236305 4.755292701181686 8.67458321718021
Ti 6.422193710906736 7.5593920106471195 3.3306325351564756
Ti 7.382632191960838 6.900102056469414 5.797718995765535
Ti 8.966837272679637 8.024706344612776 4.331277702727616
Ti 4.429638350001815 7.598985927178818 5.030222471971425
Ti 6.75440166856769 5.086702471313231 9.690509874245986
Ti 9.890172765400072 7.243268231356975 6.827611871940412
Ti 3.5984673595165195 7.43692999821498 7.723217806304892
Ti 6.545159279768557 9.47417561484872 5.031715295559108
Ti 7.918163580661232 7.359586390638586 8.707659048676978
Ti 5.34560071445414 7.119902572083653 9.557643722561439
Ti 8.413647236674098 9.229954921637244 6.7710904498983755
Ti 4.151879895334134 9.709809864032298 6.315171462967003
Ti 6.007087906926464 8.915043731483737 7.752887537908284
