24
Energy = -156.26655717 eV
Ti 9.463917910222332 7.094712475361405 5.014152655969394
Ti 7.943554426913234 5.283132430207381 9.552706159043382
Ti 5.638244257880526 5.426000894440198 4.66089403420679
Ti 5.741205960307559 8.975893343873018 9.664384029542147
Ti 6.1465013973586595 9.690226962846193 5.333916589689919
Ti 8.173906220718125 9.702626241524486 10.459757317219337
Ti 4.4156999902043985 6.031489054842032 6.798961520791546
Ti 6.898202177828953 7.197177377328357 6.370786829874595
Ti 9.263348596086509 5.388293228055956 7.040457454052592
Ti 8.205339610394988 7.817588117846574 8.652411450092316
Ti 8.65751279656172 9.432750096321824 5.749352838650423
Ti 6.644467601769645 4.6182311420454845 7.116337406702981
Ti 9.464952722269459 10.255356717692612 8.089948248792465
Ti 5.517551891091438 6.400891074443058 9.018800107025488
Ti 6.926740711554946 10.266788950818615 7.766169799062092
Ti 9.20883783743859 7.172581199667069 11.147544388066343
Ti 7.9740011449753565 5.181384964593775 4.799099220676859
Ti 4.68064206272745 7.737221283361285 4.85940954305867
Ti 10.56153865223539 8.719814694832385 9.705286954770715
Ti 7.152148290747704 7.640806396986367 3.805968919578079
Ti 10.400356547594305 6.188403603345038 9.135840997120534
Ti 10.532367312546754 7.987451188187801 7.142078350284566
Ti 6.869950123205012 7.306420930188769 11.033616548399069
Ti 4.743934166040801 8.648675307452564 7.361787467210582
