22
Energy = -137.49061033 eV
Ti 4.2875615358523085 3.0725865642323837 5.888603562260919
Ti 4.0872251784045694 4.7924115946092725 7.641391148962727
Ti 3.0881805468247303 5.374961998896185 5.4766000379225295
Ti 6.424164574535704 3.853922962711807 7.412218750592575
Ti 5.452221824096364 4.841759989812139 4.589614616422724
Ti 9.337337368115168 3.2866775048763164 7.265909911244861
Ti 5.725991828531789 6.121797108133568 9.02541472785096
Ti 3.6856225746700804 7.34719134571948 7.408454406783177
Ti 4.39252946045728 7.251532678103262 4.331710445585205
Ti 8.190991328947273 5.132673702623953 5.9290861630121805
Ti 8.243452241571465 5.108682757148534 8.758634995637799
Ti 6.1132844192619755 6.848284741030327 6.425242672558506
Ti 10.332895796884605 5.596237526589116 7.364018419581738
Ti 7.614655370420521 7.496021290805175 10.275950819596304
Ti 7.078784463906798 6.86879473815064 3.864320331216793
Ti 5.853709773393011 8.71446137111531 8.44661428327814
Ti 4.731925589248811 9.284201735902439 6.157916150248532
Ti 9.104685009606497 7.468919441042975 5.479825773258637
Ti 8.35932437984129 9.19884563866696 3.829482975721732
Ti 8.464260863863737 7.613888571242385 7.975651516680771
Ti 7.405317395467871 9.423138869627564 6.3304449766538085
Ti 5.981129041602063 9.263810360840516 4.064944050966753
