27
Energy = -175.99011863 eV
Ti 9.8057962021819 6.37700668907051 6.827857239171366
Ti 8.084320671096828 5.534202882423821 10.649662924298196
Ti 7.5211057916854935 3.273128749871892 9.137318601175748
Ti 8.43119680727002 8.166834069074262 4.605275273248524
Ti 9.098892638375048 3.79932411002921 6.897151036213881
Ti 5.740859333038387 5.122450723775939 10.240937226979858
Ti 7.879233851666568 8.180865078464564 7.1906454432557805
Ti 6.597697721380483 7.616453515192544 9.818155507464928
Ti 5.0137680307444334 3.8374471514945614 8.26265069958449
Ti 4.765372272458388 5.064268566000082 6.140747773135533
Ti 4.538951281311252 6.500046245182255 8.480834302069612
Ti 7.241586239900932 5.622541216175619 7.948587084955287
Ti 9.774699096024698 4.8146956209251295 8.993828981839515
Ti 6.895869539901853 9.919339224802577 5.727320718896008
Ti 6.736104484393587 3.3201192907735346 6.4052247835423
Ti 3.1966562898993005 7.614322693916067 6.136462530259628
Ti 8.011571545927858 5.44986624511164 5.116166451521675
Ti 4.462275290815439 9.81730209745195 5.310661379180086
Ti 5.764951013827893 7.371620698382153 5.046302284460572
Ti 9.157791413746486 7.347351813432389 9.221490282416692
Ti 5.210671991578464 8.780795208041585 7.506418387283209
Ti 5.852040792735973 4.791591988117356 3.741292672970396
Ti 3.4636201853569832 5.909118270598228 4.128408124110059
Ti 7.429624213176761 6.752741526641768 2.866735143375347
Ti 3.5639703127729465 8.388902603812234 3.586106775346023
Ti 6.191172311949896 9.22549191311059 3.2018971110913075
Ti 5.068249462983864 6.9002205943290935 2.30991004835555
