25
Energy = -161.56675884 eV
Ti 6.847877523031865 5.831853614626263 3.8486461807425147
Ti 7.051466643803158 3.276314415792802 4.198203252045055
Ti 4.5089266365369305 6.9641242928623734 5.326093461484165
Ti 7.510446222539506 10.04876093377879 4.504425829317306
Ti 8.252184780589104 7.999634766693997 3.1706588848195176
Ti 9.423226196334932 6.245605710410966 4.736144705611552
Ti 3.2616242468761674 5.46209588441665 6.790277041926727
Ti 8.242212901959807 4.91556494953088 6.38021849790104
Ti 7.01606355910026 3.4050674409897517 7.872146569284853
Ti 4.3777861686997275 3.4564204373373175 8.103686748863177
Ti 7.285623692395246 7.576877140121202 5.801716815956682
Ti 4.600478970686263 4.563126255157481 3.5640312703661015
Ti 5.8290257114364135 4.35913052921591 10.021146759255538
Ti 5.827883374288561 5.890513711721481 7.70609887154586
Ti 5.700156031405708 8.322890336812662 3.698447686768056
Ti 7.98060053577296 5.762125261580867 9.119883997887301
Ti 9.689430885919348 8.833763942580537 5.112772960078335
Ti 3.6477068641150536 5.562555031814161 9.391553719134327
Ti 9.344251751388821 7.355882993154206 7.366030482793375
Ti 5.487032405845831 4.248714476931762 5.775448656773088
Ti 5.702493871953744 6.927888910160684 10.144383670131765
Ti 5.565643842099422 9.446971602789786 6.301712297241826
Ti 8.202746980615029 9.812232856670674 6.962603673885827
Ti 4.186305006530424 7.848348760556292 8.034284505141661
Ti 6.96544465098192 8.390175199198712 8.576022915950835
