22
Energy = -142.69051868 eV
Ti 7.781825694566759 4.310379375856673 5.013212503311171
Ti 7.537238644308474 3.1271656865946684 7.087267930915281
Ti 9.211177908844338 5.281706994019942 7.100929237235227
Ti 8.7455144552932 6.61786762952234 4.551508799068065
Ti 6.055826892251821 5.658533393105373 3.6637384505853205
Ti 5.224277037918918 3.8800100165056106 5.814448940747714
Ti 7.835464568821712 4.43349008451134 9.306543041217703
Ti 5.417577975862081 3.5569524481006884 8.514545895896646
Ti 9.04049369402686 7.842118944928403 6.940071015990631
Ti 6.966316173784801 8.195350804589454 3.212967453207837
Ti 6.573881741628191 5.597510949275771 7.3352229944917
Ti 8.318868012413372 9.242328856934707 5.16262157947524
Ti 6.427403169254247 7.3922325587681605 5.6581899537422995
Ti 5.674466095658605 5.757198332095625 9.8679627031188
Ti 7.873885122038006 7.158226223568759 9.097149483305857
Ti 3.930774188450482 5.713306975764977 7.77440246817315
Ti 3.9005819706875338 6.006425195692357 5.255246446968559
Ti 4.484612634407187 7.900244755720273 3.9017884619259804
Ti 5.800703190390967 9.841749427870147 4.987916456487272
Ti 6.846443491145937 9.335768258458254 7.456546780181601
Ti 5.279495470635602 7.824936894158797 8.77762399427756
Ti 4.115687508620025 8.369011834966653 6.562611050685776
