26
Energy = -168.41630321 eV
Ti 8.588869828382865 7.445736246885477 6.385574448670999
Ti 10.084374903508866 5.1131676780083195 6.531681522020016
Ti 8.817959523054364 5.5090772573356315 8.52353370866982
Ti 5.718942348887863 8.214078891645848 6.739443742135857
Ti 9.186799004735832 5.914742314586511 4.213769190764119
Ti 7.891113038120061 9.020998029610508 8.170444448498081
Ti 7.122048981664251 7.3541062107865525 4.225913201688134
Ti 7.194703879371024 9.927774389014903 5.46601490791648
Ti 7.249909135331078 4.958706532616991 6.231870970491793
Ti 6.040101705222131 10.781876213392813 7.723343899046555
Ti 8.633450774434891 2.9562548475811252 7.377221036207679
Ti 9.202738595158612 3.5300706553765093 4.774382290189754
Ti 5.600752018834682 8.904430011208257 9.476318980411813
Ti 7.128423986616076 2.388592177251012 5.058358340214221
Ti 4.482731117157228 10.471616491999317 5.723213603885011
Ti 3.63222055779806 9.687546183949626 7.996611056687114
Ti 6.585982135734167 6.622901096184866 8.625699747036451
Ti 6.968490717891602 4.596765131062801 3.500942088171158
Ti 4.942385321103712 8.733430936639209 4.159636601252134
Ti 5.8934489010424524 2.613372926835498 7.181692107473765
Ti 3.8763682125551626 7.190756146306475 8.50955085409795
Ti 6.695750972842721 4.113274619784918 8.9415653090371
Ti 4.4878399684766075 4.875032442755016 7.343505470074976
Ti 3.0993355951955017 8.127980633636772 5.976938583686348
Ti 4.887668419868682 6.235765018394797 5.098445572814265
Ti 4.9890738261134135 3.7134303862533735 5.045811787960934
