25
Energy = -162.31527987 eV
Ti 2.868894511070803 6.93236401959303 8.756113302812604
Ti 4.013044089343987 4.647970050632794 9.096380872905286
Ti 2.724357827936055 5.066885824519873 6.826833673486444
Ti 4.932191873197961 3.627698038493689 6.912295000932728
Ti 3.0021875365832957 7.623441335464488 6.158218218086461
Ti 4.446901135325916 8.8162761423451 8.078400976678422
Ti 4.874361018540788 6.355138071275237 7.249535053975836
Ti 4.943014877616251 5.508541272421209 4.819512293444835
Ti 6.645252869095384 4.288453380257774 8.951628033690982
Ti 5.548523547298994 6.7990817266652135 9.802881859960447
Ti 7.270121972273554 6.179060186359689 7.280353251882092
Ti 7.339123296910965 3.8346591448948777 6.107349793106245
Ti 7.239924598680303 4.732876121815718 3.5857663980281314
Ti 5.444208006161978 8.55675724670497 5.5622412886841515
Ti 6.031589720787235 7.010508767148077 2.870685650059564
Ti 9.177367396550052 4.664373240040426 7.839360057799034
Ti 7.372954722296626 6.951906082938929 4.99566333671007
Ti 7.10250457341443 8.56698845109403 8.333394914610698
Ti 8.23441714786242 6.496886240027178 9.559336947204171
Ti 9.502151563841442 5.3570403891044895 5.236061286874116
Ti 8.078393894110024 9.358023709104504 6.122673970324953
Ti 8.698050305685454 6.675599469020057 2.807037122913439
Ti 9.585057761323478 7.370576987827227 7.276503280388723
Ti 7.623374721623254 9.024819101495805 3.5440679095762078
Ti 9.782711650777436 8.034755619063274 4.708386124172158
