27
Energy = -172.06455973 eV
Ti 10.146194212245192 7.355603996545503 8.49117400312175
Ti 10.065108100201408 4.424407582272552 8.261694280414414
Ti 9.432623008978286 10.143383695995444 7.891618704455298
Ti 7.606566128885753 3.4613781863833277 8.296105774001267
Ti 7.846132263021469 8.31525125268632 8.308644688658795
Ti 8.825164337413074 5.924531024659086 6.8638780304822475
Ti 9.399973428394125 8.440754522128497 5.916741578469869
Ti 8.007672240029738 5.723447523069717 9.472120184416813
Ti 7.437310723120539 10.19573081494282 6.01827539274863
Ti 8.232970683066476 6.135759053378113 4.324618822396032
Ti 8.076534483641103 3.556206781856272 5.828560218176207
Ti 5.662532352805336 7.153750947953878 8.826564304581208
Ti 5.352319996971181 4.553302223734164 9.148092175810747
Ti 5.4751979750495305 3.0449787675988294 6.7058714855575605
Ti 6.26023023607691 5.349625270449804 6.772082540056484
Ti 3.635345271521803 5.513102566385259 7.427526291824246
Ti 3.4889343935315473 7.4263581868306865 9.314638611689883
Ti 5.460249377699768 9.60844501398074 7.651218353436278
Ti 7.683845133370877 8.837230807863529 3.8944090714510358
Ti 6.102866304181061 4.447816603848839 4.131925605917943
Ti 5.986034934112394 6.995351494192615 3.247205221925978
Ti 6.456952832546445 7.669530298616322 5.911896137098608
Ti 3.6827265540687653 3.9330920318341973 5.081428954946128
Ti 3.984316672086587 6.524178285243609 4.835924660550429
Ti 3.6837465614563603 8.039365269568997 6.804444993814119
Ti 3.943696710752563 4.943904716415745 2.8563379989013686
Ti 5.087624004195747 9.32292057250223 4.7383182078510355
