25
Energy = -161.7300253 eV
Ti 5.179489934564863 6.321478391558605 4.782850142515887
Ti 7.0528558703805215 8.25510082808213 3.8767898535958336
Ti 5.862534913054735 3.946516150262821 5.511334205670759
Ti 4.734659686507348 8.692495131496711 5.298295657502005
Ti 3.9472878379299905 4.772501564438949 6.774469874912449
Ti 6.40730437197647 10.49663496615019 5.238038277278173
Ti 7.679542917068184 5.650967238626204 4.598311388200435
Ti 8.913088536322299 9.888194335201973 5.085393766085308
Ti 9.630428623603319 7.61216964797312 4.90599962716239
Ti 8.109996972612 3.6464653898902 6.5149194320842545
Ti 9.757853845293951 8.81588639684445 7.479925678665513
Ti 7.247128990568731 8.274336239073829 6.510094243642057
Ti 9.160874999131545 5.996390568355359 6.734269745245738
Ti 10.789462192302539 6.20884321941288 7.999552557489676
Ti 5.421164830103991 9.866408118157784 7.666677651215145
Ti 4.0310656493322305 7.464583877700751 7.353326266908447
Ti 5.915307814619381 3.4505412466125507 8.206401464567806
Ti 7.936334012829612 10.79215844060674 7.322057702340873
Ti 8.505197986142228 4.453539598144025 8.895198795180205
Ti 8.545271861966112 7.045220490534905 9.320328443698106
Ti 7.6195321071542965 9.254882638862032 9.147468374985984
Ti 6.442516375518899 5.8462728553902386 7.430015299439372
Ti 4.334092450389357 5.531090963987584 9.086076801766904
Ti 5.59930815236193 7.772027478572484 9.47715419933164
Ti 6.559644101165781 5.327239256964238 10.166995583416055
