28
Energy = -180.88197488 eV
Ti 10.271589495554252 12.300821548479082 3.879007293887475
Ti 11.830518430099925 8.419578383944808 6.811859312941912
Ti 11.295479610768846 5.9896819986332535 7.900079453514802
Ti 9.496083993825557 5.349942276574244 9.842150211194223
Ti 9.12451076684804 7.1845440414874835 11.693819347965913
Ti 12.703266941825554 8.049021371679984 9.103060163248024
Ti 9.99094486508693 7.907424344229976 8.954707274488582
Ti 5.409521299866724 8.36327379058279 9.291440107974697
Ti 6.549922916080725 8.61341752357062 11.815601691897324
Ti 9.779207777758584 11.309940295329609 10.421305992505438
Ti 7.000043320996754 7.68630928895129 7.371480839951534
Ti 7.195030051636086 6.568968284195846 9.917344811997818
Ti 8.905348840155773 10.601747753987874 3.3930329648501623
Ti 10.289788047224256 10.266995397576293 5.579275159269145
Ti 11.612295789305268 10.305217987087788 8.637032412911312
Ti 9.580448760909997 7.590711899426421 6.0302943032649505
Ti 11.538516633036824 6.454464188219873 10.643441038608346
Ti 8.574941373373719 5.816278563801993 7.630912331916084
Ti 8.984855668766567 10.236391298922255 7.566189444070397
Ti 7.393355041172286 11.275037760106471 11.652546710173965
Ti 7.593598486752632 11.99126409128386 9.088551186819332
Ti 8.208767437660653 11.838582418077717 5.655905984141714
Ti 9.02665755597895 9.651024832861651 12.361107582002074
Ti 7.872069202323706 9.375341197495672 9.827588074810716
Ti 11.221667243987572 9.12050061641919 11.062154579955509
Ti 6.265359154486464 10.319853408774744 7.621491475061258
Ti 5.500660773767388 10.633271914039794 10.173163028138198
Ti 7.648632193478337 9.352280030677795 5.3642961308508905
