28
Energy = -183.30376643 eV
Ti 6.45614315238481 8.390690156231052 3.462205787595934
Ti 7.189295961520652 5.981633607518149 2.8878136058014356
Ti 4.173361071534839 8.569963423204236 4.853155875494456
Ti 8.98560509928442 4.887061267257791 4.3561193709807
Ti 5.620802889169447 10.515290762529435 4.948945645970452
Ti 8.975263152343912 7.540015620882394 4.408554723593499
Ti 8.106622354018489 9.93190847274206 4.803644759571398
Ti 6.431667448936812 8.338628861581634 6.4645649032106665
Ti 4.718173941929844 6.1430404121778155 4.079731284065042
Ti 7.000945478323403 6.190180800580225 5.421207036413581
Ti 4.563197912158398 9.768435921265196 7.337898426071007
Ti 7.764186196803209 7.027089765478967 8.795196822403092
Ti 7.071064427170099 10.912651391512975 6.947987737621953
Ti 6.882469308065189 9.430486943140014 8.861626928195548
Ti 9.370589816467103 6.059481104168161 6.778626348072893
Ti 8.956070852721755 8.837546533068688 7.077803928541443
Ti 8.537683056198935 4.604380659998458 8.773591049606525
Ti 5.1943541398986595 7.3714702015711175 8.867735063429658
Ti 8.31086594245284 3.4390738802183716 6.345874859708473
Ti 3.8475323273976993 6.871563600106564 6.6545502895889745
Ti 6.133148590038765 4.996601471091848 7.468062214166053
Ti 6.069417682637773 4.8152907705870485 9.983432592788882
Ti 6.370996603598552 3.8862033290683917 4.339221345317296
Ti 7.064748511357542 2.674000886153402 8.639983821571741
Ti 3.6901167609398016 5.229251964104359 8.590323321363808
Ti 5.910746090172404 2.384575225054202 6.367262253843915
Ti 4.021124800115702 4.207751027225752 6.005863502564173
Ti 4.5901093708940675 3.0020348800165135 8.485319440982524
