26
Energy = -168.35891164 eV
Ti 11.786272819968037 8.006220482668684 12.955417920347378
Ti 7.375930529286906 11.77519710901727 11.525539820193211
Ti 8.315945181228729 9.807566069388486 9.88799886198982
Ti 7.256703834449185 9.611969362084256 12.46671282712272
Ti 13.499410525996582 7.566838148089187 11.246586540072416
Ti 11.452447142810264 8.97884798766539 10.687672111071398
Ti 6.950658168236208 12.074240195914715 9.076328538093955
Ti 9.361358718691617 12.360399457512292 9.999959749919178
Ti 8.54677150131217 8.763259420684353 6.47285242456907
Ti 10.626160531046839 5.406616319831655 8.431444878946051
Ti 9.212651765805324 7.888932538819718 11.998710241458753
Ti 10.069108757606779 8.132351220142317 8.66324349459637
Ti 6.58719398253057 10.108806175872074 7.625146526559803
Ti 6.800870431912213 7.743009447712492 8.492761186960507
Ti 8.95533500229542 11.331751166064304 7.4898057602053045
Ti 12.657028413451716 9.078989098687432 8.213334983320355
Ti 11.16995796082272 6.241901014279467 11.019234180604897
Ti 8.53797961398625 6.163441727527803 9.937449156349558
Ti 11.17256151320057 11.051551569526561 8.908348307971616
Ti 10.875028644731914 9.936165946724385 6.598858700466695
Ti 11.101429992670237 7.275985371865119 6.538337001425313
Ti 6.741410284953303 7.669780870147881 11.063789471562725
Ti 8.630639860145417 6.304654859415378 7.281314219244251
Ti 5.710749808928388 9.92873557609274 10.187943841562358
Ti 12.591366593062542 6.753023305379682 8.835021991503542
Ti 9.758393336305465 10.592458100361412 12.058293774734217
