20
Energy = -128.52528602 eV
Ti 4.224389000267922 7.61439623044627 8.014593996006196
Ti 6.604997269712299 8.97562224031572 8.099465093459221
Ti 5.118576134806738 9.68652112275246 6.2208285775784935
Ti 3.7599831120879 5.529726636467512 6.3472845049194015
Ti 6.427428902849389 6.950429667862916 9.389511381980123
Ti 5.185556849326548 4.693042838867453 8.467374657556782
Ti 9.235563840020069 6.7251764464847446 5.5012344990821616
Ti 7.837012290485514 9.020847003683711 5.648495397194516
Ti 7.088091639474037 5.693395353476652 6.98735698770864
Ti 7.3494905560822605 3.212746404858976 7.295773413817716
Ti 5.385836946309324 3.8277676318842992 5.871928976974492
Ti 7.802458273665097 4.497772675958717 4.777784050522938
Ti 7.576678446946284 7.0000170479821655 3.8024778041530993
Ti 5.910828932560423 7.3081205933335145 6.010202257417378
Ti 7.903960848749366 4.935148834460375 9.256589603636032
Ti 9.465760478917819 4.825960844446028 7.101184378110831
Ti 5.165519261171896 5.761537408725807 4.011683002819472
Ti 8.782885092016143 7.398776234492212 8.08674439398524
Ti 3.53291899123156 7.76848907345643 5.263938036792875
Ti 5.643297949144365 8.575740525868843 3.8467838021097482
