34
Energy = -221.53533513 eV
Ti 11.201170407370311 7.381796091573213 14.661889477121056
Ti 7.762458148232972 8.868653070828731 12.123836834180677
Ti 6.869731491462289 10.445103166127648 4.718102394846968
Ti 11.838809228031113 9.36528040682783 13.315853656219971
Ti 8.757829480612477 11.758245123672893 6.004348319592242
Ti 5.433402024088014 10.839101200584496 8.796829186948726
Ti 4.934375096894304 10.029568490904143 6.231986803610045
Ti 7.4101977759723106 9.672800272441094 7.419723917967515
Ti 7.896896991780301 6.451071828375695 10.5683631229849
Ti 11.140465489017972 7.382678530837639 5.628663410946135
Ti 9.098408692791677 7.253106656471182 7.252187703537195
Ti 11.782495431833128 9.083607415944641 10.756887190041176
Ti 8.07961935673765 12.06629714293675 8.58724318489443
Ti 6.327271802478027 12.122669314660069 6.686255969494952
Ti 4.885170153287492 8.338144466588357 7.837573798088766
Ti 11.648651561219696 8.367232895070401 8.263185957870679
Ti 9.112336979134403 8.698173876116265 9.734670923536935
Ti 6.15620539549486 8.542812537767013 10.06340395715142
Ti 11.421051513345155 5.834093206134926 7.788211952135152
Ti 8.90742392016081 4.895586706754962 8.500956253793227
Ti 9.904164730640016 10.516093548086006 11.923418675442909
Ti 10.613460172587827 6.428842517067265 10.107390387361244
Ti 9.916092924838063 7.509492800345202 12.384846334930035
Ti 10.402059053376247 10.900124762497212 9.221728386520661
Ti 12.415248509621184 7.008998555150351 12.414405434900754
Ti 6.410279985615272 7.780553407929614 5.635693687814679
Ti 7.377763858943673 5.318281387810251 6.311678203483699
Ti 6.5382417879273 6.504038758044462 8.347753544758628
Ti 10.392085042815449 9.87306503127062 6.834445083612735
Ti 9.901812852381553 5.006910945477497 5.998498436551002
Ti 9.080745600385814 9.229839312314239 5.049318065212762
Ti 7.4664529796306045 10.81742887100124 10.609903146366323
Ti 9.483407119737775 9.201093769000224 14.33885485411816
Ti 8.703389917563927 6.7260527292804575 4.556002581475001
