30
Energy = -193.78493867 eV
Ti 3.8170033760607263 5.105220062728502 4.658028907605961
Ti 5.334327928401792 7.204073455021683 4.014972950323505
Ti 8.307334054930115 8.764357957277502 3.858588536225727
Ti 8.63761631515727 5.8867430922071025 4.540421115812968
Ti 2.7890315113629325 7.230598946758583 4.7362299992436325
Ti 6.415383578023728 5.167831809984871 5.4197583722507945
Ti 10.022353915814843 7.831744380684313 5.836154481305106
Ti 10.71230392108966 5.231896644843256 5.7608065225690455
Ti 6.5497811431953386 10.5646968212391 5.125642474515403
Ti 7.166820920423569 7.968520302587723 5.820712188283217
Ti 4.444648268232057 9.326236496962869 5.4631461262999155
Ti 4.626378583170053 6.77587972252659 6.550336740264458
Ti 8.720421698274333 10.158702332303182 6.0441248952217315
Ti 8.725617415932783 5.662594155810472 7.41614725881637
Ti 6.048243650490832 4.300928157437874 7.679646919726065
Ti 8.501400528647162 3.49083284017104 6.06496043878481
Ti 10.524167116653915 3.7812473136305624 7.81678351883087
Ti 4.427002298099396 11.250855721493823 7.369026252273939
Ti 6.224299850936288 9.499645411183167 7.776260060773752
Ti 3.4621314589594254 8.914546773496937 7.817683115154196
Ti 9.148149523385152 8.6834927138887 8.269722058390142
Ti 11.028599434961162 6.55434229673935 8.219801730011122
Ti 4.7855612109518 7.564866744510412 9.566367061800793
Ti 6.781058955748366 6.928319002947295 8.214329536671276
Ti 7.122738467443519 5.426435420237117 10.257491175628415
Ti 8.1178882588426 3.3363036477182884 8.766448100424368
Ti 4.667747350558501 10.202495579221026 9.708654661630032
Ti 7.068635452920723 8.46386846859336 10.28801513018269
Ti 9.219659021289429 7.09187716855467 10.136116647859604
Ti 9.791299936401304 4.818451705598678 9.991228169478415
