32
Energy = -210.97062239 eV
Ti 10.513125646422873 11.157203577775347 6.726471222691297
Ti 7.821684226013252 11.469630844785065 6.236690314612428
Ti 7.593756543070651 10.894376880986682 11.440699255975835
Ti 7.500296737422751 7.1288436807398075 8.138445797523069
Ti 9.288198976442368 10.703260158377537 4.228957117645889
Ti 7.724067799536968 8.28426879670254 12.698965009793376
Ti 6.983033657660684 9.622765022499445 4.5901482868669
Ti 6.957792296528455 7.103244928075614 5.457125579809231
Ti 9.244866665469297 7.937840038922136 3.905530228653407
Ti 5.8000854762511524 10.79503315509888 9.547887554155531
Ti 6.711771342715237 4.952850331253056 7.112830025970696
Ti 6.359980022453636 9.428552761244948 7.296528874345799
Ti 8.418460422254482 10.77667209656124 8.780034588203488
Ti 5.699926507174977 5.6655379023677686 9.5096910858489
Ti 9.08912119067926 5.903001258005293 6.283136510042145
Ti 9.823776410938363 8.47974159772475 8.551637060555379
Ti 11.951921750559507 8.238222625547525 9.901894597349258
Ti 12.168543241392054 8.953586782027205 7.308963613222373
Ti 8.95812092245604 8.964306908357342 6.18741638472372
Ti 5.490341466337603 7.114679885169944 11.728355807732477
Ti 9.786298185302199 6.903775064428307 10.782231841169871
Ti 11.06835268364639 6.248065218929048 8.243264225948808
Ti 11.166283923898206 10.674487881468156 9.189047069982992
Ti 5.420279104317316 9.58000533275657 11.821497024675416
Ti 8.666544330261283 5.01571726073982 9.029907564622137
Ti 11.30966597401735 9.417002780575697 4.827917230862923
Ti 7.282624856133778 8.582469817372267 10.237964249268991
Ti 9.826818553756166 9.47298783904693 11.093634597561099
Ti 11.169566297373418 7.116397761151244 5.718180530438324
Ti 4.674795134284636 8.28329957940182 9.43871566186012
Ti 7.596423011428411 5.889661108767868 11.321162973688718
Ti 5.020454453177029 7.001383293549013 7.2123433159054935
