36
Energy = -238.77725566 eV
Ti 2.6181125640135634 5.281740182614865 8.228410097257806
Ti 2.4268148582572175 4.615978746463413 5.673832616764256
Ti 4.707661746935809 3.9161941957302306 9.229386576566746
Ti 3.2847962784441043 2.890952305933217 7.257479560946256
Ti 3.3640185396856714 8.773771873087496 8.477731541846465
Ti 4.986191085491895 6.684478258397751 8.881894398558927
Ti 2.9140271073050545 7.1399429823252145 6.235616625805904
Ti 6.253522926565692 9.0273766185594 9.127378904786204
Ti 4.835558418427974 5.033785564869256 6.813019420766359
Ti 5.843986837662852 2.5487103173844554 7.303724209423399
Ti 7.225692780095703 4.563702205967843 8.378477306472577
Ti 4.659939976727534 3.3012911761537094 4.861922946397895
Ti 5.1707711327656805 8.49470797513671 6.6040666239004775
Ti 4.297240418991302 8.607695112475783 3.9729934710662365
Ti 9.379680801224776 3.3435692930087737 7.33713648004618
Ti 7.378892498833909 3.8605768215454925 5.554173110908236
Ti 3.98874618001679 5.802208554385755 3.8725652394898455
Ti 3.0108860443993817 9.865182798386254 6.1027629416081055
Ti 9.13899084684305 5.796906617452209 6.425679314820051
Ti 9.797479826162903 5.676324944066202 8.9977620768944
Ti 6.368873776322839 4.65377730229543 3.242572762611608
Ti 5.293060458374958 10.75623777869924 5.1839414121726195
Ti 7.495855491719085 6.674635778962643 10.016367070338106
Ti 4.854743286541631 10.87267864834174 7.701149476377176
Ti 10.050085757948645 3.9970263069517347 4.824780190832672
Ti 6.118238567577918 7.120875349304798 2.6705785505184854
Ti 11.495121111250878 4.856371955418059 6.913468565746261
Ti 6.3256573842269175 6.467972260645937 5.130504348850309
Ti 7.284158666988539 7.201050550722609 7.471686790536919
Ti 8.548088817355268 6.273574589648026 3.852068298080313
Ti 6.9801693745048565 9.079896780735371 4.259328622576563
Ti 11.100173868305587 7.382953579151088 7.3206049676652905
Ti 11.055981896746104 6.5058856234596 4.862886765463926
Ti 7.3765485181259365 10.067397616303804 6.923020438349357
Ti 9.242945173374375 8.460310586381457 5.671379026251651
Ti 9.144437437715345 8.421409204964949 8.636799705231049
