32
Energy = -208.9002118 eV
Ti 5.643365631107585 5.1896035973601515 9.821289472149921
Ti 5.062812305803239 3.4297833623236573 8.318682179839877
Ti 9.611028070324961 5.168060799789618 7.0747996632520955
Ti 7.984615910902333 4.592686565492676 9.102538835789517
Ti 7.94881030429456 3.176196658049979 6.328681967839599
Ti 9.863892551981063 6.289221356338028 9.61014624565764
Ti 6.1790514190554005 4.368542947441331 4.350274048953046
Ti 7.240007475567261 7.150350147918214 10.420336546582702
Ti 10.402113024063741 7.1207787467895995 5.3394708752544275
Ti 4.539564154198128 7.290873590382944 10.33491507855838
Ti 3.4363284347829133 5.876591135180707 8.444309272235
Ti 10.751664615682445 7.7246705916207405 8.059549511646225
Ti 8.86795657933887 4.925148925275729 4.363790999328409
Ti 6.429978880440979 5.211841118650924 6.916000724730413
Ti 8.162159587580996 7.177178144860991 7.85388676138927
Ti 5.5990192594867185 2.702647896346876 6.198329868464535
Ti 5.746021955140652 9.313004859028643 9.91397653024955
Ti 3.983207942022665 4.804126450098055 5.940214713957075
Ti 9.624083360494373 9.381580104997072 6.695254647524675
Ti 7.656840181412751 7.155277579453046 5.225946858634027
Ti 5.506141648212645 7.634290819070104 7.647214270395563
Ti 8.185737464708135 9.416652664202111 8.902038859218516
Ti 6.910437669069196 6.196402014314214 2.7999655421074867
Ti 3.471302382739517 8.817993382930341 8.421279086462064
Ti 4.934707425935944 6.942222275529772 4.425948119674038
Ti 9.096869781394425 7.224784956450784 2.9803038117949354
Ti 3.1381385604276977 7.258472618349604 6.262722034158714
Ti 9.138256845118084 9.30934262250657 4.301571515554767
Ti 7.124873803561084 9.753219088347342 5.979911132434833
Ti 5.63972592101888 10.459282506293812 7.817245668117302
Ti 6.769720193816211 8.74995760885235 3.3684460379593517
Ti 4.474178875450183 9.317265102353566 5.7513458032264255
