35
Energy = -229.10213994 eV
Ti 10.40499218234761 7.4171606553026646 7.4530971798928505
Ti 8.754071946444315 9.271516179371543 8.122064350224305
Ti 9.463933547801874 7.5531493481145455 10.09364262939128
Ti 10.256413547129114 5.338704390228359 8.533826362250018
Ti 8.429628340056807 8.111795256605355 5.849486002965812
Ti 9.145127159709572 5.277955219511114 5.882968009152487
Ti 7.377603342174137 10.788088348937233 5.886188966966736
Ti 8.246311555822773 9.423344683493617 3.772436757474482
Ti 6.956797837719817 8.849436357802604 9.82465736445511
Ti 7.808609891885707 6.652552263624186 8.30591106377629
Ti 8.657552989409476 5.08248058742685 10.502268134665716
Ti 8.359366261975062 6.728969020050862 3.1227870236145883
Ti 8.353937125963645 3.6156817599304243 8.253125650267837
Ti 6.144323436830537 8.67417466871289 7.254646611157087
Ti 6.592258732419123 11.184361088224655 3.376870185455396
Ti 6.877918227562552 6.747486038655039 10.931603383755473
Ti 5.516635265912079 9.467536007578106 4.8668943169967545
Ti 6.314657562539465 8.460356061876752 2.458732446906201
Ti 6.705088656855955 4.798771795562854 6.646981829310352
Ti 6.360869904412398 6.928397701718351 4.713170992071206
Ti 7.83485923650213 2.704235742051018 5.846058760398126
Ti 6.257920580207091 4.513222978492601 9.46650456114292
Ti 7.195320558342659 4.306883130786067 3.821071873663323
Ti 4.8829327398994575 7.05933371957506 9.02074315113089
Ti 5.899706708703491 5.9937734489153875 2.303728849400178
Ti 3.3926534399328174 8.256077827268456 6.326357230559055
Ti 4.611208942100195 5.96884379233239 6.595477237061292
Ti 3.928371706371727 7.4790481552529435 3.6690049725564813
Ti 5.37789155692206 2.6823580844431003 7.574001318430216
Ti 5.370814137303165 2.8584045102728473 5.084258888150299
Ti 3.8758481819572435 4.486196000385818 8.819318998193063
Ti 4.307127742776732 4.749537256688944 3.8894389193909387
Ti 2.3765185436013714 6.153748794752753 7.7120083103957695
Ti 2.3353963194574203 6.0754377872779814 5.154612496087013
Ti 3.1016252790402277 3.815274526866584 6.340348360781179
