30
Energy = -197.43060799 eV
Ti 9.898793289916942 5.884656004392272 8.088217203348346
Ti 10.260319984378613 4.996659417963587 5.587640436885319
Ti 9.0732030459644 8.664395122820233 8.248332381311892
Ti 9.582953683753985 7.417254514783662 5.809186003508358
Ti 8.867668087359085 9.828282731586668 5.834910861385047
Ti 9.593865735915152 3.2909376371355985 7.3170557452139064
Ti 7.488305340537425 6.657768058574197 9.228044156076002
Ti 7.412173275524349 10.73796372403945 7.678310777284439
Ti 8.110542055204668 4.141448574977019 9.093066690371925
Ti 8.54127945870621 3.1930912980306765 5.0378385746075285
Ti 8.21532576202284 5.6816288424793635 4.016054308048249
Ti 7.432073169798765 8.285684176797748 4.126686849362877
Ti 7.739973583673416 5.2830452751548345 6.627589140046541
Ti 6.6583382002256855 9.114330462522735 9.32330530463998
Ti 6.88956620347904 8.169596485789786 6.761310748560475
Ti 4.864372035709657 9.789676260906672 7.432130621605845
Ti 6.4396418289044 10.481029469955791 5.362261261424897
Ti 6.1119434685715035 3.780702724263636 4.720522030539106
Ti 5.592977965536289 6.390933424431715 3.5178833304169275
Ti 5.6188553046043905 4.709594142019607 8.58589205236051
Ti 6.940234674177591 2.7678194625093897 7.136386250419039
Ti 4.717016932621001 8.735769562076559 4.840321634439701
Ti 4.833150312947543 7.371846455942569 8.745081752193071
Ti 4.861048883145367 6.079997458721515 6.0843789826539725
Ti 3.760444978156176 4.487117486559839 4.129417122806295
Ti 4.126748242537859 3.5374982480329025 6.601019856298936
Ti 3.16975713130358 5.472204454325116 8.154162378677231
Ti 3.0653889627538704 6.952044075679992 4.214691006644281
Ti 2.9295361531367967 7.783076583423584 6.775369933341889
Ti 2.190288138726943 5.299733753396378 5.908718494820511
