34
Energy = -223.65282069 eV
Ti 13.095217908750042 10.361092587736842 8.738250334959009
Ti 9.663834082215983 7.6602283341821895 4.160417107955349
Ti 10.228495952144732 10.15654912008183 8.896128970078722
Ti 6.226546733891065 10.984658849573073 11.124406291979506
Ti 9.701546034084341 5.1966868271886995 7.600138596705751
Ti 8.705924138134192 6.783089937611655 12.05747625018953
Ti 9.856568499843819 12.821721919227894 9.878194997184544
Ti 5.322023595397926 8.399833432124806 7.958540541680827
Ti 9.915585114736695 7.923535906918002 6.89643097579992
Ti 4.88187202353429 8.786340310607848 10.800158177581407
Ti 11.66926703803618 11.116363473649482 10.851253439481203
Ti 11.873856219754408 6.075934373770078 8.372935632508435
Ti 7.391325385447315 8.584868693837041 9.972434618932818
Ti 9.361590386783599 10.087385840652173 5.167892405091748
Ti 6.193575794713079 6.760388026792051 11.83025154125848
Ti 11.706953318925356 8.76921029713791 4.956358421394331
Ti 11.438602023524727 6.192723899135101 5.670403132194103
Ti 9.970636287590406 8.915512633991552 11.570215832957395
Ti 5.3916203737715644 6.497088969366471 9.489550530565046
Ti 5.4204335971298745 10.482109597019509 8.755249720350507
Ti 7.727128129569797 9.806476040249118 7.43481267505568
Ti 7.576084122419272 11.91264903752977 9.035485704629236
Ti 9.780593006663558 7.095605932914824 9.549101054286474
Ti 8.829703474558626 10.870796199733409 11.251805606755724
Ti 12.68144284822333 8.236535187351025 7.323850109215616
Ti 7.734224066139398 5.544837458149661 10.117760149409097
Ti 12.125554341010028 8.343280503563332 9.968043910603134
Ti 7.4772327505985485 8.156326185212537 5.497911749502465
Ti 11.780936958432475 12.409479194251883 8.466167678078952
Ti 9.464489599196206 12.184892861660675 7.2085538906219195
Ti 7.403778412176092 6.651955283621919 7.666093041649664
Ti 7.174234026537409 9.00646596723023 12.569139983106822
Ti 8.735245530444073 5.806299896274071 5.454299404568786
Ti 11.608172426056289 10.797818825269456 6.473196337873443
