36
Energy = -237.44104232 eV
Ti 11.94661457764048 9.229414078521256 7.46124989091823
Ti 7.745660483209294 8.142590184961357 9.875264091024238
Ti 7.3793667260110976 6.1109973023557735 11.628341491870335
Ti 5.63361292206134 10.527837900241147 5.329676580753318
Ti 10.223653031666696 7.569853204908838 8.955527144063703
Ti 10.558146530067903 10.222812303594825 9.681296520564597
Ti 4.141745946453661 9.28576999466109 9.082821032066533
Ti 9.154903402410307 8.609694105584929 6.820549847019869
Ti 6.110133718129566 4.968450896413681 6.565789383035352
Ti 8.643848797639341 5.466983578478045 5.5851926715465865
Ti 4.055122051595424 9.127907872010319 6.518412639182168
Ti 6.400945300576009 9.165235571309145 7.543641172989057
Ti 8.986817884126559 5.111826913166074 10.064723682906317
Ti 9.774812891197302 7.679623900965891 11.556765498216057
Ti 12.352579661363992 8.308950774685067 10.107995809811356
Ti 8.200006273569336 10.402060383184178 8.596886524079656
Ti 8.500234511058501 12.387980537182196 9.489390251668308
Ti 10.771976147016543 9.487982226505467 5.032457296924419
Ti 8.30190831060061 10.388707077985904 5.0385759476646905
Ti 6.449506025736887 7.504267889200157 5.4899119127172575
Ti 10.089767421455335 11.314871073703872 6.897511200201624
Ti 12.58808349716452 6.723951035340448 8.037993744960577
Ti 6.197942065662085 5.0472374970224205 9.377194367315791
Ti 6.1609938653570975 10.377106626220877 10.421935437890713
Ti 8.66380217721848 10.357664336947282 11.425241723146362
Ti 4.810200125748313 6.9092749274780525 7.86980705306735
Ti 11.562349002585 5.786281722673106 10.21263448341322
Ti 7.700916486476565 6.526061230553404 7.762518284265408
Ti 5.035637947461277 11.357816461981917 7.8323923023237425
Ti 10.465370304324187 5.067927621836179 7.73597871811871
Ti 8.098740426136523 3.9467311652436803 7.849916277726207
Ti 7.3329398432227295 12.007509868810827 6.681936619749531
Ti 7.067288732587751 8.547493190349087 12.277437851331376
Ti 8.85158711228199 7.822885744686655 4.3190108410702335
Ti 5.2927854025728855 7.386676542107765 10.523332315504781
Ti 11.059288561848184 6.964936007385674 5.853783314249878
