31
Energy = -200.8117812 eV
Ti 10.04238998066374 6.9828569429374365 4.751468155625098
Ti 9.000377316765489 4.4197846713196265 5.052586793507765
Ti 7.351241042823308 5.290331179651202 3.656234753723568
Ti 6.618807215648143 2.9815335826468985 5.2005336221447696
Ti 8.136492373143088 7.9671955642630765 3.204395507098401
Ti 7.856737601435145 7.255447481690814 5.8981034574551074
Ti 5.827901850789039 7.172540816408767 3.590033780810604
Ti 9.906023749517159 5.591948647887244 7.189172552578705
Ti 8.699262594234044 3.167442814266348 7.068656055910176
Ti 4.6737949754119175 5.1195085877019135 4.543423729705902
Ti 3.826977929610551 8.038020479204416 4.783888692336026
Ti 6.460686654138043 2.8355047795247974 8.00878964492936
Ti 6.593534558991305 5.0950016432777705 6.557758710953851
Ti 9.009435910446296 9.463825206766536 5.026256664590498
Ti 6.295330825823863 9.484166966729322 4.54589321037359
Ti 4.4193526853292555 3.5130758409869225 6.611511047565036
Ti 7.698549936288805 4.942150453902475 9.199782830514865
Ti 9.705520659997502 3.9699847088600193 9.426918458931217
Ti 5.277495187844867 7.8229108489760035 6.911774996800612
Ti 3.356137270538014 5.8465630340229655 6.876737603911461
Ti 9.99190667480955 8.33139520693342 7.165281777536256
Ti 9.682677527473436 6.868313369637695 9.39215034870685
Ti 7.333271513554677 10.00750242066703 6.944689626072037
Ti 2.631754425128384 8.297764218563561 7.042857314080541
Ti 4.512280806220293 10.270229070632862 6.445617464711719
Ti 4.898594057294542 4.843594467586686 8.793470636368053
Ti 7.07556040749562 7.269625770249961 8.659856364748423
Ti 4.061268524219928 7.268992976630474 9.208164272587112
Ti 8.59115533316007 9.260870329511576 9.24190744505168
Ti 5.8143903510381945 9.69074427401497 8.906444756153451
Ti 3.4063559166282698 9.722004154712803 8.80582595044859
