33
Energy = -217.52676928 eV
Ti 10.253652700611813 6.2636336991296515 7.485237096368457
Ti 8.6826511309653 8.604745122570083 8.438874930821338
Ti 8.662580659365087 8.020463694097323 5.792127209440281
Ti 9.314871515059146 5.632065543920563 4.763752425579015
Ti 9.240514104713034 6.4978617744617635 9.8794286232703
Ti 8.01333440447961 7.5816292017516025 3.1877608127963386
Ti 7.192684538878094 9.833686163280602 4.428285677492238
Ti 8.991941350903373 4.177379979345442 9.051059331099768
Ti 5.624694740768633 8.904208054927796 2.668753523741452
Ti 7.879247223072657 5.0808877035854305 2.498334145100138
Ti 8.630545301989649 3.6442612882123497 6.5080817104820134
Ti 7.396321645553398 7.8216897539403005 10.609081712095549
Ti 7.838809993259003 6.01218771874428 7.509148816889843
Ti 6.428287204275124 9.448308338872017 6.923143541234257
Ti 5.999634101163788 7.510662405434778 4.950194116546451
Ti 8.119261623608248 3.182005674571337 4.050869684961181
Ti 5.519515367657578 6.25077392350742 2.4192303165596734
Ti 6.210889501249566 9.557132527571001 9.505886411712558
Ti 5.821329189666811 3.6576583069426234 2.9602746699769744
Ti 6.719411637029747 5.123771645523545 5.102600731099687
Ti 4.552656930277681 9.67930709254071 5.012039311691195
Ti 6.926239291237087 5.294808383954293 10.455967540689372
Ti 5.752712328277629 7.109275468753609 8.279170556230378
Ti 4.034881562877517 9.129671563325829 8.356126572160399
Ti 5.809370345899578 2.8287700007461956 5.512114879171807
Ti 3.6350191970684493 7.611275770331394 3.6224817077269527
Ti 6.522049695446044 3.6811154887421726 8.194970930431486
Ti 4.796859135666722 7.392829056988917 10.629009957272272
Ti 4.063036795320352 5.006166857424723 4.374752169776088
Ti 3.6431799816409103 7.450706868367006 6.277506185499582
Ti 4.604638539367154 4.895081245459287 9.50246065262391
Ti 4.5010620286305105 4.94278604311668 6.903757608221224
Ti 3.127647350800175 6.68272475663949 8.657047558017734
