37
Energy = -244.29592449 eV
Ti 3.424386727342688 9.068282352101793 9.62147276750552
Ti 2.610233208680069 6.686211874681086 8.778957745511375
Ti 3.2503819746749403 8.650081768124737 7.028367868425594
Ti 5.3529024927365985 10.433741913257506 8.248921227624646
Ti 4.650831616029551 9.976735715378632 5.524825855891358
Ti 3.9833742827354928 6.8492518837297345 10.821027539721346
Ti 3.714805425728768 5.844269982750251 6.650495768556258
Ti 5.850312126442962 8.75747026078694 10.700028179729996
Ti 8.13501719008407 11.244075540340456 7.62118380903091
Ti 5.132000267898428 7.362364321751229 5.05032319970733
Ti 5.138358534961415 7.482056466599977 8.396408572470492
Ti 6.517310261558314 11.415404914446384 5.83392787428253
Ti 4.649001229471851 4.882892966627211 8.990653459405642
Ti 6.773386505323454 9.295083693690893 4.016322854356879
Ti 6.266891734492874 4.774851416279638 4.593180472397263
Ti 8.142667494469213 9.37559676850693 9.467459409602592
Ti 6.964788208675368 8.95050821784502 6.809619694916435
Ti 6.303690092707296 5.769833237869501 10.95182285165052
Ti 7.809666866965764 6.740976535624633 8.956367370418265
Ti 8.865701297703444 10.146458097575136 5.2392338927413045
Ti 7.033562076357624 6.6401822275452345 2.961170077095326
Ti 6.354685642491804 5.583999236741667 6.890965787639921
Ti 7.540699124959492 4.064659467134687 9.176578208767978
Ti 9.416598235852636 7.768853390341293 3.3532661189394957
Ti 9.951085882495718 9.232930966237243 7.649013203714013
Ti 8.921245567389448 5.348932626149996 10.956789152972899
Ti 7.841468287763543 7.211948990968114 5.264467799687229
Ti 8.191366990372964 7.688072625144339 11.459355721357355
Ti 8.981156343753883 5.026708599706637 4.161699377147359
Ti 10.273791000173123 7.389081231770322 9.78699392573774
Ti 10.219288432105545 4.804925429358626 8.770176411414836
Ti 8.431636413986128 3.979000713299286 6.727458670416115
Ti 10.948027889291307 8.58199942398644 5.4736113131303235
Ti 11.212791162563239 6.325072403308671 4.692498002887243
Ti 9.506741684124927 6.550131629571193 6.924264967594486
Ti 10.84560943336068 4.378311015364339 6.198244022419387
Ti 11.844802079747888 6.769305880876164 7.3031106106047465
