33
Energy = -216.49193652 eV
Ti 5.8328791792565955 7.009597392389994 2.2716834685179075
Ti 8.376069857022552 6.629423854154513 2.695565487962279
Ti 5.439926873974561 3.90755981432594 9.821792246048105
Ti 9.285693200027932 6.047381319171032 9.042511373880767
Ti 4.559042260446191 6.733131762441018 6.586738918807626
Ti 4.6720304302959805 8.4268795753064 4.2056369585922795
Ti 5.617028878524716 10.889187582231834 4.902795677320738
Ti 6.888956821808795 5.930444336313744 10.610315685430434
Ti 5.949475170449122 8.333115122467191 10.868492829644833
Ti 6.571992562445808 4.563013445276225 3.012492803434493
Ti 5.827841208554094 11.06693060070266 7.492223636020304
Ti 7.246564417074882 8.900771704919057 3.391931763869467
Ti 6.55689914394991 6.491361836811866 4.730690732123355
Ti 9.437981709501894 7.9085922357727885 4.727183221098533
Ti 3.9604416592890277 4.242816513747048 7.680279537763568
Ti 6.981988712938484 9.103564481884959 6.022639294442474
Ti 6.4012066905526055 5.122917281360354 7.7352730290395435
Ti 4.1515311087920255 9.474684661678712 6.506375461210841
Ti 8.02519270944703 3.807685788751485 9.483449783850272
Ti 4.591706891146307 9.467458726014652 9.085392232113936
Ti 9.440182547828087 5.151306565941224 4.5276836122335355
Ti 5.225660677788238 4.000649051402005 5.3753012887316265
Ti 10.651211084379643 6.333768547703681 6.685405394586766
Ti 4.17707685448447 5.749915661235425 3.8990108217826367
Ti 8.234457712838063 6.471310872004298 6.562915459556932
Ti 4.460143698436992 6.400954893439988 9.351742243254453
Ti 9.204424101685694 8.631318102822073 7.731907352538168
Ti 6.364437537899996 2.646493838066416 7.631869751587198
Ti 7.231805967958083 10.156025275596914 9.456157504143727
Ti 6.573818800204167 7.877436375103636 8.356116451879272
Ti 9.180419805957742 3.9846080768013237 7.124008697558759
Ti 7.545097029061834 3.5263056640945387 5.2932144297164605
Ti 8.479367477859256 8.106484394735313 10.33048441781583
