37
Energy = -245.02494278 eV
Ti 6.190906771640111 4.917155296499249 10.808680008419241
Ti 6.1669846438626 3.1031286911326963 8.818627571067799
Ti 8.30798646271961 4.975512063466706 9.311619483580559
Ti 4.052024137449123 4.036593764856536 9.907241754270586
Ti 8.523244938238339 2.8691952819597053 7.918515062383616
Ti 6.971432876931723 7.241130677114791 10.13602654504412
Ti 6.45424880558861 2.723143111280547 6.187514076255087
Ti 4.184618985607694 6.693126051878104 10.421534120386923
Ti 3.993220291012837 3.5440709780916393 7.293783855749481
Ti 5.365521992285129 5.808762114010172 8.27900774189366
Ti 9.013469853823084 2.880954829792561 5.552735485515612
Ti 9.574001454889872 7.058520778742522 8.638296061285011
Ti 7.757886527236198 5.200892190151358 6.403790275031909
Ti 10.255596398650747 4.630475239853159 7.184756024394725
Ti 7.376675380716219 7.798019798851117 7.565425340455671
Ti 2.5768323960662176 5.44019926588752 8.635257455469324
Ti 5.296232183257305 8.713060245898799 8.982215694765022
Ti 7.306629410190877 4.027491848681567 3.9180552763935004
Ti 9.850958140298756 7.117660876145509 6.037301306136939
Ti 9.84738737827564 4.9702928701496685 4.551254087211283
Ti 2.7399886779341616 5.527587492880267 6.028646304109346
Ti 4.636011605794429 4.097673908765029 4.588586676929247
Ti 9.48938879499469 9.582252992788167 6.7510439684957175
Ti 5.3101565752554 6.533564812066954 5.5761287949312655
Ti 3.1478461853325777 7.675359810398542 7.816763595756463
Ti 4.950836886636155 9.218726127862192 6.4893599161013436
Ti 8.186823226926506 6.682974496140085 3.795414706379359
Ti 7.412119874759881 8.673892383608669 5.263777504144013
Ti 9.835940632563402 8.996152926979592 4.123651200957609
Ti 3.525555695744179 6.269164586867207 3.609760544910136
Ti 7.154681309069915 10.65360503675992 7.034058476740357
Ti 2.9662289299389646 8.074217793306534 5.2528055749579465
Ti 5.882199180899803 5.941063975263139 2.9310030697340643
Ti 8.573966134592727 11.126223843862936 4.774244909153306
Ti 5.144589560170865 8.448715352764173 3.693689135314711
Ti 6.067819845808668 10.899805745018137 4.575136712208815
Ti 7.6183313404057476 9.557976225792958 2.8526351690348086
