32
Energy = -208.75989211 eV
Ti 7.610646060176978 3.388444729179092 5.1962154086451875
Ti 5.282772045130112 3.239070030445235 6.053734459986003
Ti 9.442323855401897 3.9056719802720847 6.996778914627649
Ti 5.267308972262002 4.3213047511648055 3.555316095590018
Ti 7.038140512090407 3.915653158185935 7.945630195784491
Ti 9.144137591451583 5.071268673137731 9.197668803708146
Ti 7.716427535739091 4.7943983375316215 2.983650672382097
Ti 3.43459638615992 4.9371449638622895 5.6928246965084375
Ti 4.524488819264687 4.567843841472719 8.24327864053411
Ti 6.493919107711726 6.028244937634885 9.514173896403124
Ti 9.532329397935966 5.325001625765709 4.846493935792639
Ti 2.4196227273326776 5.90109928943114 7.857870086168239
Ti 6.348790893177645 5.795133530276299 5.259236855487064
Ti 10.831924343930124 6.110574120268153 7.351152347317487
Ti 3.9456749322986546 6.615531300674452 3.885386270171942
Ti 3.9709702106714393 6.658255308198621 9.828831648001648
Ti 8.130664204635112 6.45448564122193 7.23799357980939
Ti 11.643242853541782 8.480789251197812 7.663525353068721
Ti 6.131665691336191 6.950847709567886 2.8172357815464695
Ti 8.546091361025605 7.091919319025959 3.226721900262348
Ti 4.95542823851786 7.237170700063231 7.295381934668975
Ti 2.624007546983804 7.622810271291042 5.804616932926598
Ti 7.507149612576868 8.2962226247339 5.342121683352634
Ti 2.5733371441481228 8.26998285441288 8.40657626619511
Ti 10.131013523544016 7.83970234007122 5.305717382992162
Ti 9.817580382166982 7.498698886732497 9.421265355481323
Ti 7.303187993095522 8.35554749275302 8.991530291408747
Ti 4.915154676723182 8.844707768421335 4.832994519776907
Ti 4.799552610878404 9.187213600145393 9.22730657518735
Ti 9.240364191442886 9.073681200904435 7.400323666919069
Ti 6.278124595399464 9.749700290715055 7.068481820941756
Ti 3.736422124713251 9.801337860116881 6.896980485349294
