35
Energy = -229.07577969 eV
Ti 4.474389897458954 5.853439035642024 7.280432246737065
Ti 9.9100181481526 6.641697636815239 7.7756704255628275
Ti 10.570520236823294 8.558734305193626 9.657898776445371
Ti 11.155014795136355 7.571431950334812 12.042153095370487
Ti 8.610365347564422 5.530387794099694 5.77386511487883
Ti 7.21210813766096 5.607594361315941 8.104597198545953
Ti 11.674546778774733 6.154029758479496 9.735576139708723
Ti 7.892632912082298 8.201155044384757 6.379877587386377
Ti 9.152634225113616 9.393537946811886 4.221663592538846
Ti 10.235733126042593 11.614892843505139 10.464422575986578
Ti 11.989072828198388 10.136428269104742 11.403960515583888
Ti 10.16514667845638 7.1831736374199675 5.069329750598358
Ti 6.882676247665195 9.598000160328796 12.891889385436766
Ti 12.25397586779369 10.331056061721105 8.715288492206728
Ti 7.42386342361172 7.418688009565316 3.9500069366307553
Ti 5.2070941850566 8.129115337861373 5.558830214371156
Ti 7.808337110373627 11.894760316409334 9.381063264438646
Ti 9.814427513981697 9.93771120560898 12.887854308864227
Ti 8.243798825274867 9.567120691637127 10.843386422169011
Ti 6.658276414557612 9.939847650369826 4.653474763056958
Ti 9.178046683931523 10.247056417233138 8.11774531285216
Ti 5.42372045306504 9.25810610804058 10.4649827777916
Ti 9.141276959685342 6.2044243457180475 10.583177352452928
Ti 13.127662720894174 8.275588278902893 10.221015097745646
Ti 8.624017904754783 7.551286311875307 12.701359616397506
Ti 12.390725835934798 7.772970911748066 7.788243809735264
Ti 8.188343171251987 11.917122986027772 12.053700625230473
Ti 6.347938048796991 10.103051307643673 7.626806495211418
Ti 7.657163082942687 8.088433004169111 9.014744886498626
Ti 6.234259407098834 5.764409664924809 5.613472802900789
Ti 6.480681768217058 7.239872665855528 11.255883479034269
Ti 10.711434328131565 9.343132016228331 6.468474675615691
Ti 5.451539591267105 7.618451511425399 8.222252463512925
Ti 8.387165325028247 11.180537912776689 5.971437668246308
Ti 5.963271242667359 11.426591249160431 11.052987843025166
