32
Energy = -211.27401441 eV
Ti 10.136849607547756 8.323893362268926 5.793804207338854
Ti 8.993359243624713 5.006250714969431 9.164158456776255
Ti 10.366370872150842 5.753675565881246 6.396748725750971
Ti 9.002038420079971 7.609647009449302 8.036899939755495
Ti 8.011695976796085 9.860045829278702 6.323355074204172
Ti 8.398814753053752 8.857052119547873 3.7713352632568626
Ti 10.122597775821236 6.791304343465345 3.8636701161685076
Ti 7.087628352888286 3.1872474761261884 8.903676627842854
Ti 7.708723274746848 7.116556228604214 10.268887555267042
Ti 8.084917497038349 6.539742904023859 5.589038146169311
Ti 7.625990425784443 6.335129796489472 2.938291570144612
Ti 9.183840090922487 4.507366122739875 4.300876341751606
Ti 6.506064818341132 4.398797111208624 4.675256397985523
Ti 8.234164235046977 3.8940723260542787 6.670874977690933
Ti 6.704094046002115 4.8560282903682905 10.681680411342294
Ti 6.781100670563467 5.796640887502793 8.172579183443586
Ti 5.912160061784683 8.364538749475555 2.909116929442496
Ti 6.152310641350907 8.019722134921947 5.610083544346966
Ti 5.387897744950447 2.997557086647361 6.836716636580436
Ti 6.242275727388492 10.36950637921579 4.306839065805085
Ti 6.520246457552102 8.589785194451677 8.329731454791773
Ti 4.925115325717887 5.661142473402717 6.601697569992071
Ti 3.8510666235908997 4.051461731091068 4.827155444765613
Ti 4.774451338627207 6.262482738799079 3.8032644941094516
Ti 4.992439254078037 6.7996631430213545 9.916525518818405
Ti 5.328178932476388 10.295366950973973 6.635775750838416
Ti 4.558953799671499 4.155598617537784 9.214466350145305
Ti 3.956859894990868 8.867272855316791 4.696608259345053
Ti 3.991416760258889 8.229815609305845 7.48872011914446
Ti 2.869946789392844 4.006609213841384 7.128081989736149
Ti 2.6683985520878712 6.383005130667167 5.734761911772774
Ti 2.9200320356709653 6.113021903349654 8.409321965475723
