33
Energy = -217.92715573 eV
Ti 2.5557077457465627 8.509188259525045 8.469771033892643
Ti 3.1917967319135774 6.028807291512238 8.18647923826922
Ti 3.171965882083478 5.0691986588357825 5.824530525765178
Ti 2.681233401802122 7.683385831385945 6.004200464197256
Ti 4.009849332134501 7.522113212444181 10.390916555306033
Ti 5.359909556874599 4.325100957922351 4.642197854151883
Ti 6.904047575460241 5.043901570722047 2.403861186753959
Ti 3.9151819285942353 6.466589209196133 3.7440624071384865
Ti 4.238654513895206 10.019724522066642 9.615535338168108
Ti 5.285938535446053 4.363527311629078 7.411422306016787
Ti 4.105208164392707 10.034582267556505 6.782848054578645
Ti 6.109289286370798 5.974606736359855 9.511798667309632
Ti 5.199265634143668 8.058339910566687 8.126813166397705
Ti 4.519069855514961 8.891865382084848 4.4471455142962775
Ti 5.2823776549808 6.781552424010116 5.935287082721053
Ti 7.422985286349013 2.7695842530926083 3.752186757843021
Ti 6.35623252694522 10.44588940070527 8.296671715231165
Ti 7.4799939871533185 2.888828039152253 6.538717247459936
Ti 6.5690175173259195 7.378820803004942 3.693491273037849
Ti 6.626668762501589 9.393474575572645 5.876949918584776
Ti 7.902116352415003 5.116602697410474 4.80692893327651
Ti 6.456252311724727 8.646451326140523 10.322746336812124
Ti 7.540247504956668 3.884294599611827 8.889443281370127
Ti 7.589059538431297 5.992243394980665 7.168170201727757
Ti 9.436373441774007 4.198459513677789 2.8621289108917956
Ti 9.618035528809607 3.050341734439385 5.115039483337357
Ti 8.997333782438538 6.688945647823011 2.961423317381783
Ti 8.831260488272504 7.904204636080943 5.313928482436476
Ti 8.020170568099081 8.4153301753855 8.141918508928661
Ti 9.732436361019513 4.272829783711298 7.4234530537957
Ti 8.848470464646837 6.070435593103259 9.443776967475147
Ti 10.453159222531749 5.6796094748437085 5.058059908202694
Ti 10.101515932289013 6.941996182482974 7.348921684281371
