30
Energy = -194.20863449 eV
Ti 7.921366961668046 7.985419174112597 9.988177444609395
Ti 2.7733576831002216 5.57463450511377 8.786239624942816
Ti 6.535733507667868 4.888068501822011 6.464267661231103
Ti 6.405361674866148 8.023868269694184 7.7383113991163
Ti 6.507206508772737 6.125406471854231 2.5399598047589205
Ti 7.071869001890934 7.078609670968618 5.1586865534041415
Ti 8.559885167513015 5.221696022820879 3.9030612189706493
Ti 7.451326715407607 9.490902767533262 5.510184456239067
Ti 7.932874719499288 3.2552495654370706 7.95328742665642
Ti 9.336779787710578 5.17728802971558 6.496476481462239
Ti 8.300243262929511 7.989034994742254 3.0847557254232845
Ti 5.879634033065207 9.58349512389532 9.79932845724598
Ti 7.485212044331579 5.655398186024892 8.92674457436128
Ti 5.917711390166354 3.94216151237181 4.034114916169148
Ti 8.175536989679655 3.038930254493257 5.371102566511281
Ti 3.98059860434095 5.457852011144111 2.44192801115388
Ti 5.1929966502592455 6.812298018219871 9.839807756149243
Ti 3.9427986152594996 4.07051982552016 6.131155848331727
Ti 4.5095072055534295 6.35673659021924 4.589629620527827
Ti 5.869444382835834 2.398277217282763 6.394282685957395
Ti 5.590668185742349 10.503504689096836 7.351733670300594
Ti 5.703620649319395 8.428301533010986 3.2765823676191546
Ti 5.165304464509965 4.062013865863029 8.563548340641905
Ti 9.958124953559595 5.619296038726117 9.143351135377973
Ti 9.731097086642283 7.478869635649986 5.00235518293072
Ti 3.856679870352031 8.656800361999776 8.455563853436903
Ti 9.041955224727674 7.575692857078073 7.5740957696221285
Ti 4.626890206681491 8.871183130437174 5.683604707313334
Ti 4.3333554477341725 6.383300092335603 7.262599024664725
Ti 8.000873120925405 10.05320519952936 8.293077831583425
