30
Energy = -196.60391875 eV
Ti 7.569692002003564 7.511520092342872 4.033149183490202
Ti 5.180486032018214 7.5905651212777006 4.619233733407764
Ti 9.252449228684842 8.989172079994455 5.103628400633106
Ti 6.190585710474548 5.145800903456459 4.668430100885874
Ti 8.975288087486916 5.563952323392798 4.759264412219717
Ti 4.32132239876976 6.225737428138217 6.549470139035092
Ti 6.547719030039485 9.857216175990224 4.981893861184173
Ti 9.870146091836048 7.187488379577528 6.961427463075823
Ti 7.112548570461213 6.601949566202452 6.615904722018271
Ti 4.7775539664768 8.883193066213018 6.684430556264453
Ti 7.733330168542986 3.8297794421879936 6.300998329200675
Ti 5.580857950231733 4.430974281275177 7.333675972156416
Ti 7.592155154920724 9.226971295513287 7.422321871180652
Ti 8.497267048632924 11.28781440115833 5.968636323155741
Ti 9.826407479495925 4.780494175402919 7.051230225690904
Ti 10.332691331281069 9.899415314654338 7.35432693202544
Ti 6.119517848623323 11.20847917951869 7.465326964339767
Ti 11.306524013868914 7.9336536986775785 9.010862177777184
Ti 8.628990730886601 11.613827686206022 8.394971953286655
Ti 10.189143332329696 5.6670530926718445 9.654760776992728
Ti 7.83450260055531 4.890449884132405 8.804908035537798
Ti 9.903480050500828 10.003395331074017 10.004858282091327
Ti 5.7617268111617665 6.497759847355856 9.023203415079964
Ti 8.455182227184771 7.743394197048667 9.369631184585922
Ti 10.40955255812966 7.64752797685895 11.300555065183547
Ti 5.183545449468502 9.092447064794396 9.039763868400877
Ti 8.10253987828179 6.201150457152899 11.362448680722068
Ti 7.097824933684328 10.459504053203727 10.131925710704412
Ti 6.21812986641728 8.090414693543805 11.055164844130516
Ti 8.354809335523775 8.864868678955474 11.899566703515925
