35
Energy = -228.20221734 eV
Ti 7.905565295688984 6.9301134589055025 2.787202550064425
Ti 8.335924591428531 9.696018982459503 2.4933470321289883
Ti 7.4209878536914164 4.417111424561932 3.964308445003416
Ti 5.4986999455805075 6.325109612850708 4.103979919655918
Ti 6.473870685515118 9.029969926978763 3.7245421595080486
Ti 6.762323812916993 2.1578028397547633 5.120867709197337
Ti 4.838640798396402 3.9399757775265836 5.203476757046158
Ti 9.720018288365422 8.29212242083674 3.966253843640192
Ti 2.9233886599415437 6.008363557021033 5.180565994052194
Ti 3.8610866746307173 8.550005442938724 4.9787346436800055
Ti 9.543113978736569 5.846911741138009 4.816293192735449
Ti 8.893280466543724 3.331890344020952 5.949183801619366
Ti 1.648380560959049 8.452712127492834 5.711155476438208
Ti 7.5524818360187 7.492390131477068 5.5413000728417305
Ti 8.415336003877556 10.158831468232322 5.233990698613846
Ti 7.9296949022939645 1.4041741569696866 7.254039027853252
Ti 6.918721399212421 5.029175015085286 6.554185774203848
Ti 5.059311129253443 7.0318765443051525 6.739757887944417
Ti 3.545392024920539 9.262371377782406 7.575222684721732
Ti 3.8334977504026404 4.790703121048864 7.559007815925018
Ti 7.35800255309255 7.268569353373559 8.329267552879699
Ti 9.984794186703885 8.118899881397407 6.495490396530238
Ti 5.982941163012955 5.007613429836396 9.397670412972433
Ti 6.021051247250803 9.713806491090953 6.4924487808197595
Ti 5.807249281890284 2.7614374557152432 7.429919794313297
Ti 2.369205083092572 6.930041702326509 7.503296012548966
Ti 9.63243733746524 5.680565527702975 7.649587607797654
Ti 8.154336930347238 3.7843637527479146 8.647662837068463
Ti 5.867595233338166 9.386459542763252 9.199846061047364
Ti 8.263987939085473 9.83050756666745 8.0463392831802
Ti 4.187264567293973 7.050286570722059 9.282198188312952
Ti 8.107268802779961 8.744974650508075 10.456269142308189
Ti 9.946826922331017 7.877621869775999 9.028569290280613
Ti 6.210503958720012 7.183845440220161 10.825613095571978
Ti 8.535086283971072 6.060016837497659 10.306096858012863
