34
Energy = -224.34081565 eV
Ti 3.5609271095541617 7.4965054246491105 6.3194011232427
Ti 7.504600405838311 5.837711452804423 6.992235660140256
Ti 4.859212285862803 9.979271367798068 9.547313935872205
Ti 9.945511500313597 11.710846697071023 10.155428793579679
Ti 10.083304087090392 9.931703873515387 6.037946942879136
Ti 5.714000869436558 6.667957285046665 5.27950789859529
Ti 10.275709124286962 5.040483840857771 10.233098794265779
Ti 9.909040914777965 5.004401724150176 7.670346933984218
Ti 8.793429127212171 9.208405716417747 11.379256061267423
Ti 11.664879776265082 6.721421663661922 8.646182299973512
Ti 6.332679452918803 8.243182633642766 10.569978640816007
Ti 10.450220283451639 9.324066897397051 9.035606644085002
Ti 5.437089384816831 9.335468447264523 5.361141565775566
Ti 8.039832746262558 9.402156122220784 7.7595626061461065
Ti 8.563823404850803 11.910583272906846 7.775007383797252
Ti 3.767439629830844 7.5580902805621 9.090405401594634
Ti 8.166486950488505 6.204059314934577 11.498958651718505
Ti 7.980180060911989 4.439959775171297 9.283795676662955
Ti 12.486078827282284 9.199532341208634 7.46234485105295
Ti 7.30286337421356 10.811087316758798 9.899227896418395
Ti 4.808305799821633 5.526999333742936 7.430713742367488
Ti 8.711891449766078 7.040172852732893 9.141996737524709
Ti 5.865485752461577 11.180328764453426 7.410282192939746
Ti 11.114973648381072 11.616348981157461 7.649613983917645
Ti 10.671287609269585 7.392518486132995 11.286151082670035
Ti 10.369293635641865 7.478509421230885 6.654788022412467
Ti 12.871492496945201 8.503951397578566 10.081377472200462
Ti 3.6839807304763346 9.704822251914361 7.399440095740567
Ti 11.265852519145353 9.916569575511646 11.588644271634001
Ti 7.677375545652975 10.735524020316804 5.490829669280408
Ti 6.1009889236311405 6.020635212693941 9.674733178787053
Ti 12.478333630506055 10.96608703606103 9.568784176662836
Ti 7.970397071880353 8.103013707120201 5.3532221826021
Ti 5.823861638659823 8.001431021124636 7.686074513832344
