36
Energy = -236.96575461 eV
Ti 7.145889349619807 5.077506302263685 6.08396979298692
Ti 7.124746093711267 2.345505749191456 6.5705569049023795
Ti 7.144165293747378 6.9210437939363185 8.392311815362572
Ti 7.924054430628228 6.120830992879941 3.3273340972036602
Ti 7.964338744886768 3.439704791020808 4.262250334815692
Ti 9.793034972891661 5.103221416412164 4.684198119678277
Ti 8.292390311690687 7.535138859167981 10.734965179400648
Ti 10.581328012373058 8.968075264184908 6.388950558215242
Ti 5.53837158984469 2.9000853013741335 4.8040339801116
Ti 10.137448952660225 7.606366347850787 4.161399811024279
Ti 4.839209084544813 3.499313243304594 7.247650164304364
Ti 4.811336646912619 5.4319545545837595 9.163206963346129
Ti 7.843470594764071 8.71575195761004 3.1533103419134902
Ti 5.636398913016427 7.694442859207114 10.404859626484033
Ti 9.291435138473206 10.105454700266524 4.662955290843308
Ti 5.656616164394252 7.819109863511874 4.310018562831925
Ti 5.450726959083229 5.182019351660673 3.756062183493319
Ti 8.067109883580338 7.913527269446708 5.770766025335584
Ti 3.0021252399240956 6.7610807397632176 4.4032475235727855
Ti 3.345990559380899 4.28266356884047 5.206253452663521
Ti 0.9512872876101988 5.613280813383648 5.493831904123462
Ti 8.347342049439865 10.247606285093713 7.143866580199512
Ti 6.695152552825099 10.160697902921143 5.003347977040109
Ti 9.267992599216358 3.7519348169968665 6.848221864744299
Ti 3.7684219884876238 8.93091487880005 5.814160865581762
Ti 10.309459392721145 6.367446898634371 6.7763373104024
Ti 4.772298931737517 6.488062974647365 6.4608662047533025
Ti 1.7028629305383376 7.683171902193202 6.5486532107541455
Ti 2.5195862844055843 5.430741232780783 7.505000704800619
Ti 9.614146040093612 8.267079248900522 8.61917677887168
Ti 5.760337068427072 8.989178847032585 7.273082843936821
Ti 6.959933662250814 5.467291288209465 10.676904009356015
Ti 3.545224436328117 7.744078147805521 8.450656814967067
Ti 7.0797259095219784 3.854997128967416 8.69528672428127
Ti 9.2436925713726 5.490619246161196 9.134552899724126
Ti 7.286819599936888 9.452288376240249 9.43633930070543
