35
Energy = -230.98129798 eV
Ti 9.325733699949682 8.537249681705283 4.974318104977578
Ti 9.295046742029497 5.526560072634183 4.081903192476237
Ti 8.496978834263924 2.991874832776406 4.664154023275346
Ti 10.657898362475544 8.78391527051133 7.262330754705785
Ti 9.878682688287096 6.5860369651226724 6.614561058997833
Ti 10.142781375792321 4.080306352576678 6.154561433578264
Ti 7.093689003480426 10.133708404166873 5.145973493964266
Ti 7.100767689303714 7.305810340107384 4.37363698282183
Ti 8.08491417780209 2.781660887887358 7.358400952875013
Ti 6.743571666356889 4.7329052156878975 3.6291271002266616
Ti 9.302471363012598 10.77671414463508 6.329228048061441
Ti 7.868979937323037 8.621315312730694 7.425960303557114
Ti 7.621931730108723 5.139116197430519 6.056878413501987
Ti 5.14333322241169 9.21878816551786 3.865483250674971
Ti 4.229250491391185 6.874296038761566 3.940720351694209
Ti 6.141284895850099 2.9113679871207125 5.518087854899367
Ti 9.531410243316133 10.364043945344962 8.821334028051162
Ti 7.104223353316446 11.184616482756967 7.744396702096212
Ti 9.62535275097302 4.776933312006728 8.697641929041117
Ti 9.358337187218066 7.663923675512344 9.505537856804722
Ti 7.5956817648326 9.823676644391215 9.976223007834443
Ti 5.48855946907234 3.7177412200931763 7.9890561804993965
Ti 2.91459963237269 8.917580797989435 5.049121056865555
Ti 3.0880435001976947 8.77115981006792 7.598968459125444
Ti 4.912413902117785 5.162039057602169 5.666928361723404
Ti 5.235820733284499 7.885627195651968 6.241690335596005
Ti 4.674727780726488 10.512079487036331 6.315612020892729
Ti 7.135091135448045 5.959670061120385 8.444011503542916
Ti 5.328157953797092 9.38049686982746 8.718159233748231
Ti 2.8371286614586424 6.620526108258074 6.215532945753436
Ti 7.499356559370654 3.5365257299903274 9.72454074602759
Ti 8.164862726496786 5.675631973688124 10.853154364619026
Ti 6.507973210484595 7.6113226905136635 10.405832867271055
Ti 5.583091214933423 5.082118278031819 10.351382691227315
Ti 4.481972255612313 6.520334511358395 8.441525831403686
