31
Energy = -203.85202665 eV
Ti 9.397832623324117 3.6535469701051118 8.614953468783625
Ti 7.863668890922225 4.860037014870502 10.221513868543001
Ti 10.19866280913536 6.0321460999703795 9.873193402184425
Ti 6.335779771219953 6.649406142875382 8.227033338279133
Ti 9.04684115667644 4.147836095491329 5.965936710848118
Ti 7.879075964764486 7.436943236465592 10.72834759126621
Ti 5.714881068486162 8.592996056625289 10.138274926695138
Ti 5.3905508848718755 5.834411722782152 10.141479008668146
Ti 6.828741869649055 3.9466435976599525 7.976043060264071
Ti 11.20021775890019 4.982834791505966 7.5507110673910764
Ti 8.76084826945839 6.029399988114956 7.644181617679294
Ti 11.172905405427286 7.695940452904949 7.794156662597542
Ti 4.2968090032493516 5.180531040051394 7.693427186701776
Ti 10.126222868586881 8.701357069191323 10.046218307929475
Ti 8.211445328710832 8.573782578740255 8.159585064574395
Ti 6.163211167868005 5.175316981652182 5.753373111865966
Ti 9.705793503586218 8.891690613341025 5.782499750751567
Ti 3.9421313659082218 7.794056806529689 8.394401350514299
Ti 7.983606751096707 10.255127114600812 9.775633826125706
Ti 6.167261495676585 8.392373931247468 6.190388262260049
Ti 10.596415679122696 6.326455440086767 5.544164792438073
Ti 3.9437147182982533 6.873610592730359 5.715671134387443
Ti 10.181431907250605 10.219220029827522 7.987096136952491
Ti 8.178483158264918 6.766876483615962 5.065141032309655
Ti 5.5490642090601865 10.217859636453188 8.133712887455205
Ti 7.327906488478718 9.371630905266633 4.1047758415104365
Ti 5.988744146549093 6.99769315396509 3.842232255972614
Ti 3.626798766355711 9.43520147573115 6.4233732979905405
Ti 7.849643848992944 10.74355608822088 6.623411003035327
Ti 4.615515355062619 9.011465118785695 4.101103005536078
Ti 5.543691079883355 10.91209807903039 5.525667573985754
