31
Energy = -204.07806745 eV
Ti 6.90778732478262 9.949575171640204 4.296464366419483
Ti 8.097479445469851 9.662600363363683 6.773236875174372
Ti 5.37441672651315 10.34126167484634 6.511160354038672
Ti 4.4951521841295365 9.053969021264587 4.262911438120686
Ti 8.659961540403632 7.8181392117617925 4.465182552413329
Ti 6.460537302541795 7.516636713412607 3.1269721647639033
Ti 6.630422548708565 10.178954224574918 8.890941560739464
Ti 4.354220758290898 6.335416964515209 4.611151443367925
Ti 4.2112697458298785 9.592271964939645 8.897739376580894
Ti 6.314215794341026 7.921913493036658 5.721544311568631
Ti 8.457735125243312 5.196566970770358 2.851314198968181
Ti 8.907751226435384 7.0176860079495045 7.1391500197699775
Ti 3.4799185319822543 8.354045760286356 6.68620477974602
Ti 5.9541485512234065 7.630477274310611 8.116159763060951
Ti 5.63932588511769 4.967418654863195 2.8142951633544158
Ti 8.321666765098504 8.44183825139563 9.278946149793962
Ti 6.973959945775792 3.0097954802765408 3.623539464718998
Ti 4.887706552014969 3.6604853432059734 5.100707139974838
Ti 6.576878310528437 5.063767690003279 7.26005306479935
Ti 9.94820648947914 5.696246198473464 5.123742850875397
Ti 7.198972478941599 5.398562500036007 4.919669979083483
Ti 3.533927459649414 7.20045747412904 9.166225852141489
Ti 5.866126908106967 8.088986753792598 10.498884605313854
Ti 3.8782112806942832 5.656055447725628 7.114283683202287
Ti 7.7993325678140195 5.913808841759839 9.454352029842942
Ti 9.113021100452452 3.4125286374056802 4.826981962955827
Ti 9.12266992886391 4.22056249411516 7.330233938839782
Ti 4.844480210328999 3.190105997192352 7.7731292964267436
Ti 7.071607842960906 2.5403081585756864 6.345616425763272
Ti 5.300916269872956 5.217827855810797 9.552045920305279
Ti 7.124745780368193 3.2585019865299034 8.973931849839431
