32
Energy = -208.72309189 eV
Ti 5.116624796536101 6.014598015031234 10.158651684324095
Ti 2.8861956080342135 7.694269925302911 6.961534631338984
Ti 3.525076105644254 7.820745627183141 9.451545536749313
Ti 3.5554082752572587 5.290637856022203 8.232261363041774
Ti 6.430618406000885 8.297332849751937 10.05291996724607
Ti 5.288257429727136 7.528835087783184 7.629544780275272
Ti 7.458529987442035 5.46400047076086 10.627724149064052
Ti 4.6796878846265955 9.215332612956711 5.422192888079984
Ti 6.826032030821641 9.615637008675922 7.193075691224418
Ti 6.094863653871812 11.453678429734065 5.978423144713001
Ti 3.9043040548503622 5.5165426707457765 5.569782101925275
Ti 6.041780107017403 3.7152037192414458 9.1180990138755
Ti 4.609881494855019 3.196538622179406 6.741407919921216
Ti 6.143313608725092 5.202835649009571 6.994358532168473
Ti 4.239914450970859 9.92882445949845 7.843020441700219
Ti 6.054951910100816 4.095018777688608 4.665645282752217
Ti 8.963656767782048 10.516860896285303 5.864321461586568
Ti 8.442773144259117 7.791373476008022 5.969696672172351
Ti 7.222586595207101 2.8891179296560447 6.762551437388636
Ti 7.685490689020829 6.777860874239875 8.402469586673133
Ti 9.187159104784334 9.130735758724821 8.373735386563341
Ti 9.603932909010725 6.821768374735758 9.97313910992209
Ti 11.081283058257114 8.697653117228379 6.12566763526866
Ti 7.0793811883960185 9.489797114456957 4.2659179766894955
Ti 11.363218369741592 8.579647033449804 8.733305392327456
Ti 6.056425596662027 6.890238601663951 4.852589692686275
Ti 9.669624145612087 8.943085283022064 3.903590461185386
Ti 8.505903500250142 5.026483652003797 5.631924931377514
Ti 8.725755159291856 4.3405514302302635 8.524569015202603
Ti 10.494583232645034 6.410776109773682 7.486806060554047
Ti 8.204486923049483 6.822385262563189 3.5105329181911427
Ti 10.492070972255961 6.577961011433694 4.7791789007194145
