39
Energy = -258.83713273 eV
Ti 9.236273324220322 5.874562890811101 9.153176209459252
Ti 9.663069027724749 7.39327897855191 7.169961610962697
Ti 6.530953803451586 6.562717562498889 10.34157327150622
Ti 7.832499684035264 8.287685170160218 8.811321502895582
Ti 10.999909758741405 5.042781182870906 7.055425214020051
Ti 5.6374139532694425 9.252155108912604 10.724361211181403
Ti 6.9938212328618246 3.796271268902293 9.261461755747117
Ti 3.859891858872253 7.237098102295499 10.721306715646318
Ti 9.469959164281638 3.3921331549244145 8.653185232544633
Ti 7.579968307835397 8.013764566536079 5.6620745917142195
Ti 9.832069273338911 6.553882293005362 4.74268899487874
Ti 4.606673154133046 5.336733549022312 8.976963816630692
Ti 6.881294720944949 5.980138301859399 7.6507199419644785
Ti 7.0460043475570195 10.31494254182811 6.999934245844916
Ti 10.62747240284883 4.131320529578757 4.5216044117012695
Ti 3.14169687008014 9.377140838979583 9.696654438424352
Ti 5.148866352152973 8.006822380251188 8.56855062240104
Ti 10.213427342244277 2.484511156074598 6.411164488248621
Ti 4.850055422998269 10.84172919499483 8.557916887925703
Ti 5.2826323431019055 3.506514605663827 7.352552358926164
Ti 8.574697902959526 4.526270599426728 6.297607945076598
Ti 7.61868024856577 2.118440387634672 7.059119809539036
Ti 2.6209743806584496 7.208758801675613 8.01128215816558
Ti 4.7787893830451385 11.328741329371017 6.134584119792084
Ti 4.9878855560096556 8.610117393084424 6.130287746429642
Ti 2.6915589795548263 9.78193206607303 7.057403111541269
Ti 6.33167785984985 10.083149346304886 4.41163546036856
Ti 8.434210569261605 2.555310009302401 4.349250132282369
Ti 4.419884831779036 5.829155362418569 6.146157369368053
Ti 7.906398721240852 7.52140132387674 3.0235255395296505
Ti 8.750748555446934 4.901998742708961 2.759582867932627
Ti 6.737286010931091 5.559785676601994 4.527569746286358
Ti 5.8347361887315365 2.918023711593569 5.045520785191084
Ti 2.6837480999385703 7.607892241670603 5.276056193854039
Ti 3.493023842789962 9.858367517949596 4.400767637181503
Ti 5.105188750737745 7.5685052090383405 3.7282371797740135
Ti 6.520535278186199 3.4769725258353317 2.7189974135058934
Ti 6.276008407665859 5.871033088882868 1.9263435371697886
Ti 4.378709952962111 4.866657153837695 3.5421695893975995
