37
Energy = -243.44985065 eV
Ti 9.721895415427658 6.799871230068937 3.8311784302223266
Ti 7.793277503100256 8.54911721715902 5.559291638345371
Ti 10.386880910183919 8.220341663540172 6.562630842412069
Ti 8.627617172235832 9.846287887645238 7.818023305168114
Ti 10.3167365036459 8.497008279150883 9.251000646013129
Ti 10.968542828897412 6.328907781428423 8.320854620028015
Ti 5.646300490229972 10.157734027076044 6.070675415244418
Ti 7.928471511593561 8.743531555685342 10.181226006566325
Ti 6.164176695209585 8.848611692525846 8.27060054725647
Ti 9.94841514645347 5.540183324668878 6.082457834517474
Ti 9.269768458537637 4.1714291398867145 3.9171114653348518
Ti 7.769991940650663 7.810868372776094 2.7877088465699247
Ti 5.550932093197041 8.43712616438244 3.7670323841857902
Ti 3.546118730195127 9.61817690890422 4.87320854551847
Ti 7.350324507302799 5.9806289659423335 4.827679007275611
Ti 9.200533736859486 6.2872923064501895 10.313878613097595
Ti 8.367311033950395 7.1333378752146785 7.921650955664063
Ti 5.139638662770278 7.496570286479057 6.203501167370378
Ti 3.4603264693447424 9.364573920930743 7.5589472131900095
Ti 9.257668659955826 4.303718554806271 8.416563473394143
Ti 3.1257915062519253 7.314782512589252 3.88153108938539
Ti 6.219873405537777 6.737663459523578 10.050871202097603
Ti 5.68847905749318 6.0425791883155755 2.646274630835355
Ti 8.082117031753047 5.332336815670499 2.2128672142179058
Ti 8.096999341986878 3.3650793643344854 6.051076608845996
Ti 4.806199122170354 9.072202874131568 10.304044263375316
Ti 6.384201982736556 5.299536055197334 7.4943072904552945
Ti 1.4080716603611976 8.829761559526798 5.535480978717686
Ti 3.946693997403272 6.875826158119853 8.752381805390343
Ti 4.483182651005644 5.197461917786863 4.8920161753065745
Ti 7.30308588563869 4.476020361527858 10.119446377592503
Ti 6.585298836266218 3.6704343372145667 3.808607910916732
Ti 2.4799810974523258 7.067043162112981 6.545003091504411
Ti 7.061519558473689 2.75880201525266 8.404738943998538
Ti 4.869790098981939 4.028237221141546 9.175280307222952
Ti 5.427886873064871 3.032565842308761 6.487541650296388
Ti 3.6142809846885067 4.774465183334658 7.103844005662622
