31
Energy = -200.77578575 eV
Ti 5.640784214802967 9.81866745896254 6.96237956972478
Ti 7.068514276644186 8.849801173569467 2.824820002706789
Ti 6.2621514564043474 8.631318475676027 9.642968424394006
Ti 10.864302160048734 6.9013742151471025 6.105818865285481
Ti 7.017756096960682 6.191946735489066 2.86568863985361
Ti 5.295827397481854 9.847256387384332 4.292133674329863
Ti 6.046200402002811 7.248428077663137 7.559155720911845
Ti 9.172167389983754 7.860022905496733 4.347274912193443
Ti 10.36918101859648 9.27415104300349 6.273743767970303
Ti 3.8103624828698854 8.15609978288942 5.62707406802659
Ti 4.75030542557014 7.6219621761378535 3.0776418577892506
Ti 7.874826011575545 9.88508931786076 5.367048661997278
Ti 8.521446255922267 5.487139266944281 5.230555514487636
Ti 4.8783407988193055 5.424023243455316 4.704546765610735
Ti 5.3769871592639324 11.020128316764625 9.21587056107557
Ti 6.728749167244806 3.8494178505136714 4.274118799775987
Ti 6.5023880102655935 7.519756049427063 5.014292292133311
Ti 7.90776075270484 10.093169333004479 8.205121618195415
Ti 7.957370359735061 2.7973255529221763 6.264452833636731
Ti 5.120325382291931 2.836703300114451 5.91341759831747
Ti 3.8712755527165967 8.42644238953829 8.393855768795488
Ti 9.197508322987954 5.102981262888469 7.645237353773988
Ti 4.888503413300997 6.020099232201735 9.52012217553451
Ti 6.450187904382037 4.709296090215269 7.27313659799727
Ti 8.59081720310907 7.663735885978885 7.162009435841047
Ti 7.5968594725043195 5.876510563023843 9.64783675422631
Ti 3.697435347597363 5.952184520990493 7.097929886845182
Ti 6.132598524007563 2.0634142983713155 8.093412897941453
Ti 5.99102481812244 3.7324097713081197 10.073708725347087
Ti 8.186516523229336 3.3198702388387216 8.933221790946918
Ti 4.0916504633992545 3.688594680767423 8.30849012863295
