35
Energy = -231.60668126 eV
Ti 10.871369221138142 7.41420548463103 7.179119056116729
Ti 11.360486292029481 4.979584193554305 6.546323352873899
Ti 9.855366794418922 5.5244380522162935 8.722938920333288
Ti 10.659800894870317 6.668721802624225 4.5350094060918105
Ti 9.199284836612035 8.77297252850493 5.784140009458473
Ti 8.505933035891081 7.812104164407005 8.244602821800294
Ti 6.8168304088058305 6.444752915904175 9.766248243905876
Ti 9.34621479324337 3.3728272768268908 7.166427302495655
Ti 8.820642596872025 5.895257191667457 6.260972149547773
Ti 9.959566823799172 3.9877559782944876 4.736374643739846
Ti 6.08192222404248 9.035630511920008 9.77849732101765
Ti 4.616354657392708 10.123576848669192 7.798528996475089
Ti 8.893146898359236 8.181102103344159 3.350489319528716
Ti 7.335923918380689 4.618609816123914 8.183292643526888
Ti 6.5084152376579 9.404074098030769 4.005012688816256
Ti 6.860458555719774 7.090003974180662 4.887143960989515
Ti 4.564227049072829 6.986676246990684 10.727249573663455
Ti 8.59508923836576 5.50481146869983 3.159183951999677
Ti 6.714591242858119 8.94764413644066 6.956453146608857
Ti 4.767176710788778 7.419095670936916 8.096754907646007
Ti 6.931368909430512 7.373322685838945 2.206796972475425
Ti 3.387658536861202 8.981593005842722 9.829257327350941
Ti 7.310923198573168 3.7876817883381393 5.271520418052808
Ti 4.4132805492935105 8.45056094351137 5.572893316103383
Ti 5.4492906237677055 5.424486859082147 6.447204116255068
Ti 5.5567630690036145 2.9356214688260582 7.279552434209269
Ti 4.772057132097744 4.755036869952211 9.232340266954814
Ti 2.4359317701959835 8.769089373372912 7.5184823259920055
Ti 2.483594885360812 6.474710755556594 9.017265537021085
Ti 4.724002075126028 7.5598562695681535 3.1524175492534963
Ti 5.851943242547258 5.068562381026658 3.243072647535637
Ti 2.431635942540524 6.653433330473255 6.349123830592059
Ti 4.669441320734501 3.2923143833409654 4.963729190323168
Ti 3.1758296762753693 4.2654432570458445 7.0229603016239395
Ti 3.56441372540627 5.515378251790053 4.499557437154154
