37
Energy = -244.93707376 eV
Ti 3.0556105541566634 5.920706362436789 5.077125395633904
Ti 3.3559588416504105 5.546025519440194 8.387533701650225
Ti 4.246658148358158 4.275348623592931 3.341189561115456
Ti 4.644481688816118 4.063260442731743 5.994841377624274
Ti 3.1213407095275056 7.007817555134854 10.64599754126908
Ti 3.8801864509878228 6.6983207795939546 2.607715621881792
Ti 4.516393961125588 4.783765796442772 10.73690002354372
Ti 3.456216167063063 8.378822088266455 8.347990410407258
Ti 3.849844331227119 8.27654818947195 4.700944735189255
Ti 6.843328874624229 2.675918907402028 6.452813254013487
Ti 6.667322700220521 3.5336490855756946 3.9810430219881323
Ti 6.050469100917991 4.4052861286980844 8.475338527729186
Ti 4.982522006961067 6.922237672191001 6.780934804938646
Ti 5.349562553180511 6.947806426615507 12.042847622420727
Ti 5.67363559165305 6.1986181270263065 4.458737058046501
Ti 6.307630459280083 5.724170391095674 2.016855554902659
Ti 5.521048084686297 6.859187245462547 9.425774192722256
Ti 4.715719350118285 9.07456291359575 10.676302787799582
Ti 7.487748767112275 7.865378821123224 7.645978527502229
Ti 7.0787562704533995 5.27228957521127 10.937621459904463
Ti 5.892371209539338 8.430589323479424 2.7839681474777955
Ti 5.958574248232316 9.350334306375634 5.4897173963270305
Ti 5.904417709183346 9.54283837506821 8.500817556947638
Ti 8.609111385289447 3.5671766685534116 8.059316953105427
Ti 8.010973032079418 7.562383272406961 4.966509308552674
Ti 7.587512182986299 5.276161185063996 6.3706552734098185
Ti 7.347120859740229 8.220968586720383 10.54985216066104
Ti 8.499342007408856 4.931036457909678 3.1928719803064802
Ti 9.191951297929442 3.4897211455531076 5.345737907420928
Ti 8.521702601782088 6.065559050816419 9.058768894041554
Ti 7.897695670604152 9.854875454046006 3.6789286687268397
Ti 8.558024005390948 9.875513261216247 6.2144532373749515
Ti 8.544124886963129 7.483431508506123 2.4569873936881272
Ti 10.239601401883434 5.274478006169872 7.039210171982204
Ti 10.237982459021035 6.096776408555467 4.5039808507596995
Ti 10.061023262910076 7.777039246198064 6.763564340651046
Ti 10.17977603695832 8.81713596227415 4.335913448305146
