38
Energy = -250.50667752 eV
Ti 4.4830049249136295 9.971049652626576 4.447950228183406
Ti 5.251241473336995 8.916355877993047 10.942070922250913
Ti 5.548636100490446 10.502567934853692 8.781057097023469
Ti 5.062369786886937 8.014554844441342 2.9459763165406327
Ti 3.539019322861622 8.786630966828337 9.306325581377706
Ti 6.315215047453441 10.480305476576172 6.1542751081771625
Ti 3.763467638978027 9.579942906274251 6.893654168925235
Ti 6.920524243141073 9.464511000207771 3.8313688415479152
Ti 3.0910897306313063 7.712231026054693 4.9324364843611965
Ti 7.630310934796956 9.559620904976585 10.288045512618616
Ti 8.26241934609965 9.704944998433676 7.927232112834111
Ti 7.036493044475782 7.161714083249116 11.160341093448698
Ti 4.539484971163298 6.461924721365886 10.258761051972565
Ti 8.372654446137092 8.607361575725134 5.650465129323795
Ti 6.10632600671842 7.8376176214175866 8.537288550219802
Ti 4.588983679044462 5.7566595737232085 3.605675426083088
Ti 5.586332073343094 7.727879440116687 5.668291649137259
Ti 3.2422706586560017 7.045826036982388 7.6468816157202015
Ti 10.496173150852838 9.61514327976341 9.467006006918393
Ti 8.292629335657882 6.215529539025987 7.078744447636514
Ti 3.9013017023459233 5.154043721474554 5.923592805611147
Ti 7.526338939341888 6.894333947308522 3.5695063762400543
Ti 11.628773470247939 7.509301040112835 9.46571560650022
Ti 7.073567352214444 5.305442806514693 9.487227391555294
Ti 9.047711510256713 7.3780767891545915 9.206185468728163
Ti 10.684900759688219 8.392039137524895 7.168340915882783
Ti 6.711239930020699 4.941398587220384 5.469577215142763
Ti 5.243332767749687 4.9908898821105865 8.05850510178333
Ti 6.793139335258671 4.288238333486 2.843853354062788
Ti 9.543169193856304 4.6465021852610695 8.894575814748794
Ti 10.003529490073129 6.503681492006506 5.0222301331857855
Ti 5.357037466652655 2.8017725418406747 6.557605698290946
Ti 7.556555791072163 3.236014296535288 7.653586310526506
Ti 11.093195370607909 5.922080471414602 7.406403866531671
Ti 8.956369619132046 4.596281204700444 3.822064783436191
Ti 9.66959873970752 3.9553960130660215 6.230843676188922
Ti 4.9965572038976775 3.2503762685426625 4.224783649586197
Ti 7.530708038197119 2.557432417049478 4.91722708365855
