39
Energy = -258.4711433 eV
Ti 7.2462698930977565 3.4860477637653564 9.508721843688452
Ti 6.27638036071995 3.3519790955334416 6.949599766093784
Ti 8.748037761315294 3.1694809055118753 7.620738817525285
Ti 3.983069258404387 4.688972130405296 6.437070407525623
Ti 6.058218547505227 4.988615293625001 4.5650403541673725
Ti 8.390200466478325 4.46169192640621 5.312587806713095
Ti 10.439990534351663 4.8636677385039615 7.087771871744878
Ti 9.324594367576317 5.072600873551913 9.621325374168945
Ti 3.9689286696410524 6.7140115844795805 4.723714140277482
Ti 9.354003616032115 7.189230230404136 5.74065654909594
Ti 4.796234468590448 4.0672856496106595 9.030999388527874
Ti 2.444896788885848 6.976329692401471 6.8409094047631624
Ti 4.944048477831148 6.665794376516976 8.050284621604266
Ti 8.493476923590642 6.643293951998278 3.336954940654585
Ti 7.5980982801837245 5.630714085987138 7.7524975458501295
Ti 10.685084745736226 5.194303479914609 4.443022312274274
Ti 2.628511550104145 5.410709554528309 8.66292880884831
Ti 11.94222715188015 6.685874602795814 6.314860207349319
Ti 5.918251795574766 7.129165297875476 3.007672424619927
Ti 3.041409508521776 8.069617932709649 9.199427352326158
Ti 6.493932695358014 7.460109162006381 5.611079515538975
Ti 6.604614439948127 5.712943787518611 10.51147698231698
Ti 11.264017429600361 7.5251244061754266 3.870555402646018
Ti 4.031384710531495 6.051923377226853 10.620985251037327
Ti 9.945749172208979 7.471834224524558 8.256754682856188
Ti 9.774895764395641 9.303227963243025 4.01715258896304
Ti 7.134306290139098 8.511737158667641 8.204929670990586
Ti 4.821097538935794 9.104951386512186 4.125978657242995
Ti 7.353631323477694 9.206178536243131 3.711899209409014
Ti 3.860777224641114 8.97138561332969 6.59239480381731
Ti 5.463218358687266 8.191079793785391 10.591304001000935
Ti 11.2145317190107 9.05736698074045 6.173482465578991
Ti 6.0717252535116755 10.270258521678706 6.17509317666973
Ti 4.984911993880316 10.134234215882605 8.746452691636435
Ti 8.33092944359359 7.703070322959938 10.491095835581902
Ti 8.685041604510795 9.824078562233032 6.403319049796217
Ti 7.382965231688685 11.266300460714945 8.244069724490801
Ti 9.325087661414004 9.81205080669382 9.117359069136606
Ti 7.088297240009059 10.08466667615717 10.446380185446186
