32
Energy = -210.41065614 eV
Ti 10.718254729019662 6.00456292146665 6.986318730979457
Ti 9.448846939541149 4.366977398969566 5.028805079401519
Ti 8.817277412842385 4.489961713658067 7.74516522724391
Ti 10.81579291374678 6.738223711304152 4.729860941990289
Ti 9.797572744319607 8.638624603498023 6.461916136279416
Ti 6.70672117787241 3.1711518677337676 8.481130097321323
Ti 7.433620149687768 5.08216806895037 10.41237510232324
Ti 9.015373070956551 6.980140754932295 8.590172367415315
Ti 6.902784340817251 4.965640030181227 3.34524588057487
Ti 8.351613683382954 6.57493653517521 5.843665217618473
Ti 6.700446035058881 4.020784340206326 5.972537290187442
Ti 7.0869489226896265 7.854068972316893 10.085170201944292
Ti 9.063569856992443 6.092726176178157 3.040281747392655
Ti 6.588484119140882 5.892627777282072 8.249340933744811
Ti 9.284193931820962 8.522113795677068 3.8565395719187525
Ti 4.9368526911741855 4.180608648376038 9.907970633079733
Ti 7.084076642747188 8.7148950094449 7.574748664105101
Ti 7.146864147378429 7.820104022628081 2.5765792701191064
Ti 7.284151829042029 9.558091203379279 4.913407640043771
Ti 5.124828440115727 6.456443068348699 10.679230169756199
Ti 6.043152118447517 7.102424089792091 4.842112435064083
Ti 4.223601744009592 3.7645621423573115 7.477012224811883
Ti 4.548964054998254 6.470002505766366 7.052721021870808
Ti 4.49043958440481 4.8210974823780415 4.835529332278509
Ti 4.597589860786506 8.369757241305456 9.048222853337712
Ti 4.818385750991115 6.510894800117586 2.6574897800220256
Ti 4.843197749449086 9.12167490757107 6.303983141304267
Ti 5.013601433529942 9.061951789976273 3.538541066253091
Ti 3.001774566379413 5.928222875145954 9.055694000033508
Ti 2.2769364039649567 5.437042942361766 6.506742145833688
Ti 3.3305149452219487 7.323952027757015 4.838196890361663
Ti 2.4888011847403755 7.948799751035519 7.348527380659761
