37
Energy = -244.01609962 eV
Ti 6.564515067140132 9.56667390575722 10.201932104762243
Ti 5.262744069151913 8.218029386249102 5.5860855414309265
Ti 5.1135513135288395 11.032515330921594 5.826298843713239
Ti 8.035575186089542 8.418467757014021 8.173892113033283
Ti 6.106896758932597 10.211591653381653 3.732072457754118
Ti 3.497038101206926 9.495753049277106 4.047761029507408
Ti 4.451215199007033 5.519600709446384 6.011918508897732
Ti 7.61008587346103 9.936094010293784 5.8280237593406445
Ti 7.592034753952359 3.1408364217917515 8.23080023495635
Ti 9.607609269649059 8.089436154710178 5.764010004241376
Ti 8.992165627236293 5.842136962823142 4.376034210765701
Ti 5.388531563342301 8.032826635618138 2.7602272403624926
Ti 8.663899118536323 5.708165080044865 8.740347506414153
Ti 10.552536342830598 5.860233284699359 6.597536934365996
Ti 8.775560368308179 3.8878471349500314 5.86856992595601
Ti 3.6114252833467146 6.76538918606621 3.7790075294351544
Ti 10.224180590192791 3.5884950117185674 7.759087358254069
Ti 5.360834390771223 9.642912820075054 8.047787010958244
Ti 7.776911412625872 7.484963392500185 10.993169449126654
Ti 9.38862883429208 5.479472062526436 11.409379975283496
Ti 10.336024556267212 7.5222901446303085 10.591025259500245
Ti 7.1906287680555385 6.227978247153266 6.399024799992227
Ti 9.374236347617542 3.4591552168513564 10.096363505231015
Ti 6.198195765502326 3.6652595706275966 6.044306074205269
Ti 7.731480794984499 7.980134649873013 3.814843038715007
Ti 10.862591124717483 8.067098044664263 8.208895442590096
Ti 6.979013533874599 4.684192686296242 10.508692940149567
Ti 3.152282481920947 9.67266363729452 6.7344198478663255
Ti 3.654584612052392 7.334563549671524 7.913139427525559
Ti 9.324911139417337 9.761467197345828 9.963407949297283
Ti 5.452396728484872 4.626521219386289 8.30874830254869
Ti 6.149694019472107 5.75179506841426 3.997986977813242
Ti 7.559538920819663 11.08901226517457 8.297387337209932
Ti 11.231405913575518 5.3681167541816714 9.373929221629632
Ti 5.978360741788872 7.0379916211521865 8.972661801480676
Ti 9.793173031091737 10.293258455057181 7.3501342911613845
Ti 2.4650595372740174 7.546578862879777 5.700609185043103
