36
Energy = -238.34378558 eV
Ti 2.051772291945651 7.104593175418602 6.219719815870776
Ti 2.8939888796333118 7.012841307585046 8.724126181050396
Ti 2.356149532182336 4.7605285348043935 7.411384870212591
Ti 4.3292706371369825 9.333130237237278 9.155702165357628
Ti 3.9492864027900776 8.928852134691889 6.485334348298394
Ti 2.5524083965561433 4.980905133985946 4.917454159622259
Ti 4.745174482603572 7.19409082386652 10.599079833279113
Ti 4.4758000104799045 4.90291517402864 9.11718075041776
Ti 4.472758554633722 5.919770321243811 6.462384554013948
Ti 3.821481265813407 7.427460656287972 4.207275495001959
Ti 4.746321315995751 3.4218163199524745 6.187908559641229
Ti 5.646281527066993 7.264793396555883 8.23386818121134
Ti 6.242623128159224 9.92820394923302 7.3095676970221755
Ti 6.913904514838064 8.643971814201581 10.04827714039291
Ti 5.852912285639666 9.547137477450073 4.461395179856926
Ti 4.553578529547416 4.918539164826144 3.489658097070078
Ti 6.72244109905698 7.603860425032239 5.532003744919705
Ti 7.207287575832924 5.980711970295078 10.084127173394458
Ti 6.146594094651363 7.010220745387813 2.8360132409709222
Ti 8.451401311328285 9.620500889189955 8.326162674503609
Ti 6.022698733115303 2.63709306198918 3.9525228192960586
Ti 6.7759215396775 4.587418982429299 7.800426500972425
Ti 8.603992292602427 9.613734254809023 5.703137124409088
Ti 8.315437657864436 6.892768635899962 7.580566722222476
Ti 9.635502735908766 7.478844788798347 9.672007171031238
Ti 8.16133876738277 8.467119769276675 3.461754892854571
Ti 6.888299260111969 4.471430290780876 2.3505698982205656
Ti 6.859261460486219 4.918990214420802 5.062316852112236
Ti 7.447748090230255 2.606569778723363 6.207220878120585
Ti 9.290740954618881 4.795279136254341 8.913908238673235
Ti 10.459209938729567 8.652201381196834 7.380637292519871
Ti 8.573201476269968 3.2572875339017937 3.9171341093549046
Ti 9.889772597452763 7.25414449740924 5.189425300632271
Ti 10.909353029048448 6.209441572910372 7.563805886987902
Ti 8.684015627570531 5.946770583967765 3.1899212623654196
Ti 9.296829545060284 4.650821407979468 6.190780730140222
