34
Energy = -219.7781514 eV
Ti 9.067903438292886 11.174510480364308 7.528061775784597
Ti 7.948527197859572 11.290859839362108 9.925932957258176
Ti 10.088444598952421 9.528343283987155 6.487074134421536
Ti 6.47332415685557 11.383425176911096 7.5977838151125034
Ti 7.877641333319252 10.802583639084492 5.267302896646476
Ti 8.217740514599429 9.290504945257466 11.500318037911098
Ti 8.676173488003016 8.858541932719088 9.061032465344717
Ti 11.295874453372534 6.843146459202656 5.148838471296278
Ti 6.083143478351836 9.56415768344613 9.856362044952993
Ti 10.36029596465011 7.011742168116173 7.781669015260405
Ti 5.310448928001693 10.332960247674393 5.387327775884243
Ti 9.41736138506988 6.588769792541566 10.422996958704115
Ti 6.5954822936743165 8.396839352787676 4.08939286559132
Ti 4.424092186743349 9.60832380781247 7.645967769645981
Ti 9.0359071869882 7.542170017162516 5.271636927798762
Ti 7.040304366348482 8.875829652748125 6.804268457339934
Ti 6.881347265645856 7.084756032044694 10.781192449237805
Ti 9.30993924510518 5.0537243234110205 3.931066361500407
Ti 4.570408036235944 7.696991783353983 5.803915174146162
Ti 9.700674084918996 4.925335363194584 6.333268479461893
Ti 7.823210956431472 6.253949812221218 8.33152430065914
Ti 2.95811473599452 6.401106957759225 7.627123113062884
Ti 5.276625138611112 7.350960765763342 8.481798496772878
Ti 7.1686470872821735 6.136374020738882 5.622028437057611
Ti 2.768976412899561 5.593703117507189 5.553919964713601
Ti 7.532506280201781 6.020565620973325 2.9647877298718344
Ti 5.113013616932489 5.9386373088571744 3.9285570391979916
Ti 6.827159447877068 3.937639692092437 4.6191514624133525
Ti 7.64788240339433 4.4151192046303604 10.277601274813822
Ti 9.806946484196448 4.505370888473764 8.89837816703964
Ti 5.114803195031338 5.042511755503504 6.732968703558845
Ti 7.614542273796921 3.648503524314884 7.541253377462565
Ti 5.342444552257156 5.082157524201802 9.398400103922361
Ti 5.651796864171135 2.8492301601479673 8.42624011934587
