36
Energy = -238.96853183 eV
Ti 4.908008372975308 4.247781471214755 9.900876328082402
Ti 5.879505547042934 6.7412734449869065 10.04479702850566
Ti 3.2657471028935534 6.090123479948285 8.918814139995575
Ti 4.664455882043565 8.495830866179583 8.34507934352129
Ti 7.511436779235889 4.412446693757206 9.86599202323132
Ti 6.819851147377834 9.260074557567043 9.779053875844372
Ti 6.050228498431474 2.593078482679611 8.271988365702287
Ti 8.646880116686068 7.32051953011662 9.784899813319806
Ti 3.6895344615929595 3.750496539886368 7.562429977517964
Ti 9.358030818090663 5.3260043141103806 8.273817075206557
Ti 2.3642720178232346 7.955327298033841 7.042945887556777
Ti 4.4688093281724255 6.433547312631893 6.477098960133377
Ti 1.932298020542819 5.52193302583192 6.657098839309901
Ti 7.194526558217749 7.735532374429406 7.713249875046215
Ti 8.408774104298004 3.2840185745050166 7.431633813009852
Ti 6.589017282035192 10.395351404929118 7.348046219412606
Ti 6.204727207676254 5.141081474857909 7.7770649935014875
Ti 8.938823903341916 9.617860086977561 8.437768029532378
Ti 8.780143941877553 9.866419445056312 5.823967650303203
Ti 2.8003427067893063 7.029246174965091 4.590900089146035
Ti 9.86551828032125 7.456066510533442 7.124670648906736
Ti 6.923018340279099 8.017566636572663 5.220693920526951
Ti 9.52483470265957 7.395071899865251 4.510207224584762
Ti 7.794576730916766 5.4036776822151955 5.427669766128072
Ti 10.258711009053899 4.701294430284149 5.875815894282933
Ti 3.3792379396190766 4.439750845042097 4.885829087250669
Ti 6.4019966970979665 10.556063912872537 4.702762713979294
Ti 5.800373393560442 3.480709773889442 5.65967797347338
Ti 5.300844538694086 5.941803303747566 3.949112556713591
Ti 4.38640570001018 9.124578408686391 5.7216819096282565
Ti 8.468530068011015 2.843974127976418 4.873434151851504
Ti 7.540896776204267 6.688130047097711 2.8834601854631674
Ti 8.065217513549607 9.32534106452421 3.268076738141165
Ti 9.425221813228903 4.823209452477263 3.4279294977701986
Ti 5.418899827927896 8.591735937532173 3.2183680354177846
Ti 6.962829391828884 3.985605934125527 3.1956138881099525
