30
Energy = -196.56753314 eV
Ti 4.050058500742047 3.077922650809363 5.5843625012534295
Ti 6.487536200340754 2.833990739797551 4.8759669441332925
Ti 4.782840074784208 4.318930595818199 3.3074241454282944
Ti 2.877725787909956 5.202365280868803 5.146371821939987
Ti 5.941754601320775 3.245612116941804 7.4460700231043315
Ti 3.6556570585463044 4.966281285851058 7.5698579148857
Ti 7.559594379079815 4.824764372591195 3.6643472712580385
Ti 5.673744214086068 5.222504487439579 5.577507908419347
Ti 3.663573013800321 7.210156479048632 3.8629169671445935
Ti 8.223453480083322 4.267997397857755 6.289287520409103
Ti 8.397828553460633 4.484767151145592 9.138966077796187
Ti 6.099074666321533 6.601273227262886 2.9762074942975763
Ti 6.0500361522117645 5.581351397005723 8.545021139674773
Ti 2.5814688530580936 7.439334801900658 6.58436975706953
Ti 10.436217025471473 4.978493696760623 7.545132914815792
Ti 5.146724334675198 7.591402791910649 6.288825299354555
Ti 8.363514730692057 6.690262649745493 7.579439379264495
Ti 4.096831316631135 9.524598050157092 7.667417631550267
Ti 7.6555885829065815 6.901616137650655 10.167942915054947
Ti 10.17331302200226 6.433374200390488 9.689324889040304
Ti 4.181014385461625 7.344328056798583 8.87298616780276
Ti 3.65242943134371 9.533521464776406 5.183993541743389
Ti 7.570012619870948 7.429921061700967 5.003723352196791
Ti 5.665069126740529 8.943396324421022 3.804455043589218
Ti 9.891315834782882 6.454201583205121 5.3378840266750816
Ti 10.948424231338167 7.546790166061139 7.507086096141042
Ti 6.556472944702234 8.633620844042232 8.362575047503084
Ti 6.256068288568212 9.98352026370051 6.049683551802608
Ti 9.210741683621045 8.783141811744276 9.060220536159216
Ti 9.151916905448706 8.950558912597534 6.31063212049431
