35
Energy = -232.17086722 eV
Ti 4.784528056836578 10.062115145564093 8.465117608109134
Ti 7.294773662798816 9.892220342293731 7.893859950832656
Ti 5.154417821379356 9.988838108665153 5.9004828204744
Ti 2.687237208668641 8.920035346906669 7.1661243960349355
Ti 3.6142120432419973 8.326613372622475 9.678703412919287
Ti 7.5728153686888104 10.293333152225701 5.181308204234343
Ti 6.353806677837173 8.043411785769147 9.670719950482784
Ti 9.512486655942281 9.363164113517389 6.532564631480911
Ti 3.7000037852045864 8.305086671583743 4.632706707526847
Ti 8.925182332635417 7.777843738786331 8.63927260780535
Ti 4.709215750657823 7.553894300634507 7.4106201034555905
Ti 6.115741766435877 8.549350267818287 3.7230454016224317
Ti 2.447091455119956 6.49734421062736 8.395031182002603
Ti 4.778557408355395 5.9444911295093 9.799328153700161
Ti 7.3278693101286825 7.856625562603257 6.242458512572157
Ti 8.838698741597705 8.2088679910751 4.124920249602816
Ti 2.684397556171249 6.339392344367548 5.6739796115676775
Ti 10.258543398561502 6.941232694624043 6.343475722994219
Ti 3.847223930874757 4.571644713964444 7.544305859597327
Ti 9.690739524362678 5.3285771880071575 8.245456042081075
Ti 6.860401323573304 5.762159541161376 7.945849864962607
Ti 7.636417864393377 5.352947025659876 10.075474463191304
Ti 3.8594238291410954 3.9782710019546546 4.9997805113638405
Ti 4.368957013632423 6.030560235065255 3.2375287486063846
Ti 10.078618795610568 5.9472118569978525 3.9523777650223804
Ti 7.375263746207963 6.1458524389587135 3.103811894758494
Ti 8.102345201647015 5.136773489114698 5.646287572288675
Ti 5.44731539517179 6.107243363323891 5.275594282883908
Ti 5.793924186354634 3.578972866628313 9.051032500690063
Ti 8.279827467089499 3.3506117859675095 7.962089593201648
Ti 10.27508636131141 4.011133679706467 5.845980334717756
Ti 6.267910475767163 3.877513877201623 3.8174651543848004
Ti 5.888297684123598 3.118409080027654 6.481096442512788
Ti 8.90547967906412 3.884935516543874 3.4721606870402404
Ti 8.07588863442235 2.4660221735320973 5.382689168288001
