38
Energy = -252.36938562 eV
Ti 2.356467974546473 6.057092483266696 7.41718278144868
Ti 2.5242667468669797 4.588962252403094 5.13645542572367
Ti 2.7095635756559195 3.3236983306999823 7.143305745091146
Ti 2.573875402054231 7.157220244692817 4.866379185341545
Ti 4.656304357363606 6.867972797661176 8.927249230480818
Ti 3.72827461825437 8.66187700066509 7.272970012250248
Ti 3.4654043763299525 4.518536396426816 9.211912308334329
Ti 4.642059552402142 2.8730198075205133 5.335775433770839
Ti 3.7704448375187516 9.48956933240153 4.861455299901296
Ti 4.72070210178672 5.038738661026143 6.80666447092295
Ti 4.250902762063795 7.849244077179276 2.9329438704234168
Ti 4.390057416832189 5.221292030906452 3.6304981482409437
Ti 5.111720560181461 2.633938422877084 8.073121855916288
Ti 6.965082499955886 6.848317819705311 10.031117508700993
Ti 5.849646313930962 9.413107754332579 9.046673844009627
Ti 6.7688485821896816 7.893202684658814 7.336345378484535
Ti 5.155284221419562 7.206130608125498 5.3160294197182845
Ti 5.755553817283963 10.276975172587655 6.3631846968172985
Ti 5.904248046371827 4.422044197745677 10.055020716691226
Ti 6.227454485414542 9.392054264098253 3.7880034760119274
Ti 7.959634011513204 10.345511660500986 7.768255657379098
Ti 7.521056907275962 2.6421172249239646 9.00787653098889
Ti 7.252262906739444 5.126712606374377 7.769472378112015
Ti 6.742132540594327 6.790910160771601 2.933081501112494
Ti 8.613484268449977 8.445279009923153 9.25358466859743
Ti 6.787687841380276 4.975845373659432 4.807638559789013
Ti 8.607227144179339 4.7434477155196255 10.06725507691818
Ti 7.276808578326196 2.778415497933491 6.379921929675317
Ti 8.551338943022984 8.654175260964502 2.8683762360110254
Ti 8.292844485301403 7.364394195830469 5.303785103513421
Ti 8.402153246060921 10.150422233243095 5.2197353075002235
Ti 9.541650620706147 3.653874698137009 7.900953538910005
Ti 9.152771289311202 4.686700117835511 5.608108936370337
Ti 9.59737902016064 6.340347132042535 7.957395310918624
Ti 9.575856763753048 6.302873016753189 3.3806247903467797
Ti 10.01496449025303 8.86329685950831 6.982265574207514
Ti 10.470626016805028 8.670556246648893 4.3814085331270665
Ti 10.93562030616379 6.553788278869492 5.679633186663218
