33
Energy = -216.38100023 eV
Ti 6.144265688289817 8.227099824547665 11.230055634769249
Ti 4.2702555292587165 9.464151729243769 10.35896546435608
Ti 8.178995112345337 8.094508856325824 9.908218861537277
Ti 10.536931214715043 8.428728959371247 8.361602569477832
Ti 6.692593286485535 5.74154936655855 10.474064160411658
Ti 11.385910100781352 6.064536933510552 7.670787894395667
Ti 6.271601114555377 10.251684600575148 9.179004344186037
Ti 4.056791259295858 6.824416200460807 10.352048152963189
Ti 9.25134968475721 5.988987556491893 9.099446911243268
Ti 7.91389442300503 9.367431720189602 7.500778945334276
Ti 7.081855853097666 3.513199731113761 8.378720088441321
Ti 5.8089179478049005 7.657844135527094 8.614133389747332
Ti 4.812208469926699 4.722561150800753 9.04103497640771
Ti 11.725111558439036 7.943723973816152 6.011833779424786
Ti 9.10091103930158 7.130815726508521 6.464163504671414
Ti 3.5427723520030865 9.05234423446121 8.206468301199727
Ti 7.0347550128021465 5.610048359611012 7.565465319315693
Ti 9.48043160342581 4.341468939803442 6.94300184344933
Ti 3.4289803636427982 6.318235263601786 7.535739380705552
Ti 11.029366487180708 5.641634833575552 5.1450485189312305
Ti 5.556361427855303 10.010216779600785 6.341481981423032
Ti 3.544413326858301 8.457727368553597 5.875659612469621
Ti 9.998304584030626 9.722197000712017 6.051209429560108
Ti 6.081371497513652 7.264413479862937 5.83599175832509
Ti 7.683045342413198 9.403672721558431 4.7692561935391815
Ti 7.232663074020053 3.6750406589235465 5.6453545759304795
Ti 5.136316739718193 8.255218086735479 3.8200712531062537
Ti 9.93429684334574 7.861451871143202 4.034347124903664
Ti 3.6774779576475325 6.186928859442513 4.9268961909794955
Ti 4.921105558113348 4.256587656864492 6.494901746656425
Ti 8.647827327691298 5.322931196513016 4.320110333511977
Ti 7.47659194987137 7.311906330964251 3.2845400904896516
Ti 5.862543648512906 5.351797845292617 3.9906413240107024
