37
Energy = -245.8014066 eV
Ti 10.494178322517035 7.697770668653201 6.935320679433545
Ti 9.217050611121875 5.4140538083854635 8.642028388134975
Ti 10.025941838353164 4.843885857185607 5.919415413453883
Ti 8.4713203961053 8.049559947201333 9.19877862677498
Ti 7.66387739714708 5.970576603455807 10.726237804845407
Ti 8.87220656952347 3.10314700615283 7.547116145920486
Ti 10.124528594688114 6.873001982424874 4.259951100500754
Ti 7.015544104394085 3.692392132202103 9.293976504057186
Ti 9.256655297170154 9.0482177922197 4.7675228663705465
Ti 8.477244758185286 9.933750300605919 7.069841689683057
Ti 8.512359115552663 2.8121222179858067 5.070775412669951
Ti 8.428213696381356 7.004612402562926 6.429497006674007
Ti 6.722584928159378 9.96992566021876 9.098976801120523
Ti 6.367273914284578 6.165574150686452 8.498308141884399
Ti 5.771352113925458 7.885904242529224 10.348204275589305
Ti 6.449345996273349 2.2237250006496074 6.697753106582667
Ti 6.946125463912377 4.5880609205483465 6.414347770329838
Ti 5.169433197839458 5.2108981531565455 10.54934950519643
Ti 6.585092853231446 6.5529067729301165 4.661193884397292
Ti 8.541932975037877 4.937442627732156 3.593602958164787
Ti 7.938502455520458 7.673942486863061 2.830889793492742
Ti 5.877084987458836 10.857257100012768 6.838500576840883
Ti 4.54097765076807 4.121819664105204 8.113531735232206
Ti 6.18329037659617 3.489515432417334 3.978737014744643
Ti 6.82910470475572 9.649661734128493 4.61067584386287
Ti 4.222224734017929 9.192262746803205 8.31823590874671
Ti 4.546235830481071 6.4898861745591105 6.26145247283655
Ti 6.323855400894095 8.369732149019654 7.025345922689845
Ti 3.6077286989886863 6.599788824653779 8.889884590925398
Ti 4.281567957298793 3.475302033337149 5.683552180463686
Ti 6.245979980879058 5.619376045970751 2.292736779927351
Ti 5.019583050449952 7.876920136285154 3.1647877635480164
Ti 4.190693904421467 9.32829909794695 5.399897168724948
Ti 2.4291764859615146 5.323934546602514 6.329448205643952
Ti 2.403513192538568 7.9580176358822605 6.8416271776132005
Ti 4.040049424484778 5.2122439714223505 3.78094194709057
Ti 2.732001674703169 7.30834462652549 4.441389489854412
