34
Energy = -224.84385791 eV
Ti 10.600425056546978 6.431391172521297 5.438036785339323
Ti 9.693807221276773 8.881459360146323 6.518228369086749
Ti 9.841042795987537 6.660613625028602 7.865141045708267
Ti 9.877495628043892 8.473574573501349 3.9282339593769966
Ti 9.628702610501266 4.091306858249521 7.655945955283
Ti 6.519295904873256 7.285316130834405 10.497230207879902
Ti 7.997342617210534 9.9006423945348 4.7521220924920105
Ti 8.576623725340218 4.492476788838282 5.097201976555101
Ti 8.45889630764064 5.673028891383525 9.71772870234293
Ti 9.263969544706661 6.1321110067347995 3.2054423864071415
Ti 8.005329317815374 7.202989660082224 5.413959762624506
Ti 6.481638449048722 9.275469275239303 6.715169878722545
Ti 7.159665515546382 5.108004944032093 7.455113376532153
Ti 7.495991681982304 8.09290935207338 2.752444067729536
Ti 7.695828073681055 2.586714738215955 6.721556981824901
Ti 7.795406730751265 8.087067697063572 8.475842452258505
Ti 7.692975007596209 3.1776067419103744 9.21903880240647
Ti 5.389264430294465 3.1036031292646884 7.977215578126045
Ti 5.780002293438338 4.758474901327241 10.116417879420727
Ti 5.510037704643634 9.365715940947501 4.118539578125161
Ti 5.154868491761829 6.805993233916869 7.914008228079839
Ti 6.750209700583999 5.444885879511983 2.9724307758752078
Ti 5.3805029211404 6.796819263242957 5.107778051609767
Ti 5.0114167596424535 9.063571371416224 9.232827367870607
Ti 4.020031170848907 8.862457412515027 6.483529924010478
Ti 3.976558012377328 4.4727208258135995 6.270484171264258
Ti 4.1324773130747126 6.842515327119693 10.467219362506256
Ti 5.0589809311204155 7.331187059671276 2.4309572203122385
Ti 5.985182989624357 3.9944011850789667 5.170113482237502
Ti 3.3593708400436264 5.01080662896503 8.768962514420844
Ti 3.2242294131057223 7.9626120344491165 4.015321305817065
Ti 2.7496741045410444 7.792150784887477 8.653412937473249
Ti 3.9058095590545454 5.330926627756617 3.6433748685918124
Ti 2.8500245328991727 6.531552540469802 6.252047308432343
