34
Energy = -225.3534696 eV
Ti 4.048710121798037 2.631767258543794 6.483335897796101
Ti 6.428493584533305 2.2067359538588214 5.988594480481178
Ti 5.825107422996784 3.3746509197853642 8.413005490709015
Ti 4.929579309838858 3.3951141128312488 3.9378265188998802
Ti 3.578481456582777 4.79699835860303 8.066508090590448
Ti 2.821474912701517 4.490142636488134 5.430073575869364
Ti 2.888435748905775 6.880921048003792 6.373869457991839
Ti 5.50949388101366 5.833399725768807 10.170438829504079
Ti 5.478023871444969 4.715465479193524 5.802323247249265
Ti 8.32167656544465 3.4418591359781416 7.214273493566688
Ti 7.929296440312595 4.674278571459938 9.431030338982625
Ti 6.5492329235277005 5.776326264965868 3.2244565581846056
Ti 3.6652229476885148 7.375756929007976 8.77158050038612
Ti 6.069929446600963 6.206059010058561 8.07259269240198
Ti 7.86998127629568 3.6956891676266155 4.337731847571889
Ti 3.9208343589394925 6.1890687799767985 3.725900398053595
Ti 5.407613272975126 7.418111662054022 5.679039059633465
Ti 3.5802324158034087 8.830202191034793 4.622514170601778
Ti 7.93815859622671 5.822227078186763 6.071468164525737
Ti 5.59268297581749 8.176573737655291 3.1176608087787936
Ti 8.11893584211669 7.3216825688209335 9.733883056123062
Ti 5.874408031899717 8.743730848748523 9.388456177606676
Ti 9.741811806000213 5.856270823789887 8.033352094522469
Ti 10.161076250370352 4.668228831394269 5.642707659697801
Ti 4.2891923084705095 9.309906285590923 7.187448178058748
Ti 9.096723354528809 5.96563845664694 3.66153464676115
Ti 7.567730303972635 8.314190901090916 7.008335024032519
Ti 6.1171640929812545 9.98468923463449 5.0021470051757815
Ti 8.28713867198921 9.916093836995998 8.933518481670339
Ti 10.036973008806534 8.408480879490892 8.076326762815693
Ti 10.08197359636709 7.481274483468173 5.6162653786553856
Ti 6.428027979698206 10.69617856422618 7.51752754439311
Ti 8.003879258335688 8.278203368232106 4.062505489469746
Ti 8.84254185735533 10.124320788129506 6.202006771579623
