31
Energy = -203.55010197 eV
Ti 7.295625668547785 2.5654401351491494 5.121390785126402
Ti 6.511176017959986 3.1319403844453033 7.702677470384325
Ti 4.738952691728496 3.106548550330784 5.196686837926576
Ti 8.883351860424138 4.075339396632875 9.004745103632347
Ti 9.018881191504834 3.212846016401139 6.65351668040218
Ti 6.4737142130636585 3.8591081048558045 3.12886725693769
Ti 4.291865362655595 5.229947131899983 3.4369414908860763
Ti 6.290329817499134 5.024695541970771 5.377604084199036
Ti 4.832006125615559 5.359819551217288 7.801962261184921
Ti 8.807502927496186 4.73730147965616 4.3967534578344205
Ti 9.22945210421042 6.628756306539122 9.407575961758956
Ti 3.183802505930151 5.1563937601398475 5.875610680886859
Ti 7.761597711981728 5.488755623693003 7.286200909526473
Ti 6.611412041971185 5.55387142257852 9.765442384156305
Ti 10.247668952498007 5.504533037565178 7.027699575363046
Ti 7.181580125676948 7.967198009433363 10.505065686381608
Ti 6.9554527403192274 7.797153054730587 7.73741052199541
Ti 2.589047675853621 7.06022131930971 4.462913206095528
Ti 4.8491840706831475 7.767083626542453 9.226345686863375
Ti 5.132392943278593 7.251875383627763 5.62753650125681
Ti 9.732406408149874 8.044886960014656 7.156365691035034
Ti 3.0566240451678857 7.647559984608914 7.052299544619866
Ti 8.332644129746212 7.380342452129547 5.177953162158215
Ti 6.84125660338805 6.619771864172367 3.203572595481831
Ti 8.875572660268785 9.294890235741468 9.076904164606427
Ti 4.547724443688169 7.860826440168294 2.9744473324213367
Ti 6.4416731210614815 9.991305081727864 9.085461899304923
Ti 5.017606169809672 9.712401582805157 7.002610274588109
Ti 3.6455822492291885 9.304214671116847 4.917757998531997
Ti 7.817597842502774 9.946047489428741 6.684767981613185
Ti 6.312999587065538 9.225609410343061 4.431596821816757
