38
Energy = -250.68300214 eV
Ti 2.954038741051271 8.577008143176416 7.724978103999279
Ti 6.0890625976037445 6.642182614534266 11.25575027333554
Ti 4.3403335155162255 7.300718847939613 9.488558557661799
Ti 5.625104120183798 9.259980226499211 7.859704632041282
Ti 7.834169772609403 10.767943164232424 8.584008727637888
Ti 7.134976212519466 8.688969988331532 9.992141830994452
Ti 9.975379593342163 9.134587606488411 9.23700889472217
Ti 3.8937549530259714 9.731828502407533 5.59783942119062
Ti 7.199140700177534 10.431857618722873 6.0158948778978365
Ti 7.169128645590877 4.5342372482671 11.456351844488761
Ti 9.667094604853125 10.615847732097203 6.91458218196506
Ti 8.641413946403517 6.6321415396418955 10.25864286172306
Ti 10.131868455560486 6.43322264218356 8.229210357440675
Ti 3.0842548405256602 5.86265925919963 7.616875614659398
Ti 4.914555504207898 4.658626816325016 9.99081300128811
Ti 2.2422831352767294 7.525839668893137 5.610390292794604
Ti 4.83585415242154 7.280692912701519 6.1688763467335095
Ti 6.604508479413079 6.48550145790854 8.487950195062918
Ti 8.305336383854435 8.33095948647359 7.482908445889237
Ti 7.295583229859564 7.171676336059851 5.476708418055272
Ti 10.997063431900184 8.51631985992347 6.876535469421241
Ti 5.47231802332537 4.447767358309365 7.28818426131994
Ti 8.258957041710941 4.926224234009809 6.871594636592848
Ti 3.733826511111886 7.891018638583071 3.7043375143736528
Ti 6.05153966568236 9.060132638677642 4.04570146208623
Ti 9.198012093960003 9.02699939220368 4.825579381475519
Ti 9.989520907839868 6.524524465699399 5.580443887637155
Ti 3.624578204840195 5.269522084335256 4.887910513888663
Ti 6.35434373587056 4.6250898531428035 4.755717891505725
Ti 7.40542598459094 4.001423525025532 9.157227551454927
Ti 4.669618814734165 2.643156860070043 5.282458647836413
Ti 5.756039174910615 6.522535054879096 3.0519032398778405
Ti 8.401150876955871 6.290199211169372 3.385378646851611
Ti 8.837384382135346 3.75478402602707 4.358510744168945
Ti 7.141407289122455 2.5616814815201536 6.226277897240468
Ti 7.235706978310127 4.3109788143338195 2.2504527356651343
Ti 4.7329977884477135 3.850987629368508 2.880492171226592
Ti 6.703060498396853 2.227163771679441 3.6437413830638055
