36
Energy = -235.88540743 eV
Ti 7.29907121423125 10.109878725135411 3.0296060425782567
Ti 9.917741694525471 7.434781295139273 8.096986662219583
Ti 10.50209827327938 6.600162980932413 5.363423353341433
Ti 8.877093023889238 10.848747212948155 4.899246903896997
Ti 11.261528717415857 8.407904907971389 10.157483875836819
Ti 6.644384246974777 6.3282790800782776 11.212225088407127
Ti 7.482960780950261 8.594816375783006 5.205081499351733
Ti 6.161441235822553 10.910492439802715 5.364461482689165
Ti 9.81338338811995 10.018911275958173 9.15283246770283
Ti 5.489440925210586 5.6233760458677455 7.094226362329938
Ti 5.4489050204722815 6.5455282835490864 4.629255004749005
Ti 9.968905768874347 4.83974863053816 7.808303722876738
Ti 9.803967050220809 6.156239247609984 10.487139144770422
Ti 8.345236093186683 3.8122524651293164 10.216569265931462
Ti 5.081994033388505 9.026641354980532 4.0122804215407735
Ti 9.344848614966205 4.183167042362107 5.300372024931314
Ti 4.812023967027025 7.199466266113724 9.14794793840664
Ti 3.2411029175530333 5.116777906601351 8.486927832560882
Ti 6.893393182246893 7.691232245781605 2.670310275003021
Ti 5.3278255793442595 10.023711140797918 8.712440895334261
Ti 7.503652934682082 10.578982206129817 10.06988054324971
Ti 7.350070105854006 8.284936658979792 8.738993015086924
Ti 6.760423103585966 4.260083558577616 4.89243357063977
Ti 8.528260378475723 5.948179145196074 3.614826183212541
Ti 9.505490003566084 8.500914851049508 3.5880890897587205
Ti 7.609788773234645 3.656224539184477 7.279000445610375
Ti 5.399904328684007 4.507179236207263 9.742977655417151
Ti 8.678853675542891 8.43959540697461 11.12510176444666
Ti 5.905816664756823 8.774977716674204 11.043207308835639
Ti 7.697885558415029 5.718436109999863 8.959074311355863
Ti 5.379998089792841 8.482166669949995 6.686443010443115
Ti 3.224132993834494 7.013504647433502 6.914040519734795
Ti 7.783720882684513 10.468762221076771 7.323925751476124
Ti 10.081102063942716 9.124459578792203 6.2752700095457445
Ti 3.8807331648092505 6.187555079262093 11.12936144593134
Ti 8.012899625156518 6.201855300426171 6.332354815688434
