36
Energy = -238.67429271 eV
Ti 8.68076062860851 4.133163008509221 8.169835493772373
Ti 6.3244109187371365 5.113637613577848 9.793351260522945
Ti 10.522512953876861 5.982475751912973 7.852006191337097
Ti 6.284497196145548 2.902090874163344 8.290066389310237
Ti 10.439730229530596 4.32147847062862 5.693087715372513
Ti 8.483152248178438 6.770375918792129 9.278878710272217
Ti 11.028102340033309 7.058663350823861 5.556945522608575
Ti 7.659327155867951 3.1120147509982745 5.979807138649592
Ti 3.9368370452459933 3.9151812865334747 8.908003117074609
Ti 6.467636503687463 5.200749712910531 7.122876183082443
Ti 5.8078584332549275 7.958261113914835 9.339985770169799
Ti 9.948064270612582 8.44648520757711 7.594125684421458
Ti 8.632582235216919 5.877330445596207 5.803581162388533
Ti 10.108126249056923 6.130269151739791 3.5806819404949874
Ti 8.596343481347088 4.0419624350372025 3.707853820540557
Ti 4.663427388192278 3.441675674083714 6.231204900121967
Ti 8.04998311540508 9.42599403738526 9.07635546882067
Ti 4.029341590135768 6.256639229851603 10.347164023253795
Ti 7.286944143607079 7.970947096490279 7.050083600992945
Ti 4.248196355320589 6.238748788399179 7.6706473822108645
Ti 1.950474209260028 5.832258770543581 8.93693866260158
Ti 6.004390249512053 4.2681246758337785 3.9540829231153194
Ti 2.352135099235434 4.569343013801706 6.75855625218812
Ti 8.421992887612573 10.358556831454669 6.613655240462736
Ti 3.095305833562968 8.25033293266236 8.878419337357299
Ti 8.700847355506097 8.459326433961374 4.5590464443879934
Ti 6.241396503652195 6.920293859160825 4.813953252884563
Ti 6.0103292127896655 10.249140832071367 7.739379095289355
Ti 7.606902025519252 6.0778562424503715 2.5717765123119856
Ti 3.7314013506126895 5.867515455736501 4.8813747643233745
Ti 4.446180385645281 8.56649631910145 6.472470144165368
Ti 2.045954018237982 7.192553612513408 6.631672615273937
Ti 6.354079916898128 9.781035907948478 5.016028983913524
Ti 5.027912214283187 6.368527800141788 2.5762761776957914
Ti 6.595450382743783 8.507132270960073 2.6841573533750873
Ti 4.217802689352323 8.433749939217957 3.866059581721112
