35
Energy = -231.46373521 eV
Ti 6.778641851388723 3.899441150593453 1.9753157487868336
Ti 8.064516584981055 6.0976958779841475 1.9127507182862027
Ti 9.097106575701702 4.047968724348857 3.384488740903094
Ti 5.521639287845012 6.055497304565106 2.0284020127828146
Ti 9.233555397480735 7.093758419464084 4.013359055484114
Ti 6.80748502162924 7.994690732206974 3.334248443885363
Ti 6.813145386072495 2.6000048827004583 4.026533416392972
Ti 4.601941897159371 4.113222480320941 3.6467747891899607
Ti 7.038094542023273 5.316983504734625 4.354166420412138
Ti 8.278324965365085 3.191824757619164 5.863407554176456
Ti 4.359865630338559 6.764645568884953 4.108017049406383
Ti 7.428116432590228 7.620946866176629 6.109715366688033
Ti 10.104681698232136 7.926119628001844 6.417622734884739
Ti 8.400722561187354 9.577969354812385 5.279513345452217
Ti 5.444365514314845 3.5372419658528185 6.097313055296595
Ti 9.773589412064299 5.311174826282586 5.762981677048559
Ti 5.115591732100447 9.017885716532762 5.265868833139326
Ti 7.839756734244555 5.3365683104915105 7.346663337919394
Ti 6.47284930690605 10.203956433979805 7.085089653355888
Ti 2.928507793339117 5.14400291341364 5.890774944153192
Ti 9.443868992732455 6.890105763748222 8.654551394043954
Ti 8.6325420658599 9.423681878397876 8.09377969550641
Ti 6.486873309191152 7.434579521737744 8.76260445977433
Ti 2.926661627561873 7.759368629877792 6.020365993490537
Ti 5.090527036534679 6.1899231016936005 6.786651395948345
Ti 3.7689660194544143 4.18242522825118 8.144736570944687
Ti 6.242756819794166 4.068281650159644 8.59267610115732
Ti 4.258271338005668 9.125404096007113 7.8018002743358
Ti 7.630039994115587 5.615384176653786 10.328362158946666
Ti 6.320983309400397 9.776931012218812 9.796088140360284
Ti 2.9791719270970503 6.6371386107017765 8.376363379906719
Ti 8.421156937118685 8.222701403612 10.493044916792284
Ti 4.145826318690153 8.181321411419413 10.13413155709075
Ti 4.856067924472583 5.584127256793175 10.199612321519457
Ti 6.185184024668744 7.548422809423391 11.403620712200778
