34
Energy = -225.14562085 eV
Ti 10.324663197255175 8.155382410157303 7.659757666432311
Ti 10.688632267507119 5.671969358802924 7.23877179556402
Ti 9.686963590596504 6.442944336081691 9.427565903735928
Ti 9.847109485349971 7.250991856148028 5.2114058160399965
Ti 8.52391301521627 9.39433283056335 6.450575659344923
Ti 9.270737281964562 4.494016414503897 5.534577628946277
Ti 8.731013841688252 4.182086643476797 8.237883266463689
Ti 8.043721915431627 8.488461324419664 9.14253115916911
Ti 8.052336379681366 8.996988179579256 3.7734997120717146
Ti 8.117766442601667 6.606726304198154 7.189146109160049
Ti 7.401993618204329 2.584177633166437 6.249942572113587
Ti 6.310949686413937 7.740962829096968 5.28070831543396
Ti 6.123725448204741 9.675337923438486 7.703896831421793
Ti 7.276808012180203 5.992633056935185 9.94083536217621
Ti 8.174101999068434 6.068408112506346 3.5941837200632856
Ti 6.4880622010844915 10.519249942013023 5.34075282104507
Ti 7.623501181171422 3.5611676641691017 3.7547255156542545
Ti 6.3636391963539705 7.416147834614203 2.5092412654909553
Ti 6.119373975496733 3.839968267974836 8.588822264037898
Ti 5.400905927907581 7.957067406279518 10.096751631871165
Ti 5.389817975930495 2.7994688501246876 4.39531219705532
Ti 5.3700302856689115 9.448021910104629 3.439082550038711
Ti 5.330434274803824 6.747374280324791 7.780722921152798
Ti 3.7998551403092993 9.019559309968281 8.23773378913538
Ti 6.2861775299414075 4.9095838842275175 5.787980089452304
Ti 5.482291036252237 5.101289567064882 3.155596490394842
Ti 4.745888926386129 5.375565205739064 10.120840503798389
Ti 4.804433939481604 2.749123743647157 6.75625058166551
Ti 4.08594147417931 9.30711393743342 5.716245497222144
Ti 3.9794056938386633 7.225748126096695 3.963477468186939
Ti 3.5260747152076743 4.666219009559006 7.860434479191896
Ti 3.0587465080973537 6.90370400808262 9.202045489861607
Ti 3.653456371306402 4.700701125800161 5.134827276305977
Ti 2.9175274652200582 7.007506713704096 6.523875650304295
