30
Energy = -196.08520262 eV
Ti 8.69832247762441 3.4876251650585224 4.8542946988020255
Ti 6.387189161733182 7.245592198149507 5.815261367475855
Ti 6.089753527224053 7.191046005930905 3.0135387001373832
Ti 6.315246638743503 5.011860681408148 1.8001645311782464
Ti 7.077368714938392 9.843969490083161 6.484621031874547
Ti 7.8306718031194 5.898825416783408 8.625646606804809
Ti 6.74869862062348 8.285042975178131 8.769896655935717
Ti 6.481528444044641 1.946995881586066 4.882165950780734
Ti 5.266546915464721 2.837525626734893 2.5503105781353494
Ti 6.079257862426091 4.530864268536191 4.60481505796287
Ti 5.400201017665253 10.126051865853409 8.716027641244168
Ti 3.9788255295758153 5.14819682908021 3.0552444958349754
Ti 7.729353486150557 3.1006622984037553 2.724335596377131
Ti 3.8636438083737548 7.374577135371553 4.6577490425275
Ti 8.363538047660203 5.682680543976051 3.2841096056603316
Ti 5.685296701662944 9.340959825765333 4.409998423928249
Ti 3.927405944619787 2.7875695701010876 4.521558806210456
Ti 5.364764781787592 5.805778992986586 7.498255468219031
Ti 8.250909933741596 8.271232803287209 4.486597323358934
Ti 8.765532741099715 5.798112667709754 5.910205888196125
Ti 4.8119202903387395 3.1280466508338627 6.944106497786759
Ti 7.338386277615608 3.7448557579098276 7.042662664987064
Ti 3.2676705551890395 4.863419733628484 5.788509471567493
Ti 2.8580473128167165 7.022600361343536 7.018255451163032
Ti 8.727354313771855 8.05514193955611 7.092321204960355
Ti 4.347905886626283 9.125497332138524 6.723059810562729
Ti 5.606234275283958 6.248108289663768 10.16757416970368
Ti 5.955082052425942 3.9418041236692347 9.27099128285187
Ti 3.4650157497053415 5.029684133769164 8.816851599358708
Ti 3.944646193641042 7.751990501196683 9.097189442107437
