33
Energy = -216.32826245 eV
Ti 11.983984798503048 6.415324423454644 7.238953063139828
Ti 8.097850996398705 4.153826033392066 6.726600210277579
Ti 10.038501668779551 5.435149775522083 8.320558912630387
Ti 9.546386799758942 6.508693786077969 5.935239274246909
Ti 7.331561542232963 6.236117485242109 4.813060888378808
Ti 11.664304873796267 8.248849924560508 5.420599707269603
Ti 11.312037528961502 10.657156921726893 6.569156339009317
Ti 12.881822501549658 8.701007834141263 7.604041997254822
Ti 5.581538661734322 4.69073309926537 5.9862529811610825
Ti 11.61953567391393 7.421689414917168 9.656871092786165
Ti 8.010669770992694 4.86831271275984 9.634942892492113
Ti 5.955119103096283 4.097084398268401 8.475113082628885
Ti 7.079638555870533 6.376911190986473 7.504864077292429
Ti 9.461851953549571 9.17177876852309 4.989599505898223
Ti 7.384409792483823 8.67712137069114 6.27333848036669
Ti 10.069584237692537 8.610007796381609 7.667260631101455
Ti 11.80467527898889 10.136437367432343 9.248006102947688
Ti 5.975994875818913 6.503112301219844 10.017968130829304
Ti 5.794310923809517 10.698473443267083 6.895848337651942
Ti 5.016034576328013 8.380685452652896 8.132598171425496
Ti 8.38511862077779 11.076821090673015 6.629321256537173
Ti 4.2739282239306196 5.939283881617661 7.797067536644378
Ti 8.51901448454098 7.398129274640404 9.604455417014165
Ti 5.116838512796563 7.278378733595835 5.688826088724189
Ti 9.534897036425223 11.180046005156099 8.767568026360653
Ti 9.798453677089164 9.280434910517124 10.678603268254326
Ti 7.170393519188187 9.717624709642356 9.09324619050608
Ti 4.915868349215075 8.826283032222378 10.763872502035793
Ti 6.896054320640375 12.316700807409019 8.896784554068171
Ti 4.632566801338837 10.868859691931762 9.112585385062463
Ti 7.339828918886323 8.872617797880368 11.78911184839229
Ti 8.322408616234636 11.368540602077148 11.061117216278266
Ti 5.941848408574754 11.10115084491891 11.208091112652872
