31
Energy = -203.85530532 eV
Ti 9.4204210868976 6.569229863385981 9.915955014761357
Ti 8.743624057980286 9.106105000437193 9.454809583404495
Ti 7.393550850463246 4.955761243332129 10.41640377119986
Ti 6.920323087469675 7.544182896036517 10.662806283346502
Ti 10.471338503292753 5.840436727030404 7.515075617899611
Ti 6.363591094198763 10.090635077413335 9.775506829016496
Ti 4.050670409927843 7.208682188148123 7.293688286677271
Ti 7.902187028452526 5.991543716621359 7.923906076175526
Ti 9.22443561456796 8.327143986757727 6.845098921094051
Ti 5.202416285979014 5.760791582611765 9.281737124278992
Ti 7.713992230938209 10.586367937762938 7.640603597179081
Ti 6.583560555946704 3.5906861994133217 8.244167699121432
Ti 9.23391564771598 4.039743713448047 8.93565741887785
Ti 6.5983446133631904 8.1684036961629 8.028850108522018
Ti 4.5071412309632555 8.313374650042297 9.580969196320797
Ti 6.057806179978143 2.8050019511536934 5.683715449883904
Ti 8.471549729547682 3.87434294712368 6.3166219396506245
Ti 3.9580433980462266 4.221303350309037 6.884529055337725
Ti 9.252172784726103 6.225645844310948 5.1377917381406615
Ti 4.950478946182171 9.98694191613985 7.343758207855555
Ti 6.753774020646154 10.216868741027245 5.3145544474477715
Ti 5.989051886826853 5.365516155454695 6.208948924110898
Ti 4.608376104583707 4.148421660708782 4.205877197208503
Ti 6.860486414684733 7.5774014701491526 5.308940593309119
Ti 3.5122161236093246 6.2098146233746006 5.072668239681205
Ti 7.237476152388274 4.591485826186345 3.897657321510539
Ti 7.986993216911687 6.889000763231683 2.886643004385903
Ti 8.901173396190595 8.83798586543173 4.223767292789817
Ti 4.473088872507126 8.665811803996096 4.87360087905654
Ti 5.346021390368547 6.500501865550377 3.1719517095266925
Ti 6.465220901039352 8.928846046546951 3.102509715425673
