30
Energy = -197.02604372 eV
Ti 2.7247331887699318 4.116175664035819 5.766716957406157
Ti 3.391381934630118 4.5402412902109806 8.293679080364186
Ti 2.759134696339431 6.59399033716155 6.757104085649845
Ti 4.887831390575914 6.722797386688305 8.614849768601152
Ti 4.655169507398745 2.6892846975191693 6.914645739459809
Ti 6.613044654104733 8.318624373194558 9.904248985595874
Ti 4.752361606777836 9.383519195219998 8.288677163736272
Ti 7.618833356486636 5.864741346807554 7.276531656350768
Ti 3.743824948001474 6.108408366287769 4.140190635946505
Ti 8.117065624278197 6.1048248830124665 9.745522597883875
Ti 5.01237679265373 3.5355958713949818 4.34872985595507
Ti 6.077638626236075 4.187365874607704 8.769853998966571
Ti 4.98334833133123 5.254628668339381 6.381850589344734
Ti 7.191048741115641 10.465269610651339 8.71762315491817
Ti 4.641695915930057 8.172137498220506 5.757756001115132
Ti 6.036647240676999 10.62176208825538 6.316933928905222
Ti 5.911347197803267 5.426513945921802 2.69190252895943
Ti 8.846933592537841 3.9352339093155306 8.236065678918258
Ti 6.886136394201036 8.333654199863581 7.224154001891088
Ti 9.105900180670119 8.429683335135826 8.73073339382425
Ti 7.177163733558695 3.2640214530850167 6.2231747044418135
Ti 10.13998031081094 6.158037652118723 7.934182705103811
Ti 8.667898304626105 10.155058533815273 6.607759605995211
Ti 5.652047375141431 7.904167389816629 3.293471438730199
Ti 8.363404620433611 6.6452400477367775 3.260814818150626
Ti 6.8831357972424305 6.3293701756721745 4.994109789020435
Ti 7.6700365346139465 3.9846260318268025 3.8558959380901174
Ti 9.470726737915593 4.976461506576825 5.58469833116477
Ti 9.484975924618254 7.705057678298793 5.825311696037893
Ti 7.551639907409382 9.090970156097155 4.5602743363630545
