34
Energy = -222.52272115 eV
Ti 9.402540265253041 7.423309813454783 2.1688905683893327
Ti 6.998105029490062 6.0718551229246085 2.726893972725858
Ti 7.403194942856459 8.63535997658441 2.8521785672885778
Ti 6.762257093384843 9.902195932015093 5.013413448500517
Ti 5.084828788019926 7.866093364559521 3.704791709297143
Ti 9.318234489357067 6.223424290865776 4.153563052427083
Ti 4.353528621100677 8.973774539624749 6.2352052944781
Ti 4.650038370723582 5.126515025717062 4.086853133623461
Ti 9.344487123480745 8.91645472075693 4.556669415197188
Ti 8.579443388491809 9.883524223280792 7.147588663923677
Ti 7.177444533595928 7.270427213041984 5.261960690011335
Ti 2.9754594318249703 7.117452946216092 4.910590419447074
Ti 6.005145565245301 10.788428325430056 7.271302023712294
Ti 7.1961851107839525 4.46865468193796 4.954670228836022
Ti 4.963833424718872 6.180175309568322 6.5412195774220505
Ti 2.6592623575979433 4.9057382233828015 5.897517903629747
Ti 9.560115697246674 7.316042099986274 6.785631702891425
Ti 2.73789967283222 7.100157446718662 7.550717926149996
Ti 4.944183250573529 3.5071239132970433 6.232187889087038
Ti 6.615976776455947 8.181342653756245 7.828059696078513
Ti 9.637407621411633 4.452943204265767 6.496038872366347
Ti 4.597328252336033 9.35174958683979 9.000393346650881
Ti 7.492352035301303 5.55410735140012 7.525036518753197
Ti 7.135493938191435 10.330256581101748 9.38632356770115
Ti 3.4233037051279758 4.63246108763833 8.203965091264408
Ti 7.592305125606616 2.771620294460588 7.099125720559382
Ti 8.870022502021817 8.261484036300432 9.290618589199022
Ti 4.723179259392021 6.606931214430509 9.439217443081583
Ti 5.780612788454287 3.9945285500537655 8.85835289571565
Ti 9.934508063749329 5.6116538441470505 8.929479349582218
Ti 6.4511498091171635 8.299287054251753 10.563700729553911
Ti 10.233702742033772 2.917819703114138 8.105178964028834
Ti 7.443672843886776 6.011290387831305 10.157100338141884
Ti 8.294964000352726 3.677458338875822 9.411940727744684
