31
Energy = -201.80565307 eV
Ti 10.272360140715234 4.952461452976842 5.697863032574438
Ti 9.439984290268827 12.456285999294346 11.198227850531893
Ti 13.049930662930533 10.822550508560854 8.143121075105295
Ti 8.765223147651257 6.668515752542512 4.654576305862388
Ti 9.192892702234042 6.5075171198614 11.760334028877137
Ti 8.63574559419893 9.079511101078296 10.974919664545041
Ti 6.2542681174019235 9.678330596508621 12.104731522389157
Ti 8.55342863809314 10.73588474469536 12.967966965232817
Ti 9.279369476543758 11.592073615363311 6.463039060962677
Ti 10.360942547804276 10.57715010819597 8.934073927882213
Ti 8.819494781803128 9.131129146255486 5.894396326869048
Ti 10.48743852684715 5.85960388569023 8.554772468954631
Ti 6.617633186712187 7.178967801921 11.580504090312987
Ti 11.411627198042348 10.070788876321386 6.29918569895596
Ti 7.424262818134565 10.578446199021524 7.88307219033612
Ti 12.765328397069245 9.913027932226477 10.398893403378471
Ti 12.258726677643258 8.307428068386669 8.324474143799755
Ti 9.097281358501993 12.898023098907988 8.699577406048435
Ti 11.128036134208871 7.8421832919236225 10.534111665008737
Ti 11.378224483294865 12.539931237899035 7.303823326198308
Ti 7.926540918498282 8.146395237268592 13.457982607236664
Ti 10.818930781486232 7.3043926462311495 6.231283049382502
Ti 6.866439445474313 7.96574679777558 7.2002493533522705
Ti 8.409535483321523 5.93497043643876 7.046050644058108
Ti 10.35948142560636 8.554516223309314 13.018216860077375
Ti 9.29687963879608 8.243240580168925 8.359036078194059
Ti 11.773870325580637 12.485639251170012 9.919385054611501
Ti 11.044183996127286 10.803691124355632 11.969815896922073
Ti 7.260699625007103 11.404922590199456 10.38981313970308
Ti 7.768415340528719 6.425749962871343 9.514542229673166
Ti 6.222864633941846 8.894171184298099 9.595271307377223
