39
Energy = -257.52659389 eV
Ti 7.121998624473245 10.824949861842002 9.459512878956637
Ti 4.874155809973482 9.490459566816115 9.977847848815536
Ti 5.113228222676894 10.649047017809435 7.787011847392293
Ti 10.599155171014102 10.161004010261927 6.862562267572695
Ti 7.091568083504814 8.568251264184157 10.919591891761588
Ti 7.780136476176777 10.601364709643171 6.692500884059838
Ti 11.240193136914996 8.150164682541496 5.147496596994425
Ti 5.174834541577185 9.898193638152131 5.370981629398954
Ti 4.129353567099605 7.9916408322394865 7.669088675245841
Ti 9.274207399897133 9.282903406699978 8.981080093690387
Ti 9.602504923785764 10.007324607987739 4.605815671732614
Ti 5.033588537067526 6.829661588248309 10.250601457523764
Ti 6.726764369729363 8.557192828375802 8.3383829938888
Ti 7.257378984908274 9.777498660518983 4.0926935869104515
Ti 11.447704795086427 7.784747943754771 7.770124334070828
Ti 7.508560917163158 6.072075697302273 10.868624265161865
Ti 5.660136467934358 7.722598586114425 3.3485016910264394
Ti 6.351784512709536 7.715195371581306 5.804048727438684
Ti 3.547765764337175 8.132251054377873 4.976022905035442
Ti 9.263910382977418 6.566483565736821 8.706128861390322
Ti 9.002722828317953 8.097672515960767 6.450213234158727
Ti 3.5178769253284057 5.793755059753633 3.6504005885849016
Ti 6.754403146735392 5.874863393465186 8.202312625029192
Ti 4.10416504086664 4.88830223408681 8.077076563985525
Ti 5.071577457281421 5.290382378797117 5.729876935581427
Ti 8.404948985399727 4.034164139497327 9.636523553098424
Ti 8.559936658375523 7.58254339400556 3.7727036218320564
Ti 5.788023047673096 4.25600015531802 10.066747954719862
Ti 10.745406041941342 5.750202645130936 6.3261367783030185
Ti 2.543065851589005 6.376301766670782 6.196106809840099
Ti 6.365019012639885 5.216447800253153 3.3318642585570677
Ti 8.001484283700373 5.608745123417318 5.460916622899239
Ti 6.6021871983109355 3.356562643981587 7.666886643502092
Ti 4.629520131585022 2.598384650897398 6.351689315960538
Ti 11.038900124243023 5.057497936927867 8.906105560473945
Ti 4.526714741069655 3.386726371109873 3.863577172491358
Ti 2.7306980633923303 4.056361045601417 5.665079852581983
Ti 9.178367002874586 4.018449018801722 7.274809496155037
Ti 6.889685867204957 3.2273339497864373 4.999335778527861
