35
Energy = -231.59830903 eV
Ti 9.404747081944693 5.0472133569049635 4.750215275268821
Ti 10.865426296703674 6.805764241254092 5.8893109454645876
Ti 6.68169124285732 8.42782273661784 3.0791079710930287
Ti 9.15110020488428 7.663470411961843 3.906154182682294
Ti 7.27154143985695 5.73807103849445 2.9851242830469253
Ti 7.75024725334672 9.732076830399588 5.167536233015656
Ti 10.242826021084674 4.931026089112383 7.534682494971596
Ti 9.001162188141272 2.8978718169505338 6.240284330762188
Ti 9.962747038588365 9.071714697817061 6.0870215453845145
Ti 4.535859151573824 6.8822233334288505 3.8112805125060465
Ti 7.409447966318808 3.406462705556981 4.3279402447196516
Ti 5.0559807503822904 4.483000508330634 4.640903727896112
Ti 8.450993371905605 7.022371287783276 7.227884728552737
Ti 6.160542401679757 11.05020949024203 6.819577955135898
Ti 6.900535623272229 6.839019991889861 5.0849407308927255
Ti 2.96814876446987 8.208570519040988 5.574442481210759
Ti 2.5422234397471586 5.6526047108430895 6.08018311000088
Ti 4.797735646648503 6.412377234096587 6.754672058701909
Ti 5.08370062141377 9.368369691741334 4.932611980544268
Ti 7.092317274514072 4.717947560968836 6.679104297174359
Ti 6.212080368852975 8.485128019122596 7.461911007764452
Ti 6.470245152069834 2.2927475441234675 6.654376899960916
Ti 8.977918923597526 5.775507774512546 9.667775241235336
Ti 10.45421140110473 7.701656451237868 8.41928961866405
Ti 8.15195285526534 3.4777672199479848 8.667664268696589
Ti 6.347983699029901 5.954338186018713 9.24060671490653
Ti 6.003036594915951 10.261016018642039 9.292669672926763
Ti 3.399788452858137 5.283457532195569 8.733335650672831
Ti 2.6353347722988536 7.564701962738352 7.963168304510693
Ti 4.091686330420804 3.662196907360245 6.784414111487441
Ti 8.414644236005305 9.916707630693177 8.009025415346537
Ti 4.611013005425541 8.00353447892071 9.640554232184964
Ti 3.95002446094667 9.812859965973887 7.624904625798012
Ti 5.500169954077635 3.5585708093374664 8.800273017041436
Ti 7.736468451119415 8.126732915671834 9.705902650821866
