35
Energy = -228.62856216 eV
Ti 10.498613886708851 1.6214187606585868 9.39264098916772
Ti 8.482218975060174 9.779550142550445 4.989279479865106
Ti 10.051840859967273 12.303905499982372 8.174468450382848
Ti 8.293573791322666 10.192611530689906 7.71665133452321
Ti 7.8949889889255065 5.4460566524999106 6.358285084614421
Ti 6.202189059530761 10.339296843540877 5.768355588779201
Ti 11.685956781818607 3.7540678797133644 9.470980793370103
Ti 10.503912190184248 10.865911377705386 6.077972107679573
Ti 9.444238371653752 7.472725186056845 5.572432406262831
Ti 10.272007739158605 5.725861585213584 10.30919455686183
Ti 10.321679833154239 7.979970200088335 12.30005148958436
Ti 8.047112290278571 12.202005632583742 6.308714080404233
Ti 10.220667192736956 6.003604243841119 7.598586323770909
Ti 10.62230494178247 8.721756727221363 7.707288108109947
Ti 6.566333835508258 10.023148258119877 10.01777104542332
Ti 9.529690882317695 3.4335261773114216 10.90316017852994
Ti 11.798211304432412 8.198070646718776 9.980069823110053
Ti 9.446858589786721 10.090738956429288 10.306165306180928
Ti 5.690372949792402 6.242169287494355 7.618288485334424
Ti 11.855021461094182 10.718171710599432 9.055922095596804
Ti 7.659399201836619 5.342831946602577 9.335917474981814
Ti 5.254018577487796 8.880174014032157 7.703937435654629
Ti 9.391471149899484 3.688627302003309 8.30206440172101
Ti 11.874853824381178 10.152219383590124 11.609977229350118
Ti 7.77904183986919 11.563967031450291 11.81860147871041
Ti 10.38066439190267 12.309323063338905 10.940068678337502
Ti 6.246554480310884 7.503658076588801 10.051376963839404
Ti 8.110655483103743 6.2944985948809276 11.842685499695758
Ti 7.776422078323682 8.957260495303839 12.381857358294209
Ti 9.00934454866194 7.746504896498233 9.932415920237244
Ti 7.770954260544302 7.67943287950176 7.728616150148455
Ti 9.810992303898487 10.525803416035211 12.959966435959767
Ti 5.879356899344981 11.507469053716406 7.94691190329026
Ti 6.601321037895627 7.75553504647619 5.466568384135641
Ti 7.903974320519557 12.407961893152894 9.321196416953752
