31
Energy = -203.09123054 eV
Ti 10.835223782646855 6.98669204953181 12.87698680474595
Ti 12.39704548209727 9.2603657327021 7.215237562080006
Ti 9.587992189943767 6.009408619733889 8.474832738181915
Ti 7.966373233171406 9.586161609434628 7.899914051386734
Ti 10.511298025031108 9.465153181072457 13.517591147842303
Ti 8.614808789883211 7.768149685756709 13.64122428355371
Ti 8.063882009438682 10.271645056656725 12.71529001707097
Ti 5.672858884758089 7.924058290656108 8.495358218478447
Ti 10.595330517375485 8.570435448899563 8.93653416425256
Ti 11.505265804188246 6.309120152654213 10.402673387919158
Ti 8.676321162536723 11.343494329621722 10.04467924925762
Ti 12.28452513720245 8.650683144758304 11.686886784388742
Ti 10.783005941989268 10.995219478997159 11.403889405971247
Ti 11.942915958006527 6.569142798238403 7.778021471220173
Ti 10.241476145875701 7.747540093612089 6.252359153137464
Ti 6.590901146678859 9.829258328890484 10.316252137987679
Ti 8.848440857642135 6.053348657328007 11.485961316648746
Ti 7.686713368353732 7.058886228440086 6.757041946309123
Ti 9.275138918106254 8.696351515001933 11.171653170095938
Ti 5.053924416848818 10.284633356303928 7.9044422147586495
Ti 12.750034864896113 10.30926979919396 9.762685739615044
Ti 8.778701896500975 12.174837248660184 7.297392125516699
Ti 6.607549796247729 11.26514848075881 6.067830527332453
Ti 6.703374002010124 11.970786152816201 8.59613953223389
Ti 10.351727726954422 10.408045590366724 6.177377223085574
Ti 13.2935233561399 7.906749533330604 9.351834756804466
Ti 8.294728435896925 9.279636903997183 5.226592252766914
Ti 6.7862499879560945 7.8414637015942175 12.013537264571356
Ti 7.56194211340563 7.188202228562574 9.557388724027042
Ti 5.959530457662676 8.796107717620163 6.062290200985731
Ti 10.94176974767865 11.351625024152813 8.533912946275805
