33
Energy = -217.51106466 eV
Ti 9.604667767057247 7.32863185116502 9.577745441071816
Ti 9.805238866307434 8.277324459449174 7.099567898877466
Ti 7.561771236098556 8.602820343002989 8.906897571036533
Ti 7.764541324076109 9.877587325350678 6.643942098245644
Ti 10.530707662115379 5.55266048125603 7.66644040526953
Ti 9.512482784615653 4.902279537984079 10.16166032715701
Ti 8.718990030180139 8.632033555191445 4.438704793876897
Ti 7.240101354042359 6.365126972779038 10.606767719306246
Ti 10.113020534252172 6.472376110479026 5.237517651685637
Ti 7.581422313739654 7.197902622775712 6.031048014684051
Ti 5.3124129125348665 9.283899063406029 7.499466819435837
Ti 7.975324136848957 5.624986169885717 8.159865410107704
Ti 5.199334759560284 7.802512893939306 9.7585164305883
Ti 9.151353777125323 3.249854227505265 8.229638137353373
Ti 5.94028677861561 9.437186622848229 4.901361107477101
Ti 7.227116813402103 3.7340438195596275 9.948894908604547
Ti 3.30377289321845 8.664393635614276 5.768115697334747
Ti 8.858982119182722 4.194361227388212 5.860613577520144
Ti 5.601914836759816 6.623819206964796 7.410412088773755
Ti 4.17096298879931 8.829677866401347 3.17895826377719
Ti 8.205016089837953 5.903407771244031 3.6858181462428274
Ti 6.552663211819186 7.669383527626758 2.762087142338186
Ti 5.016259091423039 5.1159707693373635 9.5256711221979
Ti 4.892414295842573 6.7491242553977155 4.72547481193238
Ti 6.243846389713811 4.594771242158514 5.339579671337943
Ti 6.534451662067728 3.34002106204282 7.496636695303049
Ti 3.3041013722569827 6.955209918374207 8.18258431206079
Ti 2.4682679864668855 6.045079532795026 5.985019555903603
Ti 2.3889114148121084 7.049757361148499 3.783612261432795
Ti 4.036885914336562 4.447424481148509 7.026088515375695
Ti 5.913250266078001 4.923011535749738 2.7936346241616143
Ti 4.200117441122547 6.479442328004729 2.103979736357005
Ti 3.569166036005226 4.573675282340843 4.0034361034874175
