37
Energy = -244.6715067 eV
Ti 3.66674572717786 9.286465115531687 5.444320129984844
Ti 5.253553971041373 10.764695630425559 6.605159629114915
Ti 4.230931648620288 8.684558677524075 7.859714987078001
Ti 2.5406499297517366 7.111632968189855 6.00155936220253
Ti 5.875119245717568 9.845687630569424 4.205791852719741
Ti 6.611381071108207 10.120101878968592 8.647451145790688
Ti 5.666886190484496 7.830396189362595 9.793832831254283
Ti 3.885444569517617 7.645144182047048 3.4185322361393444
Ti 7.817329925286634 10.796050304944917 6.138785029875108
Ti 6.904510748049436 8.514134201727948 6.473859525480936
Ti 3.273697713530408 5.171904101175191 4.31687978066856
Ti 3.3057160570249384 4.6698603406567925 6.714241598327333
Ti 3.562182904652369 6.176925935862223 8.704479110505284
Ti 8.486116679557469 8.51501384423217 10.420736197788136
Ti 8.34091876830059 9.182590019315127 4.157222369528379
Ti 9.072128167193508 9.889433489049201 8.227443706231842
Ti 5.073144365958077 6.748054335080172 5.500126209608868
Ti 7.37262595490435 6.3296575468029985 10.960881828408514
Ti 10.661407855409504 8.156208355740954 8.910375779491451
Ti 4.77881346702026 3.593976994218642 8.560799571735869
Ti 6.061322413266119 5.584674428422709 7.816924471946558
Ti 6.776234560024815 7.486985470085912 3.0858399466133495
Ti 5.393460644886198 5.444694743123351 3.0909143306897864
Ti 9.797422068638696 5.886419776573466 10.08387428780132
Ti 9.882857671046983 8.259775597463165 6.173786964501465
Ti 10.840426441677401 6.0715576715041095 7.613190095955593
Ti 7.792750266504001 6.015589188775672 5.712428366724354
Ti 5.184775452346532 5.326983700820611 10.458243409612193
Ti 8.331024255141065 7.004051316520478 8.305089586054928
Ti 7.066641031932661 2.988242734906237 7.4572902322209655
Ti 7.386089785554348 4.029238224961473 9.769759459851228
Ti 5.572451543108996 3.877518238784655 5.384885407134186
Ti 7.956461608879913 4.926058682655297 3.4185125810461274
Ti 9.388481564793025 7.034700163705044 3.7014667487203976
Ti 10.13189221179973 5.124051137834188 5.254447039329621
Ti 9.305198500198825 4.156819576047232 7.791896962434259
Ti 8.316878521926737 3.3200737283379764 5.397004437829916
