37
Energy = -244.59221395 eV
Ti 6.759008136947647 11.329321129839792 9.946682605026332
Ti 6.489315479914986 10.739578916481932 5.593020358322478
Ti 5.075465856034637 11.227545838104112 7.961189972250946
Ti 5.368276222690832 8.821086556773594 9.589174524735533
Ti 5.020408021357695 8.17843498207439 4.366957159167763
Ti 8.133523078854035 9.08401538924125 10.498284167922602
Ti 9.196511611487349 11.120047241115781 9.076855683587073
Ti 4.566434980880451 9.087642511075542 6.695367403768165
Ti 9.159038565992535 10.510829089532356 6.392525835510002
Ti 7.419297590592713 8.077175269001199 5.944913873203277
Ti 7.182777655778696 9.602754484778043 8.053511517666934
Ti 5.395535264159287 6.8614250530458145 7.714007718466775
Ti 3.155184977857001 7.647484223685645 8.669524862017516
Ti 4.600425739314467 5.397590844444925 3.746116751377812
Ti 3.2578358682538124 6.723420699428285 6.008145216644285
Ti 6.224303414226284 5.8610314482780455 5.420758657132874
Ti 6.747827147382055 7.038059132909226 3.081177475683329
Ti 5.032351509334841 6.182030185268274 10.135782664873805
Ti 10.090498605171273 7.7412881619028475 6.2521963950847566
Ti 3.996340871534333 4.202238659292856 6.185573680647557
Ti 9.798092075979781 8.758854228425532 8.469055724907943
Ti 7.175470773451464 4.523799905392906 3.3536876280510572
Ti 3.346590388915307 5.085530490389958 8.322038437527532
Ti 8.49047302167686 9.025464256968146 4.097348947646362
Ti 6.127270983783999 4.405868253985892 8.262675496028816
Ti 10.881508638030422 5.317629093128326 5.830898529314763
Ti 7.706620643346832 6.902756433575826 9.035730898284262
Ti 4.864694424316508 2.4723634801878505 8.051005317307117
Ti 8.398524779429188 5.324415312011206 6.920162828753853
Ti 10.510295913828106 5.915778061212331 8.41640565460545
Ti 6.2161177361090845 3.140816828136011 5.574378609978783
Ti 9.048379950977823 6.261299712613176 4.131416825268457
Ti 8.626533499084221 4.270839171551101 9.378075987277697
Ti 7.9200492054799785 2.583162432287521 7.43861021827782
Ti 10.276008692987592 3.478108285124446 7.46516595319983
Ti 8.978289521080406 3.53733242127379 5.047477614338985
Ti 7.4450897342570075 12.24335239796197 7.554469386641353
