32
Energy = -210.07132435 eV
Ti 4.103530601883772 5.173307847003257 9.217802168485528
Ti 5.295194843540654 2.9284242392299342 7.654432137978524
Ti 7.1847127904736885 2.1245571853811698 5.795270835905134
Ti 3.312147143409679 4.405134846276609 6.607077304898362
Ti 5.109842211218164 3.5222447648003095 4.927311385177769
Ti 7.6359731536711735 3.6216354476451253 3.9009247481776668
Ti 8.014555678474936 2.679909279055758 8.027337977551023
Ti 6.685298327807496 4.1561437487015755 9.477848829857058
Ti 3.6718600970144455 5.86514616907097 4.335495907482968
Ti 5.363168640776385 5.818910589718783 7.577458957380617
Ti 2.9718560778634275 6.911802857724393 6.8821773266206785
Ti 5.99827959192736 5.3354216075258085 3.1680755657365296
Ti 7.184983244909423 4.765650897274285 6.372871301765721
Ti 9.416716832164516 3.7767944080530675 5.948844124715571
Ti 5.7389980644471175 7.095308201091559 5.401717093145514
Ti 8.536458375646903 5.936184319249599 4.139571871515827
Ti 3.4831902038994973 8.403705101102604 4.627994979352271
Ti 4.97277477426617 8.193917322353238 8.907818412329163
Ti 8.9934609838949 5.048938456166813 8.48268530324082
Ti 4.101291700089485 9.215748923065137 6.84929135523837
Ti 5.593929010070006 7.776165149420219 3.0619274084441614
Ti 7.085870968805002 6.677001863139467 9.521774836401335
Ti 7.36885151619878 8.285376776463137 7.217908333953709
Ti 9.480691654528442 6.549827813157955 6.4922664485228525
Ti 9.46733234675598 8.016449632202342 8.86634857368524
Ti 5.753073217406398 9.849872001291908 4.930515414151669
Ti 7.262469211152609 9.240996684743132 9.772632739090849
Ti 6.084731947355388 10.574069025131156 7.7042835780563985
Ti 8.076762257930062 8.516878351577878 4.370504013080909
Ti 9.914130556798925 9.053392258875938 6.40484893379068
Ti 8.033691175959742 10.621964462309935 5.782626896300436
Ti 8.739729671331597 10.492571010563124 8.190490849459326
