37
Energy = -245.13965662 eV
Ti 3.3662688501590634 6.951911675015467 9.25424303482558
Ti 6.913759781358278 4.116874234622945 9.81906830745885
Ti 6.175959442523375 5.344628201307046 4.994841919543074
Ti 4.339828696988678 6.564950464992853 3.5336385015339533
Ti 10.365157436208289 4.686931453993014 4.088191027557016
Ti 4.461343907877235 4.728046837903522 10.159456632652265
Ti 8.372366132305677 9.286805252306273 4.06581885387391
Ti 6.140016555990009 8.067833291404328 5.083064852091023
Ti 2.7703357585514277 8.958023405762427 7.604410943445917
Ti 5.665736687127603 5.20196559548105 7.7895320626962645
Ti 7.355023435500562 7.231577919404884 7.285764262010002
Ti 4.405594867087079 10.052961782342166 5.910538269783112
Ti 4.627616678943377 3.4221501376625256 6.013596527447318
Ti 11.450963394517913 4.8025483894057475 6.451467955839205
Ti 8.51969859537899 6.055252382993741 9.491111048164342
Ti 7.172277913315762 10.140372601195471 6.544245342742918
Ti 2.8578949317079934 5.258072267186245 5.29774052200965
Ti 6.492954550239185 8.154206191708818 2.5496970179192866
Ti 7.215859186325495 3.252657706411759 6.899913895787164
Ti 6.225843931095886 10.473677645175783 3.9159486268255796
Ti 5.0132618181103465 2.8018750283255143 8.504701853669662
Ti 8.797322587549527 5.3383617113592665 6.16005000766456
Ti 8.389111072762066 6.590357948391077 3.835023584282914
Ti 9.733866271943134 2.9104941630211196 5.96341426289847
Ti 5.372845366358859 8.907009979455674 8.285780785288061
Ti 10.378097037809377 6.856839072101101 7.928105676513332
Ti 4.243117129435792 6.9755463716740085 6.725307636877713
Ti 7.908456457828777 3.693523868172798 4.221025683431782
Ti 9.376375689578047 8.734908648601673 6.343549426695959
Ti 8.292432539930903 8.711891166320566 8.871887348508084
Ti 2.57939293625438 8.03072039438 5.01445200070876
Ti 1.6833561188023125 6.6677459999398145 7.15821190137836
Ti 10.799655415016517 6.986109201674755 5.201955647433543
Ti 6.142551633250585 6.873008985469987 9.941018167499667
Ti 4.252759721714619 9.125394188831168 3.343856900450109
Ti 2.9451075990658264 4.472218766434824 7.942247514367138
Ti 9.733690110573505 4.108447308756726 8.343022237311745
