35
Energy = -228.43903318 eV
Ti 7.588362236612676 7.530735575359546 11.150240529524849
Ti 9.229389474215926 5.63687426612225 10.28872858517752
Ti 6.594410618816654 4.955999891077722 10.751539726950806
Ti 9.138079357953357 8.305576390357686 9.404582253264287
Ti 5.183620614407342 7.287572903745041 10.68837956949079
Ti 10.914534419406692 4.3863698347437285 8.404609268812308
Ti 8.390122761026758 3.678555836076714 8.849230657447073
Ti 4.371139677112411 5.6076232030869155 9.229061475740641
Ti 5.5612163651607265 3.796569293134196 8.356689517653692
Ti 6.460884718648623 9.114383294381842 9.070946953459204
Ti 8.678898474237615 8.52184349212966 7.207793493235332
Ti 7.124358229151301 6.532193854284776 8.743295961997392
Ti 7.564710565903966 10.938030969297712 7.762940044061034
Ti 9.507645321712662 3.169872574663784 6.431342436510443
Ti 7.165130938188248 2.272490397745215 6.926664101109617
Ti 4.125953346694535 7.9907667073312565 8.167360173567852
Ti 9.627814320880171 5.971878808056804 7.398142806840586
Ti 6.385630954331815 12.084472942428722 5.8450346414527825
Ti 8.516050354296208 10.441830973209331 5.242583056631575
Ti 8.370977204156329 7.41643588221658 4.9937749158322875
Ti 6.3508785941604184 9.164914019674125 6.14680386032622
Ti 4.655579382529852 10.68859604913875 7.295091357598386
Ti 7.437128288784425 4.804146676696324 6.127751257365634
Ti 7.465510609749359 3.108371530806646 4.3271503238149
Ti 3.64855752685711 5.369396566264583 6.681373555246001
Ti 3.7576253055880855 8.325220690185338 5.772418599701028
Ti 5.733311647558309 6.558420901944343 6.451265925572445
Ti 5.103735525317436 3.2063548756437825 5.789643725951248
Ti 6.891050939021758 11.426147757507014 3.568198891936631
Ti 9.585306755342755 5.034729525905577 4.636807748517792
Ti 4.765374216177804 10.444523705920217 4.511279348659956
Ti 7.1569835127026495 8.914110716096921 3.318485202029703
Ti 5.273501236385906 7.613133288216061 3.9173264202097005
Ti 5.168845614416612 4.858614179404366 4.156569770482786
Ti 7.324748345673641 5.743573346102747 3.403088127723551
