34
Energy = -219.63984276 eV
Ti 10.070664781477156 9.087838053207031 8.278880015246306
Ti 9.500522194155439 7.175108724710711 9.510838922406942
Ti 10.38526425067509 7.288338223542319 6.602493959762377
Ti 9.295087474262907 4.923813589590763 8.102448230279478
Ti 10.113826656328337 4.896376730844822 5.676076040925841
Ti 7.642958119852397 9.058151939313957 8.979800154368531
Ti 8.775893693120109 2.8821938291181715 6.70423324145369
Ti 9.074062818554584 2.9667412236568858 4.306669819913285
Ti 7.176699733999123 6.070163503503313 9.433240276364295
Ti 8.609586569078681 9.457183472804127 6.185930842982964
Ti 6.485053366694631 3.8522404322166657 7.846954105926036
Ti 7.889634748350875 7.127774701125447 7.169922785616084
Ti 8.327116013850809 7.319005522051869 4.523547249997087
Ti 7.368909561841683 4.894977603256202 5.5937200801134095
Ti 6.53254086544821 7.579824763977078 11.41532528057017
Ti 7.549888315820963 4.287818269647232 2.981956394953353
Ti 4.7811297060711695 5.85315844828955 10.157690295454447
Ti 4.223324289151856 8.137694310000754 11.453977310103749
Ti 6.627180346137281 2.5274570507890406 4.964920210995177
Ti 4.563193206942453 3.9776047967127846 6.0238358342999625
Ti 5.134360192198739 6.266100954335299 7.408073583806797
Ti 5.0625560175739315 4.351532889962276 3.539440650577528
Ti 5.5853724647085485 6.8348865935009595 4.609083953239621
Ti 6.635451754249458 6.649189850022779 2.2521916259182326
Ti 6.721407134819301 9.079015350244541 3.6503855803868057
Ti 6.0283364190203566 8.83069037476113 6.2536678676702815
Ti 5.322746434666845 8.299504202755744 9.083654504002773
Ti 2.662639234890668 5.431113095606567 7.561451261687109
Ti 2.946202976177874 7.296425002067061 9.16556389928125
Ti 4.967206690480968 8.448110206094098 1.9928442250779554
Ti 3.035171091289403 5.9388539314122655 4.96625210969972
Ti 3.8188465570402617 6.390829704851543 2.487976469613895
Ti 3.132137924415377 7.898116562919958 6.64975404238328
Ti 3.657746976396801 8.532809011951352 4.099910146184933
