36
Energy = -234.91252167 eV
Ti 4.039841985657919 8.984218466732898 11.347615955112342
Ti 7.086986477000169 10.68128552114769 9.67376163692968
Ti 4.037097803101039 5.446385050670096 6.780208705529986
Ti 6.150295713156083 3.6670902555001197 7.075913080392051
Ti 5.7454012019860174 7.920172641039467 7.5196097130470765
Ti 3.95082470893175 5.949429396349893 4.2262571072366555
Ti 8.895147958206628 8.81049612518121 7.008390787780633
Ti 5.710869862653723 7.580582161123838 3.295248454585566
Ti 6.345368380747699 6.160254169894051 5.558823338212584
Ti 6.969632714621062 8.759252519560233 11.532922647792276
Ti 9.310972333506962 9.804746926031688 10.466905028088513
Ti 7.912373914145641 5.88385983543657 10.656397914280992
Ti 10.43451276169277 4.976955460278808 10.420425088706788
Ti 11.070105222805076 9.226296447383504 8.854868283434145
Ti 11.490022451904963 7.873316770682973 6.629488651173525
Ti 7.828486787997079 4.126325605974221 4.954441090892771
Ti 5.58382852847706 5.5031966387808176 8.876193559117205
Ti 4.341629975543703 8.182481115265743 5.59917897412074
Ti 4.91205881275009 9.564899979707558 9.351631391410496
Ti 9.415260432424217 6.379817219479611 5.742242476508071
Ti 7.980481950375364 5.399581521179605 7.7971136331914375
Ti 5.359907520056185 6.951313352829292 10.83636129835387
Ti 6.679375418294254 10.544967109496355 7.008327242458302
Ti 8.745412665442004 10.974310327293376 5.501930348317985
Ti 12.123986800789378 6.780805520121015 9.877862543711634
Ti 3.5508944446271085 7.353038476715103 9.025018423923154
Ti 6.165322081214859 5.060460993027283 3.0400777765003095
Ti 9.15358493751252 11.249234560862465 8.1492844936529
Ti 7.132392673382696 8.877232973125938 4.95108903468503
Ti 8.168735963305854 6.5655802820068105 3.575330367781287
Ti 9.855748170128555 7.358059654437124 11.217205874240365
Ti 7.61798003906612 8.0187627906971 9.16203058676625
Ti 10.025386980443367 6.692623229418517 8.586474081662717
Ti 5.1314827682160145 3.757158957461727 4.922483411244487
Ti 11.064796270729026 10.384993882542897 6.4776613555320335
Ti 10.003792148869422 8.808454349328406 4.612530518732765
