30
Energy = -193.09423309 eV
Ti 6.514913074445527 10.045262769768138 4.475853966991595
Ti 7.1071085953008035 9.556356744450976 7.358782005539358
Ti 6.54746695154572 7.485530340935546 5.619168293633218
Ti 5.013078769838781 5.846461965430321 3.9053435782094152
Ti 6.502252691887149 6.5466891967121255 8.58675433083384
Ti 4.838281915111499 8.474265188432312 3.4224789388866306
Ti 5.019430655938877 8.744442424720948 8.854080810030023
Ti 3.546016813238301 4.542001850931157 6.015300850371135
Ti 7.4362390018587385 8.561868038575742 9.942722947611013
Ti 8.629225685296891 5.028593730872104 9.495034366724706
Ti 7.547579395127777 2.6158421071856743 5.812070040299546
Ti 6.227852850562759 4.871231336483535 6.4128074779098325
Ti 4.576987568727803 4.45153856714795 8.539771162851363
Ti 7.369505199602184 7.708521703170308 3.1383981778025922
Ti 9.159442524696848 6.5878188025726026 4.777806539962892
Ti 10.800238439436805 5.624547652146332 8.187738170439333
Ti 8.84717247321647 4.752744468191436 6.605228513061703
Ti 7.517882263776038 4.801266763891441 3.899215200693221
Ti 5.313768251973311 3.3072282762240546 4.396475677906648
Ti 4.266614312696484 6.8293912269164805 7.1849134350872434
Ti 9.50312531323661 7.414358562601862 9.800582361053308
Ti 3.0855763540215304 7.480514307480324 4.893949797205928
Ti 4.6639548689196415 9.69516793844315 6.350823482867124
Ti 7.11605759781046 3.1967759192748386 8.375795268912864
Ti 8.836223778243628 7.4056537312755895 7.329791741712165
Ti 8.727598010116987 9.027657737403203 5.102032810606158
Ti 3.0400619620126044 10.074145111403702 4.614414517192614
Ti 5.066841123032775 2.469195591851796 6.830163596205738
Ti 2.3995237866167947 8.841699998462108 6.994780126643115
Ti 9.900054440557 3.1333026158914987 8.197796481602168
