33
Energy = -214.59833327 eV
Ti 14.078255370871855 12.158690684896653 5.578202278639875
Ti 6.659966117646951 5.470207580039149 10.771711499215407
Ti 6.171965512281466 12.092906950586688 8.61617979642665
Ti 11.19076899162351 9.03154089039708 5.542183093455132
Ti 8.112309702510627 12.194930832210607 10.489412850470906
Ti 9.391583145858496 5.23646775940389 10.912407302948663
Ti 12.192963447849243 11.2783694095253 4.46650393857512
Ti 10.18220102157795 8.096736483094865 11.166469971334475
Ti 8.053108578047633 5.83087093403987 6.742163353220646
Ti 12.70241544924621 8.192400696585542 7.598575633791216
Ti 5.18501413678482 9.71824519921554 8.356388555860969
Ti 5.878040214206421 6.053114080372277 8.404024293732038
Ti 5.8472380649715285 10.655087016048673 10.684811446843627
Ti 11.391116463355333 6.797847929230013 9.447460258253962
Ti 12.204679002106891 9.627483167732445 9.827558050805601
Ti 10.542666358365695 11.872455652991695 9.028081822889796
Ti 10.06659257598921 4.85232687111788 8.385177168514161
Ti 6.525914349435056 8.026700623167198 7.056410661910746
Ti 7.765536896724871 4.283633012083353 8.94147573637792
Ti 8.426369990119253 6.9720527345090675 9.178844752187386
Ti 8.462821888526754 12.518460819483483 7.808063188115291
Ti 9.705342359128037 10.989669618507431 6.186489158098664
Ti 13.889099050239038 9.671491166695683 5.3650303509751005
Ti 10.658920514610019 6.628814133277667 6.7450951564325745
Ti 12.3391126997701 10.752090684791794 7.228748986710635
Ti 8.633198919153514 8.431888434633265 5.885508458246052
Ti 10.264271908963392 9.093784895908437 8.205744831897423
Ti 7.979516870219763 9.60496778636308 11.726681033621693
Ti 10.180319794952748 10.648241110035105 11.09248649114469
Ti 7.9229155614296 7.08227733534489 12.031616794801513
Ti 7.004780596705557 10.630254540163135 6.495157798007529
Ti 7.883184984968818 10.05882306771625 8.986232513219017
Ti 5.95681469539623 8.030583620765578 10.379816390915392
