39
Energy = -256.09724881 eV
Ti 4.730189011319352 2.6600082605813187 8.868566205236082
Ti 3.1421136700783348 2.692640471311818 6.979899425114471
Ti 5.84154752279988 4.823251251562215 9.820172197152916
Ti 5.555209183905067 1.8907060370071147 6.485024218240277
Ti 8.334243779952782 4.523050004532281 10.506800248268375
Ti 7.183702114660848 2.6520066242937688 8.486156049605668
Ti 3.237180043412043 4.87463427828994 8.484331862435576
Ti 1.489721179224766 4.752143149981423 6.505227071000784
Ti 5.126665198493384 6.938265961943052 8.129152044783229
Ti 5.807520000942133 4.502088827643869 7.069933646123675
Ti 8.376495730036345 4.998591844845921 7.786939144481822
Ti 10.03715196952746 5.7812037591131515 9.785879797492695
Ti 3.736334350401556 4.8018128789559045 5.466743909254935
Ti 7.6061466978504 6.877062707246932 9.508036742253275
Ti 5.871823144297782 3.5565323129185358 4.1158776188499
Ti 2.806978699197245 7.072024600207176 6.972181982939435
Ti 6.782245772022366 9.386509591985462 8.989875845988903
Ti 7.865323715423376 3.1890951202690228 5.906463510802826
Ti 2.3546750631011766 6.741338524238827 4.405744146249367
Ti 7.2802992880899 5.798936431334565 4.894534350595149
Ti 4.449445645250522 5.735859225954135 2.920706747804648
Ti 4.967388806942912 7.26801483718867 5.14263902221232
Ti 8.497112213269581 3.929410182307472 3.466448691319388
Ti 9.884802256176577 5.195951332476358 5.317377283052592
Ti 4.803469723621494 9.424219204764022 7.018585438789249
Ti 3.0234116893393117 9.14366704142293 5.212311507437951
Ti 7.341386233127476 7.848638332083928 6.828694250808655
Ti 9.966369769204942 7.169677827709613 7.627584294593204
Ti 9.368583702117256 8.918472593861564 9.530036509094629
Ti 6.839006739739442 5.272921348704349 2.225467588692821
Ti 8.305324397998131 11.278302934994466 8.857899680896148
Ti 3.821700024255134 8.334003568245821 2.9033579096352704
Ti 6.313442685833661 7.783742076007905 2.609754126903149
Ti 9.008281730326066 6.520700769466283 3.0383388809011818
Ti 7.004729373315795 10.646128262332624 6.530866417454708
Ti 5.410998589582549 9.824665330048568 4.329617259875564
Ti 9.814719220911739 7.7176542945038875 5.139078746320115
Ti 9.288156454613214 9.680686006101032 6.994691756813567
Ti 7.940734229799886 9.010011813725574 4.353633490687016
