38
Energy = -247.68434865 eV
Ti 7.191452615877687 12.5067226378079 5.947689060131292
Ti 5.422670005751897 11.001094225160703 7.495365150829275
Ti 4.070928063653369 8.43538918968124 8.384855255261556
Ti 6.724312756408322 8.811978638604556 8.522506167280747
Ti 3.4096208081487376 6.3512464963156505 9.581084749251735
Ti 8.0491792105306 10.50431950989952 6.795352419397016
Ti 6.055677144431627 6.625213131757899 10.060348186471236
Ti 2.47226637874686 6.381311060973453 7.139031859737369
Ti 8.797478338310476 7.1203255698793555 9.907571153480491
Ti 3.8775191427965465 9.398763874442041 5.965107881944437
Ti 5.415960217722885 11.123136950537015 4.926521500824569
Ti 9.843872090111187 8.700726522270207 8.143423684984294
Ti 7.749996639894891 10.3452978049263 4.107047721870267
Ti 6.4248765130917675 8.607815438004973 5.829915516605482
Ti 5.399257188959355 6.3840615972662675 7.482700343191334
Ti 2.330461396909965 4.343199927556754 8.810663618022016
Ti 10.055300172577207 5.8333863240606 11.752637144532176
Ti 7.93787359968015 4.7043385302264555 11.013790448770546
Ti 4.963629002220881 4.262270424661998 9.764193463620392
Ti 4.218109228600768 6.9956744380018 5.14042447363117
Ti 5.398450911314436 8.930427436522606 3.499776062831384
Ti 4.170856953198543 4.116661407205311 7.228434978085636
Ti 8.132899464702863 6.909214452355003 7.2239146409233
Ti 7.3090000225762 4.691990164394138 8.536122696907269
Ti 9.394877339043159 8.520691856777209 5.437849755451884
Ti 10.00533400318394 4.6853163003024125 9.436241007994326
Ti 6.894019936326081 5.657819858762368 5.089986935195375
Ti 6.570644502565563 3.2014957806848656 6.20365816241852
Ti 11.357093914385175 6.906235645265083 9.921680972914189
Ti 7.877942144762568 7.70271288832665 3.3198304931541815
Ti 4.300827506158245 4.54847462325487 4.8128335960610675
Ti 5.502601965651792 6.134053412543869 2.863553538426082
Ti 10.629895729102147 6.3530212585913075 7.428224155812567
Ti 9.109333717634811 4.253191822030867 6.596406282731827
Ti 9.63001827372136 5.94888331509282 4.534219438585534
Ti 8.52391095916884 3.5293830630585328 4.34554107419384
Ti 7.939570173624643 5.251349626303858 2.578964384842915
Ti 6.173741698967491 3.5613671957022373 3.5079017178232315
