39
Energy = -258.04838231 eV
Ti 3.455279800259466 3.123232498118973 5.871320958345818
Ti 2.6383648179420223 5.457960692426144 6.930633623576783
Ti 3.4736487913956284 5.29304686846738 4.4857713698574635
Ti 5.442315111865151 3.3340540166384565 4.224707724606702
Ti 4.244097611331524 8.280886688375938 10.45129899030889
Ti 3.743432847758047 3.485940272968997 8.280348522610321
Ti 3.0874589314301994 8.372481444806985 8.023604821781008
Ti 4.185661610205713 6.037579742749551 8.983971647408952
Ti 4.460810713064661 7.446588072386315 5.79167221829296
Ti 5.232378581094128 5.031702006534912 6.602392719137508
Ti 5.410018480693428 8.960634056192722 3.8455887029535414
Ti 5.430124495148895 6.037596848129108 3.3694144090172937
Ti 5.739515406826339 8.294724859849525 8.137791981432724
Ti 7.28152194035051 4.234325341963885 2.7129883138201953
Ti 4.287802488647198 10.427244179319178 9.214117204970933
Ti 5.91182849106825 2.498908581793735 6.834973643738208
Ti 6.4135170667876835 6.670079114856857 10.303095145660388
Ti 6.08229536575004 3.897238532610808 9.206082263717189
Ti 4.462923368474851 10.118771036672118 6.5549615239939065
Ti 7.639185377531099 6.040341231912701 7.818236710957843
Ti 6.569458749175246 9.474462141828125 10.36016330380785
Ti 8.306581883497207 4.807275677346579 10.156166604480926
Ti 7.342758452162561 7.970070667169806 5.482169976640152
Ti 8.082623079377305 2.787673605111815 4.938724164605376
Ti 9.991145160323939 4.513762879900263 6.157287099099713
Ti 6.377626482616778 11.135748414373044 8.324213405960368
Ti 6.835211169908509 10.585940708099884 5.779017228106042
Ti 8.31136328944048 3.3664025424091104 7.800466061035159
Ti 7.502960142955477 9.816339191767764 3.3788960935274974
Ti 7.776870734990715 6.996723877462416 2.9603507632919235
Ti 7.562598179608789 5.252138296939767 5.134311082683088
Ti 8.910744674295685 7.363694347547279 9.720709919201502
Ti 10.1313338747083 5.214552025590198 8.703755126708016
Ti 8.16885874983515 9.204399084242281 7.9263782185841185
Ti 9.538266252434694 4.665462769169163 3.5246760835517668
Ti 10.022260251915736 7.4021507990592195 7.247821054809529
Ti 9.399140584314335 9.772897633127533 5.590044527829832
Ti 9.652633446853558 8.78162493435963 3.2897840775751783
Ti 9.869367151171476 6.837867165214585 4.862047253987622
