39
Energy = -256.26380473 eV
Ti 8.729393452442965 8.384093379033239 11.536877481633308
Ti 10.213252133813864 7.809332587271935 9.4614189375371
Ti 8.726590988577724 3.5148226273312297 9.344742815341423
Ti 8.696396374526755 5.799009565041453 10.495288754544472
Ti 8.794234803133532 2.8887513599507453 6.870411099372663
Ti 10.341181193697947 5.173056481702365 5.272377303835673
Ti 10.863944462523103 7.375118428744868 3.979934424584436
Ti 11.155503607177781 7.440640125409166 6.613003844729143
Ti 9.725664897831987 5.598253266162334 7.838455203043034
Ti 7.736934012599908 9.888161042349925 9.643500761667802
Ti 6.537543368292271 7.268757307855948 11.198920947300037
Ti 6.304686250875772 4.546543297333206 10.010917126031663
Ti 6.7160864997816505 2.380649364351832 8.523166665761108
Ti 6.33495718533993 2.6100018005770678 6.118457175422679
Ti 9.487380201885008 9.36611431390161 7.53342965997482
Ti 7.721930234685434 7.379387229111974 8.612482722566932
Ti 7.829284056568866 4.410299356347522 4.789841089797912
Ti 7.1522547622753825 4.889675105389974 7.451615917042176
Ti 10.267398017455474 9.457289872032781 5.155151746441199
Ti 4.998875619547972 6.553808403736504 8.73807585077329
Ti 5.08226752558598 4.697479758805339 5.231166467216886
Ti 6.338082713089441 9.345859724847925 7.5539422713634625
Ti 9.039219050151672 5.986181945686054 3.1288617263590828
Ti 5.543066599631343 7.246689561168903 6.181793176842852
Ti 6.456230450743103 9.913008309290536 11.72068050860166
Ti 7.8116005864862785 10.06230252419929 5.537427332307745
Ti 8.50158432302599 7.278841872522597 5.571199055957593
Ti 4.664981595083961 3.920009982281812 7.784288174468229
Ti 4.887902026200349 8.739013992302267 10.07078247344608
Ti 3.8016482510827396 6.680339566929683 4.059039105868922
Ti 8.610248911071805 8.640775610889566 3.243994021626198
Ti 5.250000940360588 11.017353750411637 9.229501342264692
Ti 6.544620725824026 6.5229968142270245 3.5340877093218697
Ti 3.1967867526495923 6.215464021797987 6.644405284634277
Ti 3.7036351437947195 8.931722380803558 7.74467193313971
Ti 6.002640959686472 8.893937622335379 4.209823344395278
Ti 2.886020630097648 8.545388469448252 5.366092376822635
Ti 3.8035130706751277 9.28409754453917 3.248292686350274
Ti 4.632993509459251 10.442692877466653 5.847196244609765
