31
Energy = -200.48617442 eV
Ti 12.711353471082546 7.732494821615039 8.58758550568249
Ti 8.864556266654512 5.8404970150170925 7.433580536005669
Ti 10.654801951803803 9.028157146553395 12.166366671076966
Ti 11.373946463753244 5.4330183310497215 8.657488452677903
Ti 12.34007841417362 10.421709110068775 8.287858478950408
Ti 4.463738519184188 10.573276111675328 5.643731890495367
Ti 8.006955708940339 12.659988095540355 6.641366284473879
Ti 10.466705034383175 9.191922019444668 9.466669697395696
Ti 9.674089803379468 6.6939111645868765 10.0502816611487
Ti 7.959709934271676 8.082441200645489 5.9104798289665865
Ti 7.949779196839687 8.255039096063713 8.526944628178587
Ti 7.739071633946441 10.740565310860866 8.404990030081382
Ti 6.975687127819027 6.186290334090781 9.668102730220598
Ti 8.191851102498372 5.308584985374835 11.76329733000049
Ti 5.828567652391236 12.76121720770032 5.2030079368903515
Ti 7.2090982207012075 10.506451355669327 5.667361830186554
Ti 5.511654022952232 8.467479281336782 4.9567515030089435
Ti 12.22604241559811 6.8251247734761735 11.08591635500089
Ti 10.711993818196966 4.632963267629894 11.238860446445083
Ti 5.6520362662582295 11.877354921079887 7.520461830330849
Ti 12.955103786773313 9.241852922150002 10.573551701299836
Ti 10.608430063539705 7.599789375829199 7.049771844984935
Ti 8.020024845522318 8.139391650361704 11.501210890773214
Ti 10.077832309052754 11.819169302621146 8.839405495113311
Ti 8.86715113483406 4.249471505983662 9.431543049320625
Ti 11.544010356670006 11.19246174842481 10.811801920018095
Ti 10.047853108414872 6.628671734306617 12.73271710173437
Ti 5.520972117122317 9.04786757209741 7.569829557005496
Ti 8.933555353344858 10.704131496600427 11.001334606538014
Ti 6.3294253927610065 6.562756674515833 6.887758037124246
Ti 9.857676119889977 10.14879363569379 6.814954681967064
