39
Energy = -254.82049301 eV
Ti 6.917963953351354 4.0590400884145605 10.050368460411406
Ti 4.870503360619102 4.57850928336766 8.06060027694598
Ti 2.788458216049005 4.510225233153745 6.560150144412157
Ti 6.813858324013099 5.554937270624191 12.444215426362089
Ti 5.262303228409701 5.869823526010017 10.429668445035041
Ti 7.163804456255257 3.254611066903038 7.464300055343581
Ti 2.9051235337902583 6.551920506722897 8.188922892517846
Ti 5.221872379959764 3.685240960041126 5.446094183375561
Ti 9.264414770544823 4.693988980999462 9.14270980241828
Ti 8.103602669783688 2.8716091478144086 5.179414316525415
Ti 9.600156482860038 2.6114534833335536 7.433838405346095
Ti 2.6256909108238466 5.179416650270737 4.153887394667194
Ti 8.051768627217458 6.6713201699875455 10.649959522815065
Ti 7.106128746090389 5.986421928785695 8.062513093789997
Ti 4.613336613128304 6.541084110992724 6.013283731814679
Ti 5.039929185109216 5.574256018916183 3.5278972713450827
Ti 1.8384829794234594 6.842733483626493 5.86257851226707
Ti 5.980972897718265 7.919482814992982 11.697184258320402
Ti 4.841836110553659 7.96291433688479 8.77271878383456
Ti 6.891255406402194 3.9853930996553455 2.9479480418010744
Ti 6.461197033687964 5.89335770619365 1.1785320152339367
Ti 7.211643999075544 5.4492259640095675 5.356478355461794
Ti 9.63512027290616 5.020672569890602 6.6861403721841155
Ti 8.635248051658847 4.45414630964344 1.296236531229334
Ti 3.3737698559368834 8.850639721907193 6.694679050686298
Ti 3.3776102253891853 7.8442049121282285 3.9970071611346474
Ti 9.303213293918468 7.486247886002514 8.03869698828215
Ti 6.085413452362551 7.775694790884542 3.673778868949339
Ti 7.1557518863598215 8.555730370431208 9.271870730831836
Ti 6.892590504385933 8.47030269668948 6.589536953909161
Ti 8.30346486820481 6.51812680732156 2.77853619764906
Ti 9.498699208132445 4.6994948885361625 3.9822782148075824
Ti 5.554590690802299 10.441435756547708 7.8552451293727605
Ti 5.194558472463536 9.91291596604265 5.045052897598634
Ti 9.119311421718558 7.278657522590129 5.267595177123277
Ti 7.801107990740918 9.480014133146184 4.17610779078412
Ti 9.40094305256032 9.636772454075535 6.243765666710844
Ti 8.288452816667075 10.580201518241147 8.2735079901848
Ti 7.304479689546999 11.18313023663971 6.044616504721422
