38
Energy = -251.38601209 eV
Ti 4.90453764189678 9.64268315354491 10.598319994208573
Ti 7.211181684029479 10.508117301509817 9.494125141737932
Ti 9.486537946118858 10.704007015081011 7.80725489666306
Ti 4.827037315013864 10.070109873075994 8.032762196077003
Ti 6.882651816832475 8.222107870292655 11.623570928420472
Ti 11.197802685192311 9.510590003870837 6.08702783130198
Ti 4.485242478232742 7.111390684219648 10.922352119705954
Ti 9.294474821488311 8.810312564788237 10.07815365081706
Ti 6.954430011562491 10.994680250909088 6.641092342021384
Ti 11.438800401100625 9.100437520771838 8.612125687824644
Ti 8.838126034741913 9.75435293416482 5.110430900149574
Ti 6.595390165135296 8.157050714075027 9.102642288096552
Ti 8.579560997369729 6.314316122717932 10.494062312179091
Ti 4.580190608195419 10.122133768135521 5.438249201376367
Ti 9.249106957024475 8.170664180900374 7.426346223517999
Ti 6.166567425709275 5.567328656971448 10.881848845717872
Ti 10.834274876718549 6.499656666384095 9.088059080638363
Ti 3.3815191023779256 8.062879368091087 9.04905859965227
Ti 6.582613705995743 10.061431075033399 4.039056625351376
Ti 3.7594376615381235 8.003476319653087 6.486557454050056
Ti 8.143179124688759 5.849895653946541 7.983565656709311
Ti 11.864486788072016 7.257360241329431 6.832215938293288
Ti 6.537831371618944 8.444023972206423 6.224067132193215
Ti 5.070202641675471 7.876892570354187 3.991643729309378
Ti 7.746521278413996 7.730480747022646 3.3280644273988833
Ti 5.4140890974664115 6.326084942301628 8.073788279138975
Ti 10.205151540554875 5.213841828672202 6.445302893054589
Ti 9.853645952887867 7.296592054675879 4.950155521120547
Ti 6.77736144961564 3.932952556341484 9.063586891535326
Ti 9.586135099180748 4.121241887810741 8.994329842538834
Ti 3.9192510892918717 5.029341238416874 9.14618361089865
Ti 4.591030938222424 5.533887847357942 5.331807801635866
Ti 8.295906339751946 3.499268539670303 6.480702323438153
Ti 6.214126783672996 5.681126517651483 3.125186001918044
Ti 7.353407287629228 5.995569165985598 5.548966097141399
Ti 5.7007374854924135 3.880610994714572 6.919163961281047
Ti 8.751218819653566 4.981379546178174 3.771825484744577
Ti 6.478426736292308 3.703301728809002 4.5111973161470615
