30
Energy = -196.37341624 eV
Ti 9.24677067119167 6.945681000215021 4.336231952630642
Ti 8.324042812497419 9.31670117494492 3.754240951158261
Ti 6.375591916080933 7.253430256762375 4.254796707353832
Ti 7.535265314977917 4.831693818293842 4.513920463522999
Ti 4.362419732093258 8.810031397044447 5.588887060234169
Ti 9.848125165429895 4.663286105519229 5.579695601443271
Ti 10.094941519819422 9.183748265630646 5.5088521459193975
Ti 8.243014701757875 11.050580886585573 5.927092130895091
Ti 5.7354969575785155 7.086854135302597 7.105981889305704
Ti 6.1808327413521775 10.116201231024606 4.285688363910116
Ti 7.477335203877604 8.749757792368577 6.255500346265996
Ti 5.506404180056776 4.697035275666151 5.8296483282322
Ti 8.119226730112992 6.1163560629398965 6.825987748760697
Ti 3.64581677950529 6.543509437762205 7.165311704378604
Ti 10.649525409493659 6.99022195513322 6.822614704556384
Ti 5.632006211278663 10.78545710758031 6.650994260411759
Ti 9.590444673126791 9.242530718753112 8.126874724479315
Ti 10.015344744620714 4.652300907907822 8.075445488238508
Ti 5.568594729530984 4.698114200656765 8.42875880565765
Ti 4.644408299145769 9.158979595328416 8.417450865018512
Ti 7.755617087266487 3.556958692282041 6.937101844403154
Ti 7.196818532643473 10.212228801165164 8.702465026672792
Ti 7.446143173885574 7.476178474931581 9.069533498447685
Ti 10.035730653654356 6.852094516301082 9.520072152686579
Ti 8.099905036851348 4.709224029329161 9.677164562346848
Ti 4.348715680100263 6.941120453563399 9.606572818490664
Ti 6.035039135515164 5.816846520698882 10.810675402865344
Ti 6.131174723747187 8.53377845547352 10.977869144777554
Ti 8.790448798768526 9.097891109139157 10.604063596912125
Ti 8.22621373803173 6.772622675687719 11.501922764016392
