33
Energy = -214.8623339 eV
Ti 12.866841354247393 7.594142668668707 8.565941754860273
Ti 11.756920839726758 6.020681142782054 10.209953829260327
Ti 11.712189240382946 8.331650612308579 6.601294303094007
Ti 11.060266878446747 5.760282980043523 7.600642378026123
Ti 11.75646120939796 10.10541977535552 8.640843033887032
Ti 12.109663454448524 8.598362123193153 10.752500484012975
Ti 9.738257895117652 9.917040575072287 6.784434060283351
Ti 9.996842535793485 7.385051534774904 11.617502829417058
Ti 9.282824592521946 7.4613407661303714 6.225630939890219
Ti 7.636878843439787 8.86696802080073 4.584635215844931
Ti 10.156602096636098 7.897481082297084 8.889976333276769
Ti 9.345677603791378 5.390971989831699 9.882349228360889
Ti 7.873752627767759 6.111237886938488 4.567017783900412
Ti 9.891846622395715 9.966998670971156 10.716211038720617
Ti 8.153414573558589 5.688090556465862 7.597745170569455
Ti 8.866022619272327 11.167098108501843 8.808147205205277
Ti 7.51108889805563 8.528043631046188 8.439289463033942
Ti 7.613849567138982 6.972892106974959 10.839172726531796
Ti 6.299849252639145 7.243203962019485 6.407524058886592
Ti 7.2798361783347945 9.714636815174504 10.760985670171335
Ti 7.6099630394769004 12.12424871895522 11.17322337975202
Ti 5.699696660819716 7.528947969957343 3.7569114009262434
Ti 5.567130300449212 5.17732797725368 4.515990883080813
Ti 6.005185985680198 5.6911869877623 9.196157091937694
Ti 5.136084239444286 4.924621865219129 6.971353959564685
Ti 7.093901169123669 10.485442342823774 6.5929432836603725
Ti 6.489870998558658 11.802492631540547 8.943614908026992
Ti 5.369781743109475 8.030717432162415 10.180707028573634
Ti 5.111396167582884 11.04352002242258 10.909039134120109
Ti 5.009278671081828 9.331576822820308 5.5164631595449665
Ti 4.106321915849986 7.1333460919303135 8.047223793170248
Ti 3.840450828160097 6.809161480759943 5.537221835886013
Ti 5.072007768256708 9.829772624604056 8.338622502033873
